MODEL 1
REMARK VINA RESULT:      -9.2      0.000      0.000
REMARK  6 active torsions:
REMARK  status: ('A' for Active; 'I' for Inactive)
REMARK    1  A    between atoms: C_4  and  C_5 
REMARK    2  A    between atoms: C_5  and  C_6 
REMARK    3  A    between atoms: C_6  and  C_7 
REMARK    4  A    between atoms: C_7  and  N_8 
REMARK    5  A    between atoms: C_11  and  C_13 
REMARK    6  A    between atoms: C_11  and  O_12 
ROOT
HETATM    1  N   UNL     1      -4.097   1.234 -31.107  1.00  0.00    -0.314 N 
HETATM    2  C   UNL     1      -5.197   1.241 -30.225  1.00  0.00     0.269 A 
HETATM    3  O   UNL     1      -5.530   0.317 -29.497  1.00  0.00    -0.269 OA
HETATM    4  C   UNL     1      -5.822   2.677 -30.289  1.00  0.00     0.198 A 
HETATM    5  C   UNL     1      -4.971   3.343 -31.344  1.00  0.00     0.017 A 
HETATM    6  C   UNL     1      -3.969   2.463 -31.770  1.00  0.00     0.047 A 
HETATM    7  C   UNL     1      -5.039   4.639 -31.840  1.00  0.00     0.013 A 
HETATM    8  C   UNL     1      -4.097   5.035 -32.790  1.00  0.00     0.001 A 
HETATM    9  C   UNL     1      -3.101   4.144 -33.222  1.00  0.00     0.002 A 
HETATM   10  C   UNL     1      -3.029   2.846 -32.710  1.00  0.00     0.030 A 
ENDROOT
BRANCH   4  11
HETATM   11  C   UNL     1      -7.253   2.693 -30.760  1.00  0.00     0.018 A 
HETATM   12  C   UNL     1      -7.853   2.010 -31.882  1.00  0.00     0.002 A 
HETATM   13  C   UNL     1      -9.213   2.331 -31.895  1.00  0.00     0.043 A 
HETATM   14  C   UNL     1      -7.373   1.155 -32.896  1.00  0.00     0.014 A 
HETATM   15  C   UNL     1     -10.105   1.839 -32.857  1.00  0.00     0.030 A 
HETATM   16  N   UNL     1      -9.444   3.169 -30.833  1.00  0.00    -0.365 N 
HETATM   17  C   UNL     1      -9.597   0.994 -33.845  1.00  0.00     0.002 A 
HETATM   18  C   UNL     1      -8.249   0.656 -33.868  1.00  0.00     0.001 A 
HETATM   19  H   UNL     1     -10.346   3.555 -30.593  1.00  0.00     0.165 HD
HETATM   20  C   UNL     1      -8.285   3.395 -30.151  1.00  0.00     0.100 A 
ENDBRANCH   4  11
BRANCH   4  21
HETATM   21  O   UNL     1      -5.645   3.371 -29.054  1.00  0.00    -0.371 OA
HETATM   22  H   UNL     1      -4.721   3.666 -29.035  1.00  0.00     0.212 HD
ENDBRANCH   4  21
BRANCH   1  23
HETATM   23  C   UNL     1      -3.188   0.114 -31.220  1.00  0.00     0.133 C 
BRANCH  23  24
HETATM   24  C   UNL     1      -3.820  -1.136 -31.832  1.00  0.00     0.025 C 
BRANCH  24  25
HETATM   25  C   UNL     1      -4.223  -0.943 -33.294  1.00  0.00     0.040 C 
BRANCH  25  26
HETATM   26  C   UNL     1      -4.859  -2.189 -33.860  1.00  0.00    -0.058 A 
HETATM   27  C   UNL     1      -6.184  -2.164 -34.314  1.00  0.00     0.007 A 
HETATM   28  C   UNL     1      -6.781  -3.319 -34.822  1.00  0.00     0.001 A 
HETATM   29  C   UNL     1      -6.062  -4.513 -34.870  1.00  0.00     0.000 A 
HETATM   30  C   UNL     1      -4.746  -4.550 -34.411  1.00  0.00     0.001 A 
HETATM   31  C   UNL     1      -4.146  -3.395 -33.907  1.00  0.00     0.007 A 
ENDBRANCH  25  26
ENDBRANCH  24  25
ENDBRANCH  23  24
ENDBRANCH   1  23
TORSDOF 6
ENDMDL
MODEL 2
REMARK VINA RESULT:      -8.8      2.794      5.331
REMARK  6 active torsions:
REMARK  status: ('A' for Active; 'I' for Inactive)
REMARK    1  A    between atoms: C_4  and  C_5 
REMARK    2  A    between atoms: C_5  and  C_6 
REMARK    3  A    between atoms: C_6  and  C_7 
REMARK    4  A    between atoms: C_7  and  N_8 
REMARK    5  A    between atoms: C_11  and  C_13 
REMARK    6  A    between atoms: C_11  and  O_12 
ROOT
HETATM    1  N   UNL     1      -4.801   1.972 -31.907  1.00  0.00    -0.314 N 
HETATM    2  C   UNL     1      -3.489   2.427 -31.659  1.00  0.00     0.269 A 
HETATM    3  O   UNL     1      -2.607   1.786 -31.106  1.00  0.00    -0.269 OA
HETATM    4  C   UNL     1      -3.367   3.844 -32.317  1.00  0.00     0.198 A 
HETATM    5  C   UNL     1      -4.767   4.069 -32.839  1.00  0.00     0.017 A 
HETATM    6  C   UNL     1      -5.552   2.938 -32.592  1.00  0.00     0.047 A 
HETATM    7  C   UNL     1      -5.282   5.157 -33.531  1.00  0.00     0.013 A 
HETATM    8  C   UNL     1      -6.611   5.105 -33.953  1.00  0.00     0.001 A 
HETATM    9  C   UNL     1      -7.399   3.972 -33.692  1.00  0.00     0.002 A 
HETATM   10  C   UNL     1      -6.870   2.873 -33.008  1.00  0.00     0.030 A 
ENDROOT
BRANCH   4  11
HETATM   11  C   UNL     1      -3.050   4.941 -31.334  1.00  0.00     0.018 A 
HETATM   12  C   UNL     1      -1.785   5.578 -31.054  1.00  0.00     0.002 A 
HETATM   13  C   UNL     1      -2.006   6.547 -30.071  1.00  0.00     0.043 A 
HETATM   14  C   UNL     1      -0.467   5.422 -31.533  1.00  0.00     0.014 A 
HETATM   15  C   UNL     1      -0.989   7.361 -29.557  1.00  0.00     0.030 A 
HETATM   16  N   UNL     1      -3.343   6.513 -29.761  1.00  0.00    -0.365 N 
HETATM   17  C   UNL     1       0.304   7.180 -30.054  1.00  0.00     0.002 A 
HETATM   18  C   UNL     1       0.564   6.223 -31.027  1.00  0.00     0.001 A 
HETATM   19  H   UNL     1      -3.789   7.114 -29.082  1.00  0.00     0.165 HD
HETATM   20  C   UNL     1      -3.974   5.559 -30.503  1.00  0.00     0.100 A 
ENDBRANCH   4  11
BRANCH   4  21
HETATM   21  O   UNL     1      -2.464   3.823 -33.423  1.00  0.00    -0.371 OA
HETATM   22  H   UNL     1      -2.729   4.550 -34.007  1.00  0.00     0.212 HD
ENDBRANCH   4  21
BRANCH   1  23
HETATM   23  C   UNL     1      -5.247   0.640 -31.563  1.00  0.00     0.133 C 
BRANCH  23  24
HETATM   24  C   UNL     1      -4.728  -0.449 -32.502  1.00  0.00     0.025 C 
BRANCH  24  25
HETATM   25  C   UNL     1      -5.670  -0.720 -33.675  1.00  0.00     0.040 C 
BRANCH  25  26
HETATM   26  C   UNL     1      -5.642  -2.174 -34.079  1.00  0.00    -0.058 A 
HETATM   27  C   UNL     1      -4.460  -2.918 -33.969  1.00  0.00     0.007 A 
HETATM   28  C   UNL     1      -4.427  -4.258 -34.359  1.00  0.00     0.001 A 
HETATM   29  C   UNL     1      -5.574  -4.864 -34.871  1.00  0.00     0.000 A 
HETATM   30  C   UNL     1      -6.752  -4.129 -34.994  1.00  0.00     0.001 A 
HETATM   31  C   UNL     1      -6.788  -2.790 -34.601  1.00  0.00     0.007 A 
ENDBRANCH  25  26
ENDBRANCH  24  25
ENDBRANCH  23  24
ENDBRANCH   1  23
TORSDOF 6
ENDMDL
MODEL 3
REMARK VINA RESULT:      -8.7      2.431      5.270
REMARK  6 active torsions:
REMARK  status: ('A' for Active; 'I' for Inactive)
REMARK    1  A    between atoms: C_4  and  C_5 
REMARK    2  A    between atoms: C_5  and  C_6 
REMARK    3  A    between atoms: C_6  and  C_7 
REMARK    4  A    between atoms: C_7  and  N_8 
REMARK    5  A    between atoms: C_11  and  C_13 
REMARK    6  A    between atoms: C_11  and  O_12 
ROOT
HETATM    1  N   UNL     1      -6.547   2.228 -33.533  1.00  0.00    -0.314 N 
HETATM    2  C   UNL     1      -6.580   3.634 -33.630  1.00  0.00     0.269 A 
HETATM    3  O   UNL     1      -7.400   4.284 -34.265  1.00  0.00    -0.269 OA
HETATM    4  C   UNL     1      -5.448   4.181 -32.695  1.00  0.00     0.198 A 
HETATM    5  C   UNL     1      -4.810   2.906 -32.196  1.00  0.00     0.017 A 
HETATM    6  C   UNL     1      -5.505   1.801 -32.700  1.00  0.00     0.047 A 
HETATM    7  C   UNL     1      -3.745   2.741 -31.321  1.00  0.00     0.013 A 
HETATM    8  C   UNL     1      -3.368   1.443 -30.974  1.00  0.00     0.001 A 
HETATM    9  C   UNL     1      -4.061   0.336 -31.491  1.00  0.00     0.002 A 
HETATM   10  C   UNL     1      -5.142   0.509 -32.360  1.00  0.00     0.030 A 
ENDROOT
BRANCH   4  11
HETATM   11  C   UNL     1      -4.398   4.980 -33.422  1.00  0.00     0.018 A 
HETATM   12  C   UNL     1      -3.408   5.887 -32.888  1.00  0.00     0.002 A 
HETATM   13  C   UNL     1      -2.655   6.372 -33.960  1.00  0.00     0.043 A 
HETATM   14  C   UNL     1      -3.081   6.351 -31.597  1.00  0.00     0.014 A 
HETATM   15  C   UNL     1      -1.601   7.281 -33.805  1.00  0.00     0.030 A 
HETATM   16  N   UNL     1      -3.152   5.793 -35.102  1.00  0.00    -0.365 N 
HETATM   17  C   UNL     1      -1.303   7.719 -32.513  1.00  0.00     0.002 A 
HETATM   18  C   UNL     1      -2.033   7.264 -31.422  1.00  0.00     0.001 A 
HETATM   19  H   UNL     1      -2.792   5.956 -36.031  1.00  0.00     0.165 HD
HETATM   20  C   UNL     1      -4.192   4.965 -34.795  1.00  0.00     0.100 A 
ENDBRANCH   4  11
BRANCH   4  21
HETATM   21  O   UNL     1      -5.996   4.885 -31.580  1.00  0.00    -0.371 OA
HETATM   22  H   UNL     1      -5.242   5.191 -31.051  1.00  0.00     0.212 HD
ENDBRANCH   4  21
BRANCH   1  23
HETATM   23  C   UNL     1      -7.535   1.375 -34.158  1.00  0.00     0.133 C 
BRANCH  23  24
HETATM   24  C   UNL     1      -6.938   0.203 -34.935  1.00  0.00     0.025 C 
BRANCH  24  25
HETATM   25  C   UNL     1      -7.588  -1.135 -34.585  1.00  0.00     0.040 C 
BRANCH  25  26
HETATM   26  C   UNL     1      -6.574  -2.253 -34.567  1.00  0.00    -0.058 A 
HETATM   27  C   UNL     1      -6.960  -3.566 -34.868  1.00  0.00     0.007 A 
HETATM   28  C   UNL     1      -6.028  -4.604 -34.834  1.00  0.00     0.001 A 
HETATM   29  C   UNL     1      -4.702  -4.341 -34.490  1.00  0.00     0.000 A 
HETATM   30  C   UNL     1      -4.311  -3.040 -34.179  1.00  0.00     0.001 A 
HETATM   31  C   UNL     1      -5.241  -2.000 -34.216  1.00  0.00     0.007 A 
ENDBRANCH  25  26
ENDBRANCH  24  25
ENDBRANCH  23  24
ENDBRANCH   1  23
TORSDOF 6
ENDMDL
MODEL 4
REMARK VINA RESULT:      -8.6      2.007      5.316
REMARK  6 active torsions:
REMARK  status: ('A' for Active; 'I' for Inactive)
REMARK    1  A    between atoms: C_4  and  C_5 
REMARK    2  A    between atoms: C_5  and  C_6 
REMARK    3  A    between atoms: C_6  and  C_7 
REMARK    4  A    between atoms: C_7  and  N_8 
REMARK    5  A    between atoms: C_11  and  C_13 
REMARK    6  A    between atoms: C_11  and  O_12 
ROOT
HETATM    1  N   UNL     1      -7.286   2.320 -31.211  1.00  0.00    -0.314 N 
HETATM    2  C   UNL     1      -6.868   3.660 -31.346  1.00  0.00     0.269 A 
HETATM    3  O   UNL     1      -7.604   4.637 -31.342  1.00  0.00    -0.269 OA
HETATM    4  C   UNL     1      -5.302   3.646 -31.390  1.00  0.00     0.198 A 
HETATM    5  C   UNL     1      -5.000   2.167 -31.344  1.00  0.00     0.017 A 
HETATM    6  C   UNL     1      -6.192   1.444 -31.219  1.00  0.00     0.047 A 
HETATM    7  C   UNL     1      -3.771   1.520 -31.350  1.00  0.00     0.013 A 
HETATM    8  C   UNL     1      -3.754   0.128 -31.251  1.00  0.00     0.001 A 
HETATM    9  C   UNL     1      -4.953  -0.593 -31.137  1.00  0.00     0.002 A 
HETATM   10  C   UNL     1      -6.187   0.064 -31.117  1.00  0.00     0.030 A 
ENDROOT
BRANCH   4  11
HETATM   11  C   UNL     1      -4.728   4.205 -32.666  1.00  0.00     0.018 A 
HETATM   12  C   UNL     1      -3.386   4.661 -32.941  1.00  0.00     0.002 A 
HETATM   13  C   UNL     1      -3.344   5.076 -34.275  1.00  0.00     0.043 A 
HETATM   14  C   UNL     1      -2.200   4.770 -32.185  1.00  0.00     0.014 A 
HETATM   15  C   UNL     1      -2.188   5.581 -34.883  1.00  0.00     0.030 A 
HETATM   16  N   UNL     1      -4.598   4.884 -34.800  1.00  0.00    -0.365 N 
HETATM   17  C   UNL     1      -1.032   5.675 -34.105  1.00  0.00     0.002 A 
HETATM   18  C   UNL     1      -1.035   5.278 -32.774  1.00  0.00     0.001 A 
HETATM   19  H   UNL     1      -4.858   5.091 -35.754  1.00  0.00     0.165 HD
HETATM   20  C   UNL     1      -5.432   4.369 -33.852  1.00  0.00     0.100 A 
ENDBRANCH   4  11
BRANCH   4  21
HETATM   21  O   UNL     1      -4.748   4.262 -30.226  1.00  0.00    -0.371 OA
HETATM   22  H   UNL     1      -5.482   4.377 -29.602  1.00  0.00     0.212 HD
ENDBRANCH   4  21
BRANCH   1  23
HETATM   23  C   UNL     1      -8.668   1.946 -31.005  1.00  0.00     0.133 C 
BRANCH  23  24
HETATM   24  C   UNL     1      -9.558   2.168 -32.227  1.00  0.00     0.025 C 
BRANCH  24  25
HETATM   25  C   UNL     1      -9.927   0.867 -32.938  1.00  0.00     0.040 C 
BRANCH  25  26
HETATM   26  C   UNL     1      -8.747   0.289 -33.680  1.00  0.00    -0.058 A 
HETATM   27  C   UNL     1      -8.331  -1.027 -33.437  1.00  0.00     0.007 A 
HETATM   28  C   UNL     1      -7.229  -1.557 -34.109  1.00  0.00     0.001 A 
HETATM   29  C   UNL     1      -6.526  -0.774 -35.024  1.00  0.00     0.000 A 
HETATM   30  C   UNL     1      -6.926   0.539 -35.265  1.00  0.00     0.001 A 
HETATM   31  C   UNL     1      -8.030   1.070 -34.597  1.00  0.00     0.007 A 
ENDBRANCH  25  26
ENDBRANCH  24  25
ENDBRANCH  23  24
ENDBRANCH   1  23
TORSDOF 6
ENDMDL
MODEL 5
REMARK VINA RESULT:      -8.6      2.275      6.181
REMARK  6 active torsions:
REMARK  status: ('A' for Active; 'I' for Inactive)
REMARK    1  A    between atoms: C_4  and  C_5 
REMARK    2  A    between atoms: C_5  and  C_6 
REMARK    3  A    between atoms: C_6  and  C_7 
REMARK    4  A    between atoms: C_7  and  N_8 
REMARK    5  A    between atoms: C_11  and  C_13 
REMARK    6  A    between atoms: C_11  and  O_12 
ROOT
HETATM    1  N   UNL     1      -7.042   1.170 -31.867  1.00  0.00    -0.314 N 
HETATM    2  C   UNL     1      -6.729   2.521 -31.609  1.00  0.00     0.269 A 
HETATM    3  O   UNL     1      -7.527   3.383 -31.266  1.00  0.00    -0.269 OA
HETATM    4  C   UNL     1      -5.174   2.661 -31.741  1.00  0.00     0.198 A 
HETATM    5  C   UNL     1      -4.769   1.269 -32.167  1.00  0.00     0.017 A 
HETATM    6  C   UNL     1      -5.895   0.438 -32.202  1.00  0.00     0.047 A 
HETATM    7  C   UNL     1      -3.503   0.766 -32.437  1.00  0.00     0.013 A 
HETATM    8  C   UNL     1      -3.383  -0.584 -32.769  1.00  0.00     0.001 A 
HETATM    9  C   UNL     1      -4.518  -1.410 -32.815  1.00  0.00     0.002 A 
HETATM   10  C   UNL     1      -5.788  -0.902 -32.528  1.00  0.00     0.030 A 
ENDROOT
BRANCH   4  11
HETATM   11  C   UNL     1      -4.744   3.625 -32.816  1.00  0.00     0.018 A 
HETATM   12  C   UNL     1      -3.477   4.297 -32.986  1.00  0.00     0.002 A 
HETATM   13  C   UNL     1      -3.563   5.078 -34.141  1.00  0.00     0.043 A 
HETATM   14  C   UNL     1      -2.264   4.325 -32.266  1.00  0.00     0.014 A 
HETATM   15  C   UNL     1      -2.506   5.870 -34.609  1.00  0.00     0.030 A 
HETATM   16  N   UNL     1      -4.820   4.897 -34.662  1.00  0.00    -0.365 N 
HETATM   17  C   UNL     1      -1.319   5.874 -33.873  1.00  0.00     0.002 A 
HETATM   18  C   UNL     1      -1.198   5.115 -32.716  1.00  0.00     0.001 A 
HETATM   19  H   UNL     1      -5.159   5.337 -35.506  1.00  0.00     0.165 HD
HETATM   20  C   UNL     1      -5.534   4.038 -33.880  1.00  0.00     0.100 A 
ENDBRANCH   4  11
BRANCH   4  21
HETATM   21  O   UNL     1      -4.573   2.946 -30.478  1.00  0.00    -0.371 OA
HETATM   22  H   UNL     1      -4.650   2.137 -29.948  1.00  0.00     0.212 HD
ENDBRANCH   4  21
BRANCH   1  23
HETATM   23  C   UNL     1      -8.375   0.630 -31.709  1.00  0.00     0.133 C 
BRANCH  23  24
HETATM   24  C   UNL     1      -9.040   0.230 -33.025  1.00  0.00     0.025 C 
BRANCH  24  25
HETATM   25  C   UNL     1      -9.566   1.429 -33.814  1.00  0.00     0.040 C 
BRANCH  25  26
HETATM   26  C   UNL     1     -11.056   1.334 -34.034  1.00  0.00    -0.058 A 
HETATM   27  C   UNL     1     -11.788   0.272 -33.485  1.00  0.00     0.007 A 
HETATM   28  C   UNL     1     -13.163   0.172 -33.702  1.00  0.00     0.001 A 
HETATM   29  C   UNL     1     -13.818   1.127 -34.478  1.00  0.00     0.000 A 
HETATM   30  C   UNL     1     -13.097   2.181 -35.037  1.00  0.00     0.001 A 
HETATM   31  C   UNL     1     -11.722   2.285 -34.818  1.00  0.00     0.007 A 
ENDBRANCH  25  26
ENDBRANCH  24  25
ENDBRANCH  23  24
ENDBRANCH   1  23
TORSDOF 6
ENDMDL
MODEL 6
REMARK VINA RESULT:      -8.6      1.381      2.025
REMARK  6 active torsions:
REMARK  status: ('A' for Active; 'I' for Inactive)
REMARK    1  A    between atoms: C_4  and  C_5 
REMARK    2  A    between atoms: C_5  and  C_6 
REMARK    3  A    between atoms: C_6  and  C_7 
REMARK    4  A    between atoms: C_7  and  N_8 
REMARK    5  A    between atoms: C_11  and  C_13 
REMARK    6  A    between atoms: C_11  and  O_12 
ROOT
HETATM    1  N   UNL     1      -4.687   0.791 -31.523  1.00  0.00    -0.314 N 
HETATM    2  C   UNL     1      -6.039   0.469 -31.286  1.00  0.00     0.269 A 
HETATM    3  O   UNL     1      -6.447  -0.588 -30.823  1.00  0.00    -0.269 OA
HETATM    4  C   UNL     1      -6.878   1.747 -31.626  1.00  0.00     0.198 A 
HETATM    5  C   UNL     1      -5.814   2.696 -32.126  1.00  0.00     0.017 A 
HETATM    6  C   UNL     1      -4.556   2.094 -32.023  1.00  0.00     0.047 A 
HETATM    7  C   UNL     1      -5.944   4.004 -32.575  1.00  0.00     0.013 A 
HETATM    8  C   UNL     1      -4.790   4.696 -32.944  1.00  0.00     0.001 A 
HETATM    9  C   UNL     1      -3.530   4.083 -32.850  1.00  0.00     0.002 A 
HETATM   10  C   UNL     1      -3.404   2.771 -32.383  1.00  0.00     0.030 A 
ENDROOT
BRANCH   4  11
HETATM   11  C   UNL     1      -7.879   1.537 -32.732  1.00  0.00     0.018 A 
HETATM   12  C   UNL     1      -9.216   2.065 -32.867  1.00  0.00     0.002 A 
HETATM   13  C   UNL     1      -9.739   1.593 -34.073  1.00  0.00     0.043 A 
HETATM   14  C   UNL     1     -10.040   2.894 -32.076  1.00  0.00     0.014 A 
HETATM   15  C   UNL     1     -11.026   1.911 -34.525  1.00  0.00     0.030 A 
HETATM   16  N   UNL     1      -8.773   0.813 -34.658  1.00  0.00    -0.365 N 
HETATM   17  C   UNL     1     -11.815   2.735 -33.719  1.00  0.00     0.002 A 
HETATM   18  C   UNL     1     -11.332   3.219 -32.509  1.00  0.00     0.001 A 
HETATM   19  H   UNL     1      -8.874   0.346 -35.548  1.00  0.00     0.165 HD
HETATM   20  C   UNL     1      -7.662   0.768 -33.868  1.00  0.00     0.100 A 
ENDBRANCH   4  11
BRANCH   4  21
HETATM   21  O   UNL     1      -7.470   2.303 -30.451  1.00  0.00    -0.371 OA
HETATM   22  H   UNL     1      -8.429   2.295 -30.598  1.00  0.00     0.212 HD
ENDBRANCH   4  21
BRANCH   1  23
HETATM   23  C   UNL     1      -3.597  -0.103 -31.194  1.00  0.00     0.133 C 
BRANCH  23  24
HETATM   24  C   UNL     1      -3.623  -1.420 -31.969  1.00  0.00     0.025 C 
BRANCH  24  25
HETATM   25  C   UNL     1      -4.004  -1.237 -33.439  1.00  0.00     0.040 C 
BRANCH  25  26
HETATM   26  C   UNL     1      -4.758  -2.433 -33.966  1.00  0.00    -0.058 A 
HETATM   27  C   UNL     1      -6.082  -2.299 -34.405  1.00  0.00     0.007 A 
HETATM   28  C   UNL     1      -6.787  -3.406 -34.877  1.00  0.00     0.001 A 
HETATM   29  C   UNL     1      -6.180  -4.661 -34.905  1.00  0.00     0.000 A 
HETATM   30  C   UNL     1      -4.867  -4.806 -34.461  1.00  0.00     0.001 A 
HETATM   31  C   UNL     1      -4.158  -3.699 -33.992  1.00  0.00     0.007 A 
ENDBRANCH  25  26
ENDBRANCH  24  25
ENDBRANCH  23  24
ENDBRANCH   1  23
TORSDOF 6
ENDMDL
MODEL 7
REMARK VINA RESULT:      -8.6      2.428      6.406
REMARK  6 active torsions:
REMARK  status: ('A' for Active; 'I' for Inactive)
REMARK    1  A    between atoms: C_4  and  C_5 
REMARK    2  A    between atoms: C_5  and  C_6 
REMARK    3  A    between atoms: C_6  and  C_7 
REMARK    4  A    between atoms: C_7  and  N_8 
REMARK    5  A    between atoms: C_11  and  C_13 
REMARK    6  A    between atoms: C_11  and  O_12 
ROOT
HETATM    1  N   UNL     1      -8.633   0.432 -32.604  1.00  0.00    -0.314 N 
HETATM    2  C   UNL     1      -8.341   1.216 -31.468  1.00  0.00     0.269 A 
HETATM    3  O   UNL     1      -9.141   1.920 -30.867  1.00  0.00    -0.269 OA
HETATM    4  C   UNL     1      -6.852   0.922 -31.083  1.00  0.00     0.198 A 
HETATM    5  C   UNL     1      -6.422  -0.018 -32.185  1.00  0.00     0.017 A 
HETATM    6  C   UNL     1      -7.505  -0.285 -33.029  1.00  0.00     0.047 A 
HETATM    7  C   UNL     1      -5.193  -0.633 -32.386  1.00  0.00     0.013 A 
HETATM    8  C   UNL     1      -5.058  -1.507 -33.465  1.00  0.00     0.001 A 
HETATM    9  C   UNL     1      -6.145  -1.762 -34.316  1.00  0.00     0.002 A 
HETATM   10  C   UNL     1      -7.384  -1.151 -34.101  1.00  0.00     0.030 A 
ENDROOT
BRANCH   4  11
HETATM   11  C   UNL     1      -5.964   2.139 -31.129  1.00  0.00     0.018 A 
HETATM   12  C   UNL     1      -5.701   3.036 -32.229  1.00  0.00     0.002 A 
HETATM   13  C   UNL     1      -4.820   4.020 -31.773  1.00  0.00     0.043 A 
HETATM   14  C   UNL     1      -6.119   3.106 -33.575  1.00  0.00     0.014 A 
HETATM   15  C   UNL     1      -4.349   5.060 -32.584  1.00  0.00     0.030 A 
HETATM   16  N   UNL     1      -4.553   3.747 -30.454  1.00  0.00    -0.365 N 
HETATM   17  C   UNL     1      -4.783   5.100 -33.911  1.00  0.00     0.002 A 
HETATM   18  C   UNL     1      -5.655   4.136 -34.403  1.00  0.00     0.001 A 
HETATM   19  H   UNL     1      -3.949   4.301 -29.865  1.00  0.00     0.165 HD
HETATM   20  C   UNL     1      -5.225   2.627 -30.060  1.00  0.00     0.100 A 
ENDBRANCH   4  11
BRANCH   4  21
HETATM   21  O   UNL     1      -6.768   0.232 -29.835  1.00  0.00    -0.371 OA
HETATM   22  H   UNL     1      -6.196  -0.537 -29.985  1.00  0.00     0.212 HD
ENDBRANCH   4  21
BRANCH   1  23
HETATM   23  C   UNL     1      -9.960   0.338 -33.173  1.00  0.00     0.133 C 
BRANCH  23  24
HETATM   24  C   UNL     1     -10.210   1.314 -34.322  1.00  0.00     0.025 C 
BRANCH  24  25
HETATM   25  C   UNL     1     -11.061   2.514 -33.907  1.00  0.00     0.040 C 
BRANCH  25  26
HETATM   26  C   UNL     1     -12.509   2.128 -33.727  1.00  0.00    -0.058 A 
HETATM   27  C   UNL     1     -13.285   2.733 -32.729  1.00  0.00     0.007 A 
HETATM   28  C   UNL     1     -14.618   2.365 -32.548  1.00  0.00     0.001 A 
HETATM   29  C   UNL     1     -15.187   1.382 -33.357  1.00  0.00     0.000 A 
HETATM   30  C   UNL     1     -14.420   0.767 -34.346  1.00  0.00     0.001 A 
HETATM   31  C   UNL     1     -13.087   1.136 -34.530  1.00  0.00     0.007 A 
ENDBRANCH  25  26
ENDBRANCH  24  25
ENDBRANCH  23  24
ENDBRANCH   1  23
TORSDOF 6
ENDMDL
MODEL 8
REMARK VINA RESULT:      -8.2      2.370      3.418
REMARK  6 active torsions:
REMARK  status: ('A' for Active; 'I' for Inactive)
REMARK    1  A    between atoms: C_4  and  C_5 
REMARK    2  A    between atoms: C_5  and  C_6 
REMARK    3  A    between atoms: C_6  and  C_7 
REMARK    4  A    between atoms: C_7  and  N_8 
REMARK    5  A    between atoms: C_11  and  C_13 
REMARK    6  A    between atoms: C_11  and  O_12 
ROOT
HETATM    1  N   UNL     1      -6.946   1.063 -31.896  1.00  0.00    -0.314 N 
HETATM    2  C   UNL     1      -8.336   0.835 -31.967  1.00  0.00     0.269 A 
HETATM    3  O   UNL     1      -8.872  -0.256 -32.102  1.00  0.00    -0.269 OA
HETATM    4  C   UNL     1      -9.036   2.217 -31.733  1.00  0.00     0.198 A 
HETATM    5  C   UNL     1      -7.855   3.152 -31.622  1.00  0.00     0.017 A 
HETATM    6  C   UNL     1      -6.664   2.422 -31.702  1.00  0.00     0.047 A 
HETATM    7  C   UNL     1      -7.837   4.524 -31.405  1.00  0.00     0.013 A 
HETATM    8  C   UNL     1      -6.600   5.161 -31.292  1.00  0.00     0.001 A 
HETATM    9  C   UNL     1      -5.408   4.425 -31.385  1.00  0.00     0.002 A 
HETATM   10  C   UNL     1      -5.432   3.042 -31.590  1.00  0.00     0.030 A 
ENDROOT
BRANCH   4  11
HETATM   11  C   UNL     1      -9.885   2.668 -32.893  1.00  0.00     0.018 A 
HETATM   12  C   UNL     1     -11.107   3.438 -32.886  1.00  0.00     0.002 A 
HETATM   13  C   UNL     1     -11.508   3.610 -34.213  1.00  0.00     0.043 A 
HETATM   14  C   UNL     1     -11.919   4.001 -31.879  1.00  0.00     0.014 A 
HETATM   15  C   UNL     1     -12.662   4.315 -34.578  1.00  0.00     0.030 A 
HETATM   16  N   UNL     1     -10.579   2.981 -35.004  1.00  0.00    -0.365 N 
HETATM   17  C   UNL     1     -13.443   4.860 -33.557  1.00  0.00     0.002 A 
HETATM   18  C   UNL     1     -13.080   4.705 -32.224  1.00  0.00     0.001 A 
HETATM   19  H   UNL     1     -10.611   2.950 -36.013  1.00  0.00     0.165 HD
HETATM   20  C   UNL     1      -9.610   2.412 -34.230  1.00  0.00     0.100 A 
ENDBRANCH   4  11
BRANCH   4  21
HETATM   21  O   UNL     1      -9.749   2.232 -30.496  1.00  0.00    -0.371 OA
HETATM   22  H   UNL     1      -9.592   1.369 -30.079  1.00  0.00     0.212 HD
ENDBRANCH   4  21
BRANCH   1  23
HETATM   23  C   UNL     1      -5.973  -0.007 -31.934  1.00  0.00     0.133 C 
BRANCH  23  24
HETATM   24  C   UNL     1      -5.238  -0.128 -33.268  1.00  0.00     0.025 C 
BRANCH  24  25
HETATM   25  C   UNL     1      -6.074  -0.816 -34.347  1.00  0.00     0.040 C 
BRANCH  25  26
HETATM   26  C   UNL     1      -5.748  -2.286 -34.444  1.00  0.00    -0.058 A 
HETATM   27  C   UNL     1      -6.726  -3.204 -34.849  1.00  0.00     0.007 A 
HETATM   28  C   UNL     1      -6.432  -4.567 -34.922  1.00  0.00     0.001 A 
HETATM   29  C   UNL     1      -5.160  -5.026 -34.581  1.00  0.00     0.000 A 
HETATM   30  C   UNL     1      -4.184  -4.121 -34.167  1.00  0.00     0.001 A 
HETATM   31  C   UNL     1      -4.475  -2.758 -34.097  1.00  0.00     0.007 A 
ENDBRANCH  25  26
ENDBRANCH  24  25
ENDBRANCH  23  24
ENDBRANCH   1  23
TORSDOF 6
ENDMDL
MODEL 9
REMARK VINA RESULT:      -8.2      4.013      6.746
REMARK  6 active torsions:
REMARK  status: ('A' for Active; 'I' for Inactive)
REMARK    1  A    between atoms: C_4  and  C_5 
REMARK    2  A    between atoms: C_5  and  C_6 
REMARK    3  A    between atoms: C_6  and  C_7 
REMARK    4  A    between atoms: C_7  and  N_8 
REMARK    5  A    between atoms: C_11  and  C_13 
REMARK    6  A    between atoms: C_11  and  O_12 
ROOT
HETATM    1  N   UNL     1     -10.011   2.148 -33.755  1.00  0.00    -0.314 N 
HETATM    2  C   UNL     1     -10.268   3.369 -34.412  1.00  0.00     0.269 A 
HETATM    3  O   UNL     1      -9.457   4.270 -34.581  1.00  0.00    -0.269 OA
HETATM    4  C   UNL     1     -11.733   3.292 -34.961  1.00  0.00     0.198 A 
HETATM    5  C   UNL     1     -12.192   1.950 -34.440  1.00  0.00     0.017 A 
HETATM    6  C   UNL     1     -11.142   1.319 -33.765  1.00  0.00     0.047 A 
HETATM    7  C   UNL     1     -13.416   1.315 -34.606  1.00  0.00     0.013 A 
HETATM    8  C   UNL     1     -13.581   0.041 -34.061  1.00  0.00     0.001 A 
HETATM    9  C   UNL     1     -12.527  -0.582 -33.374  1.00  0.00     0.002 A 
HETATM   10  C   UNL     1     -11.293   0.056 -33.222  1.00  0.00     0.030 A 
ENDROOT
BRANCH   4  11
HETATM   11  C   UNL     1     -12.645   4.352 -34.399  1.00  0.00     0.018 A 
HETATM   12  C   UNL     1     -13.073   4.560 -33.036  1.00  0.00     0.002 A 
HETATM   13  C   UNL     1     -13.906   5.681 -33.020  1.00  0.00     0.043 A 
HETATM   14  C   UNL     1     -12.840   3.901 -31.811  1.00  0.00     0.014 A 
HETATM   15  C   UNL     1     -14.505   6.173 -31.852  1.00  0.00     0.030 A 
HETATM   16  N   UNL     1     -13.989   6.146 -34.309  1.00  0.00    -0.365 N 
HETATM   17  C   UNL     1     -14.252   5.497 -30.657  1.00  0.00     0.002 A 
HETATM   18  C   UNL     1     -13.433   4.374 -30.634  1.00  0.00     0.001 A 
HETATM   19  H   UNL     1     -14.522   6.955 -34.594  1.00  0.00     0.165 HD
HETATM   20  C   UNL     1     -13.246   5.360 -35.140  1.00  0.00     0.100 A 
ENDBRANCH   4  11
BRANCH   4  21
HETATM   21  O   UNL     1     -11.748   3.258 -36.388  1.00  0.00    -0.371 OA
HETATM   22  H   UNL     1     -10.842   3.454 -36.677  1.00  0.00     0.212 HD
ENDBRANCH   4  21
BRANCH   1  23
HETATM   23  C   UNL     1      -8.709   1.798 -33.231  1.00  0.00     0.133 C 
BRANCH  23  24
HETATM   24  C   UNL     1      -7.696   1.400 -34.304  1.00  0.00     0.025 C 
BRANCH  24  25
HETATM   25  C   UNL     1      -7.899  -0.027 -34.813  1.00  0.00     0.040 C 
BRANCH  25  26
HETATM   26  C   UNL     1      -6.697  -0.892 -34.521  1.00  0.00    -0.058 A 
HETATM   27  C   UNL     1      -6.699  -2.250 -34.868  1.00  0.00     0.007 A 
HETATM   28  C   UNL     1      -5.596  -3.056 -34.583  1.00  0.00     0.001 A 
HETATM   29  C   UNL     1      -4.484  -2.515 -33.940  1.00  0.00     0.000 A 
HETATM   30  C   UNL     1      -4.476  -1.168 -33.582  1.00  0.00     0.001 A 
HETATM   31  C   UNL     1      -5.577  -0.359 -33.869  1.00  0.00     0.007 A 
ENDBRANCH  25  26
ENDBRANCH  24  25
ENDBRANCH  23  24
ENDBRANCH   1  23
TORSDOF 6
ENDMDL
MODEL 10
REMARK VINA RESULT:      -8.1      2.078      4.979
REMARK  6 active torsions:
REMARK  status: ('A' for Active; 'I' for Inactive)
REMARK    1  A    between atoms: C_4  and  C_5 
REMARK    2  A    between atoms: C_5  and  C_6 
REMARK    3  A    between atoms: C_6  and  C_7 
REMARK    4  A    between atoms: C_7  and  N_8 
REMARK    5  A    between atoms: C_11  and  C_13 
REMARK    6  A    between atoms: C_11  and  O_12 
ROOT
HETATM    1  N   UNL     1      -6.858   1.863 -33.396  1.00  0.00    -0.314 N 
HETATM    2  C   UNL     1      -6.373   3.185 -33.461  1.00  0.00     0.269 A 
HETATM    3  O   UNL     1      -6.464   3.929 -34.428  1.00  0.00    -0.269 OA
HETATM    4  C   UNL     1      -5.805   3.532 -32.043  1.00  0.00     0.198 A 
HETATM    5  C   UNL     1      -5.987   2.227 -31.304  1.00  0.00     0.017 A 
HETATM    6  C   UNL     1      -6.624   1.298 -32.134  1.00  0.00     0.047 A 
HETATM    7  C   UNL     1      -5.672   1.910 -29.989  1.00  0.00     0.013 A 
HETATM    8  C   UNL     1      -5.986   0.633 -29.522  1.00  0.00     0.001 A 
HETATM    9  C   UNL     1      -6.615  -0.299 -30.363  1.00  0.00     0.002 A 
HETATM   10  C   UNL     1      -6.942   0.030 -31.682  1.00  0.00     0.030 A 
ENDROOT
BRANCH   4  11
HETATM   11  C   UNL     1      -4.336   3.870 -32.046  1.00  0.00     0.018 A 
HETATM   12  C   UNL     1      -3.555   4.540 -33.059  1.00  0.00     0.002 A 
HETATM   13  C   UNL     1      -2.242   4.630 -32.591  1.00  0.00     0.043 A 
HETATM   14  C   UNL     1      -3.833   5.073 -34.335  1.00  0.00     0.014 A 
HETATM   15  C   UNL     1      -1.208   5.226 -33.325  1.00  0.00     0.030 A 
HETATM   16  N   UNL     1      -2.211   4.048 -31.349  1.00  0.00    -0.365 N 
HETATM   17  C   UNL     1      -1.518   5.745 -34.584  1.00  0.00     0.002 A 
HETATM   18  C   UNL     1      -2.811   5.669 -35.086  1.00  0.00     0.001 A 
HETATM   19  H   UNL     1      -1.387   3.977 -30.769  1.00  0.00     0.165 HD
HETATM   20  C   UNL     1      -3.451   3.588 -31.014  1.00  0.00     0.100 A 
ENDBRANCH   4  11
BRANCH   4  21
HETATM   21  O   UNL     1      -6.595   4.534 -31.402  1.00  0.00    -0.371 OA
HETATM   22  H   UNL     1      -6.053   4.890 -30.680  1.00  0.00     0.212 HD
ENDBRANCH   4  21
BRANCH   1  23
HETATM   23  C   UNL     1      -7.577   1.237 -34.484  1.00  0.00     0.133 C 
BRANCH  23  24
HETATM   24  C   UNL     1      -6.791   0.134 -35.191  1.00  0.00     0.025 C 
BRANCH  24  25
HETATM   25  C   UNL     1      -7.413  -1.251 -35.009  1.00  0.00     0.040 C 
BRANCH  25  26
HETATM   26  C   UNL     1      -6.362  -2.293 -34.715  1.00  0.00    -0.058 A 
HETATM   27  C   UNL     1      -6.616  -3.647 -34.972  1.00  0.00     0.007 A 
HETATM   28  C   UNL     1      -5.653  -4.615 -34.686  1.00  0.00     0.001 A 
HETATM   29  C   UNL     1      -4.430  -4.240 -34.131  1.00  0.00     0.000 A 
HETATM   30  C   UNL     1      -4.172  -2.897 -33.862  1.00  0.00     0.001 A 
HETATM   31  C   UNL     1      -5.133  -1.927 -34.151  1.00  0.00     0.007 A 
ENDBRANCH  25  26
ENDBRANCH  24  25
ENDBRANCH  23  24
ENDBRANCH   1  23
TORSDOF 6
ENDMDL
