MODEL 1
REMARK VINA RESULT:      -8.6      0.000      0.000
REMARK  9 active torsions:
REMARK  status: ('A' for Active; 'I' for Inactive)
REMARK    1  A    between atoms: C_7  and  C_8 
REMARK    2  A    between atoms: C_9  and  O_10 
REMARK    3  A    between atoms: C_13  and  N_14 
REMARK    4  A    between atoms: N_14  and  C_15 
REMARK    5  A    between atoms: C_15  and  N_16 
REMARK       I    between atoms: N_16  and  C_17 
REMARK    6  A    between atoms: C_17  and  C_18 
REMARK    7  A    between atoms: C_21  and  O_22 
REMARK    8  A    between atoms: O_22  and  C_23 
REMARK    9  A    between atoms: C_23  and  C_24 
ROOT
HETATM    1  N   UNL     1      -2.320   3.892 -31.215  1.00  0.00    -0.337 N 
HETATM    2  H   UNL     1      -1.690   3.725 -30.439  1.00  0.00     0.168 HD
ENDROOT
BRANCH   1   3
HETATM    3  C   UNL     1      -3.491   3.100 -31.245  1.00  0.00     0.035 A 
HETATM    4  C   UNL     1      -4.606   3.545 -30.532  1.00  0.00     0.032 A 
HETATM    5  C   UNL     1      -5.764   2.768 -30.480  1.00  0.00     0.040 A 
HETATM    6  C   UNL     1      -5.800   1.526 -31.113  1.00  0.00     0.080 A 
HETATM    7  C   UNL     1      -4.687   1.039 -31.812  1.00  0.00     0.052 A 
HETATM    8  C   UNL     1      -3.536   1.847 -31.869  1.00  0.00     0.048 A 
BRANCH   6   9
HETATM    9  O   UNL     1      -6.971   0.821 -30.989  1.00  0.00    -0.360 OA
HETATM   10  H   UNL     1      -7.718   1.419 -31.210  1.00  0.00     0.217 HD
ENDBRANCH   6   9
BRANCH   7  11
HETATM   11  C   UNL     1      -4.710  -0.286 -32.425  1.00  0.00     0.183 A 
HETATM   12  N   UNL     1      -3.804  -1.248 -32.322  1.00  0.00    -0.221 NA
HETATM   13  C   UNL     1      -4.302  -2.245 -33.127  1.00  0.00     0.093 A 
HETATM   14  C   UNL     1      -5.509  -1.847 -33.677  1.00  0.00     0.107 A 
HETATM   15  C   UNL     1      -3.795  -3.507 -33.454  1.00  0.00     0.035 A 
HETATM   16  C   UNL     1      -6.282  -2.617 -34.539  1.00  0.00     0.046 A 
HETATM   17  O   UNL     1      -5.779  -0.589 -33.230  1.00  0.00    -0.289 OA
HETATM   18  C   UNL     1      -5.776  -3.890 -34.853  1.00  0.00    -0.059 A 
HETATM   19  C   UNL     1      -6.527  -4.777 -35.806  1.00  0.00     0.048 C 
HETATM   20  C   UNL     1      -4.542  -4.317 -34.326  1.00  0.00     0.009 A 
ENDBRANCH   7  11
ENDBRANCH   1   3
BRANCH   1  21
HETATM   21  C   UNL     1      -2.005   4.957 -32.023  1.00  0.00     0.157 C 
HETATM   22  S   UNL     1      -1.214   6.358 -31.553  1.00  0.00    -0.047 SA
BRANCH  21  23
HETATM   23  N   UNL     1      -2.352   4.845 -33.353  1.00  0.00    -0.201 NA
HETATM   24  C   UNL     1      -3.309   5.658 -33.920  1.00  0.00     0.237 C 
HETATM   25  O   UNL     1      -3.016   6.657 -34.567  1.00  0.00    -0.274 OA
HETATM   26  H   UNL     1      -1.485   4.916 -33.876  1.00  0.00     0.139 HD
BRANCH  24  27
HETATM   27  C   UNL     1      -4.721   5.228 -33.801  1.00  0.00     0.026 A 
HETATM   28  C   UNL     1      -5.107   4.009 -34.366  1.00  0.00     0.019 A 
HETATM   29  C   UNL     1      -6.408   3.530 -34.175  1.00  0.00     0.038 A 
HETATM   30  C   UNL     1      -7.311   4.252 -33.392  1.00  0.00     0.068 A 
HETATM   31  C   UNL     1      -6.928   5.486 -32.856  1.00  0.00     0.038 A 
HETATM   32  C   UNL     1      -5.636   5.980 -33.058  1.00  0.00     0.019 A 
BRANCH  30  33
HETATM   33  O   UNL     1      -8.584   3.859 -33.077  1.00  0.00    -0.351 OA
BRANCH  33  34
HETATM   34  C   UNL     1      -9.307   3.162 -34.096  1.00  0.00     0.179 C 
BRANCH  34  35
HETATM   35  C   UNL     1      -9.602   1.733 -33.617  1.00  0.00     0.002 C 
HETATM   36  C   UNL     1     -11.086   1.412 -33.785  1.00  0.00     0.011 C 
HETATM   37  C   UNL     1      -8.752   0.708 -34.371  1.00  0.00     0.011 C 
ENDBRANCH  34  35
ENDBRANCH  33  34
ENDBRANCH  30  33
ENDBRANCH  24  27
ENDBRANCH  21  23
ENDBRANCH   1  21
TORSDOF 9
ENDMDL
MODEL 2
REMARK VINA RESULT:      -8.6      3.154      5.049
REMARK  9 active torsions:
REMARK  status: ('A' for Active; 'I' for Inactive)
REMARK    1  A    between atoms: C_7  and  C_8 
REMARK    2  A    between atoms: C_9  and  O_10 
REMARK    3  A    between atoms: C_13  and  N_14 
REMARK    4  A    between atoms: N_14  and  C_15 
REMARK    5  A    between atoms: C_15  and  N_16 
REMARK       I    between atoms: N_16  and  C_17 
REMARK    6  A    between atoms: C_17  and  C_18 
REMARK    7  A    between atoms: C_21  and  O_22 
REMARK    8  A    between atoms: O_22  and  C_23 
REMARK    9  A    between atoms: C_23  and  C_24 
ROOT
HETATM    1  N   UNL     1     -10.282   3.545 -31.569  1.00  0.00    -0.337 N 
HETATM    2  H   UNL     1     -11.047   3.464 -30.910  1.00  0.00     0.168 HD
ENDROOT
BRANCH   1   3
HETATM    3  C   UNL     1      -9.059   2.956 -31.175  1.00  0.00     0.035 A 
HETATM    4  C   UNL     1      -8.338   3.561 -30.144  1.00  0.00     0.032 A 
HETATM    5  C   UNL     1      -7.095   3.053 -29.761  1.00  0.00     0.040 A 
HETATM    6  C   UNL     1      -6.554   1.958 -30.432  1.00  0.00     0.080 A 
HETATM    7  C   UNL     1      -7.240   1.347 -31.491  1.00  0.00     0.052 A 
HETATM    8  C   UNL     1      -8.500   1.862 -31.848  1.00  0.00     0.048 A 
BRANCH   6   9
HETATM    9  O   UNL     1      -5.318   1.541 -30.004  1.00  0.00    -0.360 OA
HETATM   10  H   UNL     1      -5.047   2.101 -29.245  1.00  0.00     0.217 HD
ENDBRANCH   6   9
BRANCH   7  11
HETATM   11  C   UNL     1      -6.643   0.236 -32.227  1.00  0.00     0.183 A 
HETATM   12  N   UNL     1      -5.357  -0.048 -32.372  1.00  0.00    -0.221 NA
HETATM   13  C   UNL     1      -5.363  -1.156 -33.186  1.00  0.00     0.093 A 
HETATM   14  C   UNL     1      -6.668  -1.510 -33.490  1.00  0.00     0.107 A 
HETATM   15  C   UNL     1      -4.317  -1.916 -33.721  1.00  0.00     0.035 A 
HETATM   16  C   UNL     1      -7.034  -2.585 -34.292  1.00  0.00     0.046 A 
HETATM   17  O   UNL     1      -7.497  -0.620 -32.877  1.00  0.00    -0.289 OA
HETATM   18  C   UNL     1      -5.979  -3.354 -34.815  1.00  0.00    -0.059 A 
HETATM   19  C   UNL     1      -6.280  -4.513 -35.722  1.00  0.00     0.048 C 
HETATM   20  C   UNL     1      -4.641  -3.009 -34.541  1.00  0.00     0.009 A 
ENDBRANCH   7  11
ENDBRANCH   1   3
BRANCH   1  21
HETATM   21  C   UNL     1     -10.601   4.082 -32.793  1.00  0.00     0.157 C 
HETATM   22  S   UNL     1     -11.645   3.421 -33.924  1.00  0.00    -0.047 SA
BRANCH  21  23
HETATM   23  N   UNL     1     -10.022   5.295 -33.102  1.00  0.00    -0.201 NA
HETATM   24  C   UNL     1      -9.015   5.397 -34.036  1.00  0.00     0.237 C 
HETATM   25  O   UNL     1      -9.233   5.739 -35.194  1.00  0.00    -0.274 OA
HETATM   26  H   UNL     1     -10.787   5.916 -33.349  1.00  0.00     0.139 HD
BRANCH  24  27
HETATM   27  C   UNL     1      -7.629   5.170 -33.569  1.00  0.00     0.026 A 
HETATM   28  C   UNL     1      -7.105   6.003 -32.577  1.00  0.00     0.019 A 
HETATM   29  C   UNL     1      -5.838   5.742 -32.042  1.00  0.00     0.038 A 
HETATM   30  C   UNL     1      -5.112   4.630 -32.473  1.00  0.00     0.068 A 
HETATM   31  C   UNL     1      -5.630   3.819 -33.488  1.00  0.00     0.038 A 
HETATM   32  C   UNL     1      -6.887   4.084 -34.041  1.00  0.00     0.019 A 
BRANCH  30  33
HETATM   33  O   UNL     1      -3.898   4.232 -31.982  1.00  0.00    -0.351 OA
BRANCH  33  34
HETATM   34  C   UNL     1      -2.902   3.885 -32.947  1.00  0.00     0.179 C 
BRANCH  34  35
HETATM   35  C   UNL     1      -2.166   5.157 -33.393  1.00  0.00     0.002 C 
HETATM   36  C   UNL     1      -0.941   5.397 -32.513  1.00  0.00     0.011 C 
HETATM   37  C   UNL     1      -1.751   5.073 -34.863  1.00  0.00     0.011 C 
ENDBRANCH  34  35
ENDBRANCH  33  34
ENDBRANCH  30  33
ENDBRANCH  24  27
ENDBRANCH  21  23
ENDBRANCH   1  21
TORSDOF 9
ENDMDL
MODEL 3
REMARK VINA RESULT:      -8.5      2.396      5.199
REMARK  9 active torsions:
REMARK  status: ('A' for Active; 'I' for Inactive)
REMARK    1  A    between atoms: C_7  and  C_8 
REMARK    2  A    between atoms: C_9  and  O_10 
REMARK    3  A    between atoms: C_13  and  N_14 
REMARK    4  A    between atoms: N_14  and  C_15 
REMARK    5  A    between atoms: C_15  and  N_16 
REMARK       I    between atoms: N_16  and  C_17 
REMARK    6  A    between atoms: C_17  and  C_18 
REMARK    7  A    between atoms: C_21  and  O_22 
REMARK    8  A    between atoms: O_22  and  C_23 
REMARK    9  A    between atoms: C_23  and  C_24 
ROOT
HETATM    1  N   UNL     1      -7.352   5.086 -32.432  1.00  0.00    -0.337 N 
HETATM    2  H   UNL     1      -8.150   5.071 -33.056  1.00  0.00     0.168 HD
ENDROOT
BRANCH   1   3
HETATM    3  C   UNL     1      -7.110   3.898 -31.706  1.00  0.00     0.035 A 
HETATM    4  C   UNL     1      -7.094   3.970 -30.311  1.00  0.00     0.032 A 
HETATM    5  C   UNL     1      -6.797   2.837 -29.552  1.00  0.00     0.040 A 
HETATM    6  C   UNL     1      -6.482   1.636 -30.185  1.00  0.00     0.080 A 
HETATM    7  C   UNL     1      -6.462   1.540 -31.583  1.00  0.00     0.052 A 
HETATM    8  C   UNL     1      -6.783   2.688 -32.331  1.00  0.00     0.048 A 
BRANCH   6   9
HETATM    9  O   UNL     1      -6.181   0.582 -29.360  1.00  0.00    -0.360 OA
HETATM   10  H   UNL     1      -7.012   0.099 -29.157  1.00  0.00     0.217 HD
ENDBRANCH   6   9
BRANCH   7  11
HETATM   11  C   UNL     1      -6.076   0.295 -32.242  1.00  0.00     0.183 A 
HETATM   12  N   UNL     1      -4.888  -0.293 -32.243  1.00  0.00    -0.221 NA
HETATM   13  C   UNL     1      -5.076  -1.394 -33.045  1.00  0.00     0.093 A 
HETATM   14  C   UNL     1      -6.388  -1.436 -33.488  1.00  0.00     0.107 A 
HETATM   15  C   UNL     1      -4.193  -2.398 -33.456  1.00  0.00     0.035 A 
HETATM   16  C   UNL     1      -6.916  -2.419 -34.316  1.00  0.00     0.046 A 
HETATM   17  O   UNL     1      -7.037  -0.354 -32.975  1.00  0.00    -0.289 OA
HETATM   18  C   UNL     1      -6.028  -3.434 -34.715  1.00  0.00    -0.059 A 
HETATM   19  C   UNL     1      -6.503  -4.518 -35.642  1.00  0.00     0.048 C 
HETATM   20  C   UNL     1      -4.683  -3.409 -34.298  1.00  0.00     0.009 A 
ENDBRANCH   7  11
ENDBRANCH   1   3
BRANCH   1  21
HETATM   21  C   UNL     1      -6.556   6.204 -32.507  1.00  0.00     0.157 C 
HETATM   22  S   UNL     1      -6.462   7.433 -31.373  1.00  0.00    -0.047 SA
BRANCH  21  23
HETATM   23  N   UNL     1      -5.737   6.302 -33.613  1.00  0.00    -0.201 NA
HETATM   24  C   UNL     1      -4.971   5.239 -34.040  1.00  0.00     0.237 C 
HETATM   25  O   UNL     1      -5.329   4.505 -34.955  1.00  0.00    -0.274 OA
HETATM   26  H   UNL     1      -6.328   6.629 -34.371  1.00  0.00     0.139 HD
BRANCH  24  27
HETATM   27  C   UNL     1      -3.641   5.066 -33.415  1.00  0.00     0.026 A 
HETATM   28  C   UNL     1      -2.589   5.889 -33.825  1.00  0.00     0.019 A 
HETATM   29  C   UNL     1      -1.351   5.819 -33.175  1.00  0.00     0.038 A 
HETATM   30  C   UNL     1      -1.176   4.953 -32.094  1.00  0.00     0.068 A 
HETATM   31  C   UNL     1      -2.225   4.110 -31.709  1.00  0.00     0.038 A 
HETATM   32  C   UNL     1      -3.458   4.160 -32.366  1.00  0.00     0.019 A 
BRANCH  30  33
HETATM   33  O   UNL     1      -0.042   4.841 -31.337  1.00  0.00    -0.351 OA
BRANCH  33  34
HETATM   34  C   UNL     1       0.462   6.050 -30.761  1.00  0.00     0.179 C 
BRANCH  34  35
HETATM   35  C   UNL     1      -0.321   6.359 -29.476  1.00  0.00     0.002 C 
HETATM   36  C   UNL     1       0.496   5.959 -28.248  1.00  0.00     0.011 C 
HETATM   37  C   UNL     1      -0.698   7.840 -29.399  1.00  0.00     0.011 C 
ENDBRANCH  34  35
ENDBRANCH  33  34
ENDBRANCH  30  33
ENDBRANCH  24  27
ENDBRANCH  21  23
ENDBRANCH   1  21
TORSDOF 9
ENDMDL
MODEL 4
REMARK VINA RESULT:      -8.1      2.948      8.167
REMARK  9 active torsions:
REMARK  status: ('A' for Active; 'I' for Inactive)
REMARK    1  A    between atoms: C_7  and  C_8 
REMARK    2  A    between atoms: C_9  and  O_10 
REMARK    3  A    between atoms: C_13  and  N_14 
REMARK    4  A    between atoms: N_14  and  C_15 
REMARK    5  A    between atoms: C_15  and  N_16 
REMARK       I    between atoms: N_16  and  C_17 
REMARK    6  A    between atoms: C_17  and  C_18 
REMARK    7  A    between atoms: C_21  and  O_22 
REMARK    8  A    between atoms: O_22  and  C_23 
REMARK    9  A    between atoms: C_23  and  C_24 
ROOT
HETATM    1  N   UNL     1      -5.855   3.571 -33.460  1.00  0.00    -0.337 N 
HETATM    2  H   UNL     1      -5.803   2.638 -33.853  1.00  0.00     0.168 HD
ENDROOT
BRANCH   1   3
HETATM    3  C   UNL     1      -4.708   4.380 -33.629  1.00  0.00     0.035 A 
HETATM    4  C   UNL     1      -4.396   4.820 -34.916  1.00  0.00     0.032 A 
HETATM    5  C   UNL     1      -3.240   5.568 -35.143  1.00  0.00     0.040 A 
HETATM    6  C   UNL     1      -2.374   5.851 -34.088  1.00  0.00     0.080 A 
HETATM    7  C   UNL     1      -2.646   5.398 -32.789  1.00  0.00     0.052 A 
HETATM    8  C   UNL     1      -3.826   4.662 -32.578  1.00  0.00     0.048 A 
BRANCH   6   9
HETATM    9  O   UNL     1      -1.251   6.572 -34.407  1.00  0.00    -0.360 OA
HETATM   10  H   UNL     1      -0.977   6.333 -35.319  1.00  0.00     0.217 HD
ENDBRANCH   6   9
BRANCH   7  11
HETATM   11  C   UNL     1      -1.707   5.648 -31.698  1.00  0.00     0.183 A 
HETATM   12  N   UNL     1      -0.993   4.763 -31.019  1.00  0.00    -0.221 NA
HETATM   13  C   UNL     1      -0.328   5.531 -30.093  1.00  0.00     0.093 A 
HETATM   14  C   UNL     1      -0.658   6.865 -30.262  1.00  0.00     0.107 A 
HETATM   15  C   UNL     1       0.562   5.181 -29.071  1.00  0.00     0.035 A 
HETATM   16  C   UNL     1      -0.162   7.911 -29.493  1.00  0.00     0.046 A 
HETATM   17  O   UNL     1      -1.545   6.949 -31.294  1.00  0.00    -0.289 OA
HETATM   18  C   UNL     1       0.742   7.557 -28.477  1.00  0.00    -0.059 A 
HETATM   19  C   UNL     1       1.301   8.618 -27.572  1.00  0.00     0.048 C 
HETATM   20  C   UNL     1       1.084   6.207 -28.265  1.00  0.00     0.009 A 
ENDBRANCH   7  11
ENDBRANCH   1   3
BRANCH   1  21
HETATM   21  C   UNL     1      -7.081   3.942 -32.962  1.00  0.00     0.157 C 
HETATM   22  S   UNL     1      -7.481   5.442 -32.332  1.00  0.00    -0.047 SA
BRANCH  21  23
HETATM   23  N   UNL     1      -8.079   2.993 -33.013  1.00  0.00    -0.201 NA
HETATM   24  C   UNL     1      -8.105   1.925 -32.143  1.00  0.00     0.237 C 
HETATM   25  O   UNL     1      -8.803   1.923 -31.135  1.00  0.00    -0.274 OA
HETATM   26  H   UNL     1      -8.955   3.504 -32.959  1.00  0.00     0.139 HD
BRANCH  24  27
HETATM   27  C   UNL     1      -7.326   0.724 -32.519  1.00  0.00     0.026 A 
HETATM   28  C   UNL     1      -7.561   0.126 -33.760  1.00  0.00     0.019 A 
HETATM   29  C   UNL     1      -6.764  -0.943 -34.184  1.00  0.00     0.038 A 
HETATM   30  C   UNL     1      -5.711  -1.392 -33.383  1.00  0.00     0.068 A 
HETATM   31  C   UNL     1      -5.502  -0.808 -32.129  1.00  0.00     0.038 A 
HETATM   32  C   UNL     1      -6.306   0.248 -31.690  1.00  0.00     0.019 A 
BRANCH  30  33
HETATM   33  O   UNL     1      -4.823  -2.379 -33.713  1.00  0.00    -0.351 OA
BRANCH  33  34
HETATM   34  C   UNL     1      -4.888  -2.873 -35.054  1.00  0.00     0.179 C 
BRANCH  34  35
HETATM   35  C   UNL     1      -5.248  -4.366 -35.024  1.00  0.00     0.002 C 
HETATM   36  C   UNL     1      -4.501  -5.069 -33.892  1.00  0.00     0.011 C 
HETATM   37  C   UNL     1      -6.757  -4.571 -34.867  1.00  0.00     0.011 C 
ENDBRANCH  34  35
ENDBRANCH  33  34
ENDBRANCH  30  33
ENDBRANCH  24  27
ENDBRANCH  21  23
ENDBRANCH   1  21
TORSDOF 9
ENDMDL
MODEL 5
REMARK VINA RESULT:      -8.1      4.328      7.154
REMARK  9 active torsions:
REMARK  status: ('A' for Active; 'I' for Inactive)
REMARK    1  A    between atoms: C_7  and  C_8 
REMARK    2  A    between atoms: C_9  and  O_10 
REMARK    3  A    between atoms: C_13  and  N_14 
REMARK    4  A    between atoms: N_14  and  C_15 
REMARK    5  A    between atoms: C_15  and  N_16 
REMARK       I    between atoms: N_16  and  C_17 
REMARK    6  A    between atoms: C_17  and  C_18 
REMARK    7  A    between atoms: C_21  and  O_22 
REMARK    8  A    between atoms: O_22  and  C_23 
REMARK    9  A    between atoms: C_23  and  C_24 
ROOT
HETATM    1  N   UNL     1      -2.349   4.333 -31.198  1.00  0.00    -0.337 N 
HETATM    2  H   UNL     1      -1.913   4.233 -30.290  1.00  0.00     0.168 HD
ENDROOT
BRANCH   1   3
HETATM    3  C   UNL     1      -3.549   3.611 -31.393  1.00  0.00     0.035 A 
HETATM    4  C   UNL     1      -4.738   4.170 -30.922  1.00  0.00     0.032 A 
HETATM    5  C   UNL     1      -5.939   3.468 -31.035  1.00  0.00     0.040 A 
HETATM    6  C   UNL     1      -5.950   2.189 -31.589  1.00  0.00     0.080 A 
HETATM    7  C   UNL     1      -4.768   1.589 -32.045  1.00  0.00     0.052 A 
HETATM    8  C   UNL     1      -3.571   2.321 -31.940  1.00  0.00     0.048 A 
BRANCH   6   9
HETATM    9  O   UNL     1      -7.171   1.565 -31.639  1.00  0.00    -0.360 OA
HETATM   10  H   UNL     1      -7.204   1.011 -32.448  1.00  0.00     0.217 HD
ENDBRANCH   6   9
BRANCH   7  11
HETATM   11  C   UNL     1      -4.775   0.227 -32.572  1.00  0.00     0.183 A 
HETATM   12  N   UNL     1      -3.853  -0.712 -32.417  1.00  0.00    -0.221 NA
HETATM   13  C   UNL     1      -4.342  -1.766 -33.152  1.00  0.00     0.093 A 
HETATM   14  C   UNL     1      -5.561  -1.422 -33.715  1.00  0.00     0.107 A 
HETATM   15  C   UNL     1      -3.818  -3.038 -33.403  1.00  0.00     0.035 A 
HETATM   16  C   UNL     1      -6.329  -2.257 -34.518  1.00  0.00     0.046 A 
HETATM   17  O   UNL     1      -5.846  -0.142 -33.346  1.00  0.00    -0.289 OA
HETATM   18  C   UNL     1      -5.805  -3.540 -34.756  1.00  0.00    -0.059 A 
HETATM   19  C   UNL     1      -6.550  -4.497 -35.644  1.00  0.00     0.048 C 
HETATM   20  C   UNL     1      -4.560  -3.913 -34.215  1.00  0.00     0.009 A 
ENDBRANCH   7  11
ENDBRANCH   1   3
BRANCH   1  21
HETATM   21  C   UNL     1      -1.784   5.265 -32.034  1.00  0.00     0.157 C 
HETATM   22  S   UNL     1      -2.562   6.096 -33.264  1.00  0.00    -0.047 SA
BRANCH  21  23
HETATM   23  N   UNL     1      -0.455   5.561 -31.816  1.00  0.00    -0.201 NA
HETATM   24  C   UNL     1       0.159   5.283 -30.615  1.00  0.00     0.237 C 
HETATM   25  O   UNL     1       0.842   4.277 -30.448  1.00  0.00    -0.274 OA
HETATM   26  H   UNL     1       0.058   5.123 -32.575  1.00  0.00     0.139 HD
BRANCH  24  27
HETATM   27  C   UNL     1       0.044   6.297 -29.543  1.00  0.00     0.026 A 
HETATM   28  C   UNL     1       0.739   6.099 -28.347  1.00  0.00     0.019 A 
HETATM   29  C   UNL     1       0.734   7.093 -27.361  1.00  0.00     0.038 A 
HETATM   30  C   UNL     1       0.064   8.297 -27.586  1.00  0.00     0.068 A 
HETATM   31  C   UNL     1      -0.654   8.476 -28.772  1.00  0.00     0.038 A 
HETATM   32  C   UNL     1      -0.670   7.480 -29.753  1.00  0.00     0.019 A 
BRANCH  30  33
HETATM   33  O   UNL     1       0.041   9.367 -26.733  1.00  0.00    -0.351 OA
BRANCH  33  34
HETATM   34  C   UNL     1       0.081   9.069 -25.334  1.00  0.00     0.179 C 
BRANCH  34  35
HETATM   35  C   UNL     1       1.268   9.805 -24.696  1.00  0.00     0.002 C 
HETATM   36  C   UNL     1       0.980  10.101 -23.225  1.00  0.00     0.011 C 
HETATM   37  C   UNL     1       2.559   8.994 -24.827  1.00  0.00     0.011 C 
ENDBRANCH  34  35
ENDBRANCH  33  34
ENDBRANCH  30  33
ENDBRANCH  24  27
ENDBRANCH  21  23
ENDBRANCH   1  21
TORSDOF 9
ENDMDL
MODEL 6
REMARK VINA RESULT:      -8.0      3.549      6.487
REMARK  9 active torsions:
REMARK  status: ('A' for Active; 'I' for Inactive)
REMARK    1  A    between atoms: C_7  and  C_8 
REMARK    2  A    between atoms: C_9  and  O_10 
REMARK    3  A    between atoms: C_13  and  N_14 
REMARK    4  A    between atoms: N_14  and  C_15 
REMARK    5  A    between atoms: C_15  and  N_16 
REMARK       I    between atoms: N_16  and  C_17 
REMARK    6  A    between atoms: C_17  and  C_18 
REMARK    7  A    between atoms: C_21  and  O_22 
REMARK    8  A    between atoms: O_22  and  C_23 
REMARK    9  A    between atoms: C_23  and  C_24 
ROOT
HETATM    1  N   UNL     1      -5.108   5.471 -32.957  1.00  0.00    -0.337 N 
HETATM    2  H   UNL     1      -5.728   6.138 -33.401  1.00  0.00     0.168 HD
ENDROOT
BRANCH   1   3
HETATM    3  C   UNL     1      -5.723   4.319 -32.414  1.00  0.00     0.035 A 
HETATM    4  C   UNL     1      -6.498   4.467 -31.263  1.00  0.00     0.032 A 
HETATM    5  C   UNL     1      -7.074   3.350 -30.654  1.00  0.00     0.040 A 
HETATM    6  C   UNL     1      -6.848   2.078 -31.176  1.00  0.00     0.080 A 
HETATM    7  C   UNL     1      -6.050   1.894 -32.314  1.00  0.00     0.052 A 
HETATM    8  C   UNL     1      -5.495   3.034 -32.924  1.00  0.00     0.048 A 
BRANCH   6   9
HETATM    9  O   UNL     1      -7.434   1.037 -30.499  1.00  0.00    -0.360 OA
HETATM   10  H   UNL     1      -8.333   1.315 -30.221  1.00  0.00     0.217 HD
ENDBRANCH   6   9
BRANCH   7  11
HETATM   11  C   UNL     1      -5.770   0.554 -32.823  1.00  0.00     0.183 A 
HETATM   12  N   UNL     1      -4.611  -0.088 -32.834  1.00  0.00    -0.221 NA
HETATM   13  C   UNL     1      -4.908  -1.275 -33.461  1.00  0.00     0.093 A 
HETATM   14  C   UNL     1      -6.252  -1.309 -33.792  1.00  0.00     0.107 A 
HETATM   15  C   UNL     1      -4.102  -2.368 -33.796  1.00  0.00     0.035 A 
HETATM   16  C   UNL     1      -6.886  -2.366 -34.436  1.00  0.00     0.046 A 
HETATM   17  O   UNL     1      -6.814  -0.136 -33.385  1.00  0.00    -0.289 OA
HETATM   18  C   UNL     1      -6.075  -3.468 -34.759  1.00  0.00    -0.059 A 
HETATM   19  C   UNL     1      -6.667  -4.641 -35.489  1.00  0.00     0.048 C 
HETATM   20  C   UNL     1      -4.701  -3.457 -34.453  1.00  0.00     0.009 A 
ENDBRANCH   7  11
ENDBRANCH   1   3
BRANCH   1  21
HETATM   21  C   UNL     1      -3.764   5.724 -33.088  1.00  0.00     0.157 C 
HETATM   22  S   UNL     1      -2.574   4.601 -33.447  1.00  0.00    -0.047 SA
BRANCH  21  23
HETATM   23  N   UNL     1      -3.368   7.036 -32.933  1.00  0.00    -0.201 NA
HETATM   24  C   UNL     1      -2.040   7.398 -32.974  1.00  0.00     0.237 C 
HETATM   25  O   UNL     1      -1.519   7.853 -33.987  1.00  0.00    -0.274 OA
HETATM   26  H   UNL     1      -3.893   7.570 -33.618  1.00  0.00     0.139 HD
BRANCH  24  27
HETATM   27  C   UNL     1      -1.271   7.307 -31.712  1.00  0.00     0.026 A 
HETATM   28  C   UNL     1      -0.010   6.706 -31.730  1.00  0.00     0.019 A 
HETATM   29  C   UNL     1       0.781   6.704 -30.575  1.00  0.00     0.038 A 
HETATM   30  C   UNL     1       0.325   7.332 -29.414  1.00  0.00     0.068 A 
HETATM   31  C   UNL     1      -0.951   7.905 -29.395  1.00  0.00     0.038 A 
HETATM   32  C   UNL     1      -1.754   7.894 -30.539  1.00  0.00     0.019 A 
BRANCH  30  33
HETATM   33  O   UNL     1       1.029   7.456 -28.247  1.00  0.00    -0.351 OA
BRANCH  33  34
HETATM   34  C   UNL     1       0.882   8.692 -27.542  1.00  0.00     0.179 C 
BRANCH  34  35
HETATM   35  C   UNL     1       0.932   8.420 -26.031  1.00  0.00     0.002 C 
HETATM   36  C   UNL     1       2.359   8.586 -25.509  1.00  0.00     0.011 C 
HETATM   37  C   UNL     1      -0.019   9.344 -25.269  1.00  0.00     0.011 C 
ENDBRANCH  34  35
ENDBRANCH  33  34
ENDBRANCH  30  33
ENDBRANCH  24  27
ENDBRANCH  21  23
ENDBRANCH   1  21
TORSDOF 9
ENDMDL
MODEL 7
REMARK VINA RESULT:      -7.8      3.421      7.306
REMARK  9 active torsions:
REMARK  status: ('A' for Active; 'I' for Inactive)
REMARK    1  A    between atoms: C_7  and  C_8 
REMARK    2  A    between atoms: C_9  and  O_10 
REMARK    3  A    between atoms: C_13  and  N_14 
REMARK    4  A    between atoms: N_14  and  C_15 
REMARK    5  A    between atoms: C_15  and  N_16 
REMARK       I    between atoms: N_16  and  C_17 
REMARK    6  A    between atoms: C_17  and  C_18 
REMARK    7  A    between atoms: C_21  and  O_22 
REMARK    8  A    between atoms: O_22  and  C_23 
REMARK    9  A    between atoms: C_23  and  C_24 
ROOT
HETATM    1  N   UNL     1      -9.856   4.743 -32.352  1.00  0.00    -0.337 N 
HETATM    2  H   UNL     1      -9.958   5.742 -32.485  1.00  0.00     0.168 HD
ENDROOT
BRANCH   1   3
HETATM    3  C   UNL     1      -8.726   4.328 -31.610  1.00  0.00     0.035 A 
HETATM    4  C   UNL     1      -8.940   3.697 -30.383  1.00  0.00     0.032 A 
HETATM    5  C   UNL     1      -7.857   3.325 -29.586  1.00  0.00     0.040 A 
HETATM    6  C   UNL     1      -6.556   3.614 -29.996  1.00  0.00     0.080 A 
HETATM    7  C   UNL     1      -6.311   4.273 -31.209  1.00  0.00     0.052 A 
HETATM    8  C   UNL     1      -7.416   4.621 -32.008  1.00  0.00     0.048 A 
BRANCH   6   9
HETATM    9  O   UNL     1      -5.555   3.233 -29.138  1.00  0.00    -0.360 OA
HETATM   10  H   UNL     1      -5.929   3.171 -28.233  1.00  0.00     0.217 HD
ENDBRANCH   6   9
BRANCH   7  11
HETATM   11  C   UNL     1      -4.951   4.623 -31.609  1.00  0.00     0.183 A 
HETATM   12  N   UNL     1      -4.327   4.314 -32.736  1.00  0.00    -0.221 NA
HETATM   13  C   UNL     1      -3.072   4.851 -32.566  1.00  0.00     0.093 A 
HETATM   14  C   UNL     1      -2.993   5.483 -31.336  1.00  0.00     0.107 A 
HETATM   15  C   UNL     1      -1.944   4.841 -33.392  1.00  0.00     0.035 A 
HETATM   16  C   UNL     1      -1.865   6.131 -30.846  1.00  0.00     0.046 A 
HETATM   17  O   UNL     1      -4.198   5.341 -30.714  1.00  0.00    -0.289 OA
HETATM   18  C   UNL     1      -0.738   6.131 -31.686  1.00  0.00    -0.059 A 
HETATM   19  C   UNL     1       0.537   6.776 -31.223  1.00  0.00     0.048 C 
HETATM   20  C   UNL     1      -0.780   5.480 -32.934  1.00  0.00     0.009 A 
ENDBRANCH   7  11
ENDBRANCH   1   3
BRANCH   1  21
HETATM   21  C   UNL     1     -10.906   3.971 -32.788  1.00  0.00     0.157 C 
HETATM   22  S   UNL     1     -12.474   4.009 -32.199  1.00  0.00    -0.047 SA
BRANCH  21  23
HETATM   23  N   UNL     1     -10.643   3.104 -33.827  1.00  0.00    -0.201 NA
HETATM   24  C   UNL     1     -10.467   1.754 -33.613  1.00  0.00     0.237 C 
HETATM   25  O   UNL     1     -11.371   0.944 -33.788  1.00  0.00    -0.274 OA
HETATM   26  H   UNL     1     -11.379   3.252 -34.509  1.00  0.00     0.139 HD
BRANCH  24  27
HETATM   27  C   UNL     1      -9.107   1.295 -33.252  1.00  0.00     0.026 A 
HETATM   28  C   UNL     1      -8.029   1.673 -34.058  1.00  0.00     0.019 A 
HETATM   29  C   UNL     1      -6.723   1.344 -33.680  1.00  0.00     0.038 A 
HETATM   30  C   UNL     1      -6.491   0.668 -32.481  1.00  0.00     0.068 A 
HETATM   31  C   UNL     1      -7.576   0.266 -31.695  1.00  0.00     0.038 A 
HETATM   32  C   UNL     1      -8.885   0.575 -32.076  1.00  0.00     0.019 A 
BRANCH  30  33
HETATM   33  O   UNL     1      -5.262   0.349 -31.970  1.00  0.00    -0.351 OA
BRANCH  33  34
HETATM   34  C   UNL     1      -4.155   0.433 -32.872  1.00  0.00     0.179 C 
BRANCH  34  35
HETATM   35  C   UNL     1      -3.595  -0.976 -33.115  1.00  0.00     0.002 C 
HETATM   36  C   UNL     1      -3.247  -1.645 -31.785  1.00  0.00     0.011 C 
HETATM   37  C   UNL     1      -4.586  -1.840 -33.896  1.00  0.00     0.011 C 
ENDBRANCH  34  35
ENDBRANCH  33  34
ENDBRANCH  30  33
ENDBRANCH  24  27
ENDBRANCH  21  23
ENDBRANCH   1  21
TORSDOF 9
ENDMDL
MODEL 8
REMARK VINA RESULT:      -7.8      2.564      3.920
REMARK  9 active torsions:
REMARK  status: ('A' for Active; 'I' for Inactive)
REMARK    1  A    between atoms: C_7  and  C_8 
REMARK    2  A    between atoms: C_9  and  O_10 
REMARK    3  A    between atoms: C_13  and  N_14 
REMARK    4  A    between atoms: N_14  and  C_15 
REMARK    5  A    between atoms: C_15  and  N_16 
REMARK       I    between atoms: N_16  and  C_17 
REMARK    6  A    between atoms: C_17  and  C_18 
REMARK    7  A    between atoms: C_21  and  O_22 
REMARK    8  A    between atoms: O_22  and  C_23 
REMARK    9  A    between atoms: C_23  and  C_24 
ROOT
HETATM    1  N   UNL     1      -5.709   4.803 -33.122  1.00  0.00    -0.337 N 
HETATM    2  H   UNL     1      -5.469   5.524 -33.792  1.00  0.00     0.168 HD
ENDROOT
BRANCH   1   3
HETATM    3  C   UNL     1      -6.601   3.805 -33.578  1.00  0.00     0.035 A 
HETATM    4  C   UNL     1      -7.945   4.146 -33.741  1.00  0.00     0.032 A 
HETATM    5  C   UNL     1      -8.874   3.180 -34.129  1.00  0.00     0.040 A 
HETATM    6  C   UNL     1      -8.469   1.860 -34.322  1.00  0.00     0.080 A 
HETATM    7  C   UNL     1      -7.133   1.480 -34.136  1.00  0.00     0.052 A 
HETATM    8  C   UNL     1      -6.207   2.473 -33.765  1.00  0.00     0.048 A 
BRANCH   6   9
HETATM    9  O   UNL     1      -9.454   0.974 -34.679  1.00  0.00    -0.360 OA
HETATM   10  H   UNL     1      -9.224   0.589 -35.551  1.00  0.00     0.217 HD
ENDBRANCH   6   9
BRANCH   7  11
HETATM   11  C   UNL     1      -6.724   0.086 -34.284  1.00  0.00     0.183 A 
HETATM   12  N   UNL     1      -7.428  -0.922 -34.778  1.00  0.00    -0.221 NA
HETATM   13  C   UNL     1      -6.587  -2.000 -34.637  1.00  0.00     0.093 A 
HETATM   14  C   UNL     1      -5.389  -1.593 -34.073  1.00  0.00     0.107 A 
HETATM   15  C   UNL     1      -6.759  -3.353 -34.951  1.00  0.00     0.035 A 
HETATM   16  C   UNL     1      -4.317  -2.431 -33.793  1.00  0.00     0.046 A 
HETATM   17  O   UNL     1      -5.470  -0.252 -33.843  1.00  0.00    -0.289 OA
HETATM   18  C   UNL     1      -4.489  -3.787 -34.123  1.00  0.00    -0.059 A 
HETATM   19  C   UNL     1      -3.395  -4.773 -33.822  1.00  0.00     0.048 C 
HETATM   20  C   UNL     1      -5.702  -4.237 -34.680  1.00  0.00     0.009 A 
ENDBRANCH   7  11
ENDBRANCH   1   3
BRANCH   1  21
HETATM   21  C   UNL     1      -5.016   4.833 -31.936  1.00  0.00     0.157 C 
HETATM   22  S   UNL     1      -3.548   4.088 -31.627  1.00  0.00    -0.047 SA
BRANCH  21  23
HETATM   23  N   UNL     1      -5.576   5.572 -30.916  1.00  0.00    -0.201 NA
HETATM   24  C   UNL     1      -6.256   4.972 -29.879  1.00  0.00     0.237 C 
HETATM   25  O   UNL     1      -5.727   4.750 -28.795  1.00  0.00    -0.274 OA
HETATM   26  H   UNL     1      -4.829   6.153 -30.548  1.00  0.00     0.139 HD
BRANCH  24  27
HETATM   27  C   UNL     1      -7.693   4.685 -30.086  1.00  0.00     0.026 A 
HETATM   28  C   UNL     1      -8.576   5.752 -30.271  1.00  0.00     0.019 A 
HETATM   29  C   UNL     1      -9.919   5.504 -30.576  1.00  0.00     0.038 A 
HETATM   30  C   UNL     1     -10.371   4.192 -30.728  1.00  0.00     0.068 A 
HETATM   31  C   UNL     1      -9.489   3.129 -30.511  1.00  0.00     0.038 A 
HETATM   32  C   UNL     1      -8.150   3.368 -30.187  1.00  0.00     0.019 A 
BRANCH  30  33
HETATM   33  O   UNL     1     -11.639   3.823 -31.090  1.00  0.00    -0.351 OA
BRANCH  33  34
HETATM   34  C   UNL     1     -12.002   4.042 -32.455  1.00  0.00     0.179 C 
BRANCH  34  35
HETATM   35  C   UNL     1     -12.797   2.831 -32.966  1.00  0.00     0.002 C 
HETATM   36  C   UNL     1     -14.165   2.770 -32.287  1.00  0.00     0.011 C 
HETATM   37  C   UNL     1     -12.964   2.877 -34.486  1.00  0.00     0.011 C 
ENDBRANCH  34  35
ENDBRANCH  33  34
ENDBRANCH  30  33
ENDBRANCH  24  27
ENDBRANCH  21  23
ENDBRANCH   1  21
TORSDOF 9
ENDMDL
MODEL 9
REMARK VINA RESULT:      -7.7      3.956      8.851
REMARK  9 active torsions:
REMARK  status: ('A' for Active; 'I' for Inactive)
REMARK    1  A    between atoms: C_7  and  C_8 
REMARK    2  A    between atoms: C_9  and  O_10 
REMARK    3  A    between atoms: C_13  and  N_14 
REMARK    4  A    between atoms: N_14  and  C_15 
REMARK    5  A    between atoms: C_15  and  N_16 
REMARK       I    between atoms: N_16  and  C_17 
REMARK    6  A    between atoms: C_17  and  C_18 
REMARK    7  A    between atoms: C_21  and  O_22 
REMARK    8  A    between atoms: O_22  and  C_23 
REMARK    9  A    between atoms: C_23  and  C_24 
ROOT
HETATM    1  N   UNL     1      -5.327   5.782 -31.568  1.00  0.00    -0.337 N 
HETATM    2  H   UNL     1      -5.697   6.567 -31.046  1.00  0.00     0.168 HD
ENDROOT
BRANCH   1   3
HETATM    3  C   UNL     1      -3.921   5.635 -31.556  1.00  0.00     0.035 A 
HETATM    4  C   UNL     1      -3.345   4.731 -32.451  1.00  0.00     0.032 A 
HETATM    5  C   UNL     1      -1.968   4.505 -32.434  1.00  0.00     0.040 A 
HETATM    6  C   UNL     1      -1.166   5.157 -31.498  1.00  0.00     0.080 A 
HETATM    7  C   UNL     1      -1.719   6.048 -30.568  1.00  0.00     0.052 A 
HETATM    8  C   UNL     1      -3.106   6.277 -30.614  1.00  0.00     0.048 A 
BRANCH   6   9
HETATM    9  O   UNL     1       0.173   4.857 -31.540  1.00  0.00    -0.360 OA
HETATM   10  H   UNL     1       0.370   4.434 -32.403  1.00  0.00     0.217 HD
ENDBRANCH   6   9
BRANCH   7  11
HETATM   11  C   UNL     1      -0.883   6.684 -29.553  1.00  0.00     0.183 A 
HETATM   12  N   UNL     1       0.092   6.139 -28.840  1.00  0.00    -0.221 NA
HETATM   13  C   UNL     1       0.500   7.163 -28.019  1.00  0.00     0.093 A 
HETATM   14  C   UNL     1      -0.242   8.302 -28.282  1.00  0.00     0.107 A 
HETATM   15  C   UNL     1       1.479   7.211 -27.020  1.00  0.00     0.035 A 
HETATM   16  C   UNL     1      -0.086   9.520 -27.631  1.00  0.00     0.046 A 
HETATM   17  O   UNL     1      -1.133   8.003 -29.268  1.00  0.00    -0.289 OA
HETATM   18  C   UNL     1       0.908   9.568 -26.638  1.00  0.00    -0.059 A 
HETATM   19  C   UNL     1       1.121  10.834 -25.856  1.00  0.00     0.048 C 
HETATM   20  C   UNL     1       1.667   8.422 -26.333  1.00  0.00     0.009 A 
ENDBRANCH   7  11
ENDBRANCH   1   3
BRANCH   1  21
HETATM   21  C   UNL     1      -6.259   4.909 -32.076  1.00  0.00     0.157 C 
HETATM   22  S   UNL     1      -6.850   4.891 -33.644  1.00  0.00    -0.047 SA
BRANCH  21  23
HETATM   23  N   UNL     1      -6.729   3.941 -31.214  1.00  0.00    -0.201 NA
HETATM   24  C   UNL     1      -5.894   2.984 -30.680  1.00  0.00     0.237 C 
HETATM   25  O   UNL     1      -5.419   3.089 -29.554  1.00  0.00    -0.274 OA
HETATM   26  H   UNL     1      -7.207   4.437 -30.468  1.00  0.00     0.139 HD
BRANCH  24  27
HETATM   27  C   UNL     1      -5.660   1.763 -31.482  1.00  0.00     0.026 A 
HETATM   28  C   UNL     1      -6.747   1.148 -32.110  1.00  0.00     0.019 A 
HETATM   29  C   UNL     1      -6.538   0.056 -32.961  1.00  0.00     0.038 A 
HETATM   30  C   UNL     1      -5.241  -0.398 -33.211  1.00  0.00     0.068 A 
HETATM   31  C   UNL     1      -4.162   0.203 -32.555  1.00  0.00     0.038 A 
HETATM   32  C   UNL     1      -4.364   1.282 -31.689  1.00  0.00     0.019 A 
BRANCH  30  33
HETATM   33  O   UNL     1      -4.902  -1.407 -34.071  1.00  0.00    -0.351 OA
BRANCH  33  34
HETATM   34  C   UNL     1      -5.984  -2.102 -34.697  1.00  0.00     0.179 C 
BRANCH  34  35
HETATM   35  C   UNL     1      -5.501  -3.490 -35.142  1.00  0.00     0.002 C 
HETATM   36  C   UNL     1      -4.363  -3.970 -34.243  1.00  0.00     0.011 C 
HETATM   37  C   UNL     1      -6.645  -4.506 -35.133  1.00  0.00     0.011 C 
ENDBRANCH  34  35
ENDBRANCH  33  34
ENDBRANCH  30  33
ENDBRANCH  24  27
ENDBRANCH  21  23
ENDBRANCH   1  21
TORSDOF 9
ENDMDL
MODEL 10
REMARK VINA RESULT:      -7.7      2.939      6.837
REMARK  9 active torsions:
REMARK  status: ('A' for Active; 'I' for Inactive)
REMARK    1  A    between atoms: C_7  and  C_8 
REMARK    2  A    between atoms: C_9  and  O_10 
REMARK    3  A    between atoms: C_13  and  N_14 
REMARK    4  A    between atoms: N_14  and  C_15 
REMARK    5  A    between atoms: C_15  and  N_16 
REMARK       I    between atoms: N_16  and  C_17 
REMARK    6  A    between atoms: C_17  and  C_18 
REMARK    7  A    between atoms: C_21  and  O_22 
REMARK    8  A    between atoms: O_22  and  C_23 
REMARK    9  A    between atoms: C_23  and  C_24 
ROOT
HETATM    1  N   UNL     1      -6.978   5.356 -32.901  1.00  0.00    -0.337 N 
HETATM    2  H   UNL     1      -6.650   5.981 -33.628  1.00  0.00     0.168 HD
ENDROOT
BRANCH   1   3
HETATM    3  C   UNL     1      -7.446   4.094 -33.332  1.00  0.00     0.035 A 
HETATM    4  C   UNL     1      -6.540   3.231 -33.950  1.00  0.00     0.032 A 
HETATM    5  C   UNL     1      -6.968   1.999 -34.448  1.00  0.00     0.040 A 
HETATM    6  C   UNL     1      -8.312   1.641 -34.360  1.00  0.00     0.080 A 
HETATM    7  C   UNL     1      -9.252   2.498 -33.771  1.00  0.00     0.052 A 
HETATM    8  C   UNL     1      -8.796   3.727 -33.257  1.00  0.00     0.048 A 
BRANCH   6   9
HETATM    9  O   UNL     1      -8.647   0.423 -34.897  1.00  0.00    -0.360 OA
HETATM   10  H   UNL     1      -8.994  -0.148 -34.178  1.00  0.00     0.217 HD
ENDBRANCH   6   9
BRANCH   7  11
HETATM   11  C   UNL     1     -10.668   2.143 -33.732  1.00  0.00     0.183 A 
HETATM   12  N   UNL     1     -11.298   1.226 -34.452  1.00  0.00    -0.221 NA
HETATM   13  C   UNL     1     -12.607   1.345 -34.047  1.00  0.00     0.093 A 
HETATM   14  C   UNL     1     -12.713   2.329 -33.077  1.00  0.00     0.107 A 
HETATM   15  C   UNL     1     -13.763   0.672 -34.454  1.00  0.00     0.035 A 
HETATM   16  C   UNL     1     -13.896   2.705 -32.452  1.00  0.00     0.046 A 
HETATM   17  O   UNL     1     -11.470   2.846 -32.869  1.00  0.00    -0.289 OA
HETATM   18  C   UNL     1     -15.053   2.015 -32.854  1.00  0.00    -0.059 A 
HETATM   19  C   UNL     1     -16.383   2.381 -32.258  1.00  0.00     0.048 C 
HETATM   20  C   UNL     1     -14.983   1.023 -33.851  1.00  0.00     0.009 A 
ENDBRANCH   7  11
ENDBRANCH   1   3
BRANCH   1  21
HETATM   21  C   UNL     1      -6.776   5.783 -31.610  1.00  0.00     0.157 C 
HETATM   22  S   UNL     1      -6.386   7.340 -31.130  1.00  0.00    -0.047 SA
BRANCH  21  23
HETATM   23  N   UNL     1      -6.940   4.839 -30.618  1.00  0.00    -0.201 NA
HETATM   24  C   UNL     1      -5.861   4.299 -29.952  1.00  0.00     0.237 C 
HETATM   25  O   UNL     1      -5.503   4.708 -28.852  1.00  0.00    -0.274 OA
HETATM   26  H   UNL     1      -7.590   5.243 -29.952  1.00  0.00     0.139 HD
BRANCH  24  27
HETATM   27  C   UNL     1      -5.197   3.130 -30.571  1.00  0.00     0.026 A 
HETATM   28  C   UNL     1      -5.847   1.893 -30.549  1.00  0.00     0.019 A 
HETATM   29  C   UNL     1      -5.291   0.798 -31.221  1.00  0.00     0.038 A 
HETATM   30  C   UNL     1      -4.104   0.948 -31.941  1.00  0.00     0.068 A 
HETATM   31  C   UNL     1      -3.443   2.181 -31.932  1.00  0.00     0.038 A 
HETATM   32  C   UNL     1      -3.983   3.274 -31.248  1.00  0.00     0.019 A 
BRANCH  30  33
HETATM   33  O   UNL     1      -3.498  -0.024 -32.690  1.00  0.00    -0.351 OA
BRANCH  33  34
HETATM   34  C   UNL     1      -3.982  -1.358 -32.515  1.00  0.00     0.179 C 
BRANCH  34  35
HETATM   35  C   UNL     1      -4.509  -1.884 -33.858  1.00  0.00     0.002 C 
HETATM   36  C   UNL     1      -4.207  -3.375 -34.000  1.00  0.00     0.011 C 
HETATM   37  C   UNL     1      -6.012  -1.634 -34.001  1.00  0.00     0.011 C 
ENDBRANCH  34  35
ENDBRANCH  33  34
ENDBRANCH  30  33
ENDBRANCH  24  27
ENDBRANCH  21  23
ENDBRANCH   1  21
TORSDOF 9
ENDMDL
