MODEL 1
REMARK VINA RESULT:      -8.3      0.000      0.000
REMARK  11 active torsions:
REMARK  status: ('A' for Active; 'I' for Inactive)
REMARK    1  A    between atoms: C_4  and  C_5 
REMARK       I    between atoms: C_5  and  N_6 
REMARK    2  A    between atoms: N_6  and  C_7 
REMARK    3  A    between atoms: C_7  and  C_8 
REMARK    4  A    between atoms: C_8  and  C_9 
REMARK    5  A    between atoms: C_9  and  C_10 
REMARK    6  A    between atoms: C_10  and  C_11 
REMARK    7  A    between atoms: C_11  and  C_12 
REMARK       I    between atoms: C_12  and  N_13 
REMARK    8  A    between atoms: N_13  and  N_14 
REMARK    9  A    between atoms: C_15  and  C_16 
REMARK   10  A    between atoms: C_17  and  O_18 
REMARK   11  A    between atoms: C_20  and  O_21 
ROOT
HETATM    1  C   UNL     1      -3.911   2.389 -31.705  1.00  0.00     0.237 C 
HETATM    2  N   UNL     1      -4.853   1.671 -32.430  1.00  0.00    -0.247 N 
HETATM    3  O   UNL     1      -2.896   1.902 -31.216  1.00  0.00    -0.272 OA
HETATM    4  H   UNL     1      -5.678   2.124 -32.809  1.00  0.00     0.192 HD
ENDROOT
BRANCH   1   5
HETATM    5  C   UNL     1      -4.266   3.860 -31.588  1.00  0.00     0.105 C 
BRANCH   5   6
HETATM    6  C   UNL     1      -5.010   4.358 -32.826  1.00  0.00     0.009 C 
BRANCH   6   7
HETATM    7  C   UNL     1      -4.300   5.537 -33.490  1.00  0.00     0.002 C 
BRANCH   7   8
HETATM    8  C   UNL     1      -3.802   5.154 -34.885  1.00  0.00     0.020 C 
BRANCH   8   9
HETATM    9  C   UNL     1      -2.283   5.250 -34.991  1.00  0.00     0.123 C 
BRANCH   9  10
HETATM   10  N   UNL     1      -1.673   5.304 -33.676  1.00  0.00    -0.357 N 
HETATM   11  C   UNL     1      -1.170   6.484 -33.163  1.00  0.00     0.251 C 
HETATM   12  O   UNL     1      -1.159   7.533 -33.799  1.00  0.00    -0.268 OA
HETATM   13  H   UNL     1      -1.830   4.519 -33.064  1.00  0.00     0.162 HD
BRANCH  11  14
HETATM   14  C   UNL     1      -0.648   6.453 -31.762  1.00  0.00     0.032 A 
HETATM   15  C   UNL     1      -0.842   7.500 -30.850  1.00  0.00     0.017 A 
HETATM   16  C   UNL     1      -0.331   7.407 -29.552  1.00  0.00     0.001 A 
HETATM   17  C   UNL     1       0.362   6.266 -29.151  1.00  0.00     0.000 A 
HETATM   18  C   UNL     1       0.546   5.213 -30.045  1.00  0.00     0.001 A 
HETATM   19  C   UNL     1       0.043   5.306 -31.344  1.00  0.00     0.017 A 
ENDBRANCH  11  14
ENDBRANCH   9  10
ENDBRANCH   8   9
ENDBRANCH   7   8
ENDBRANCH   6   7
ENDBRANCH   5   6
ENDBRANCH   1   5
BRANCH   2  20
HETATM   20  N   UNL     1      -4.660   0.339 -32.613  1.00  0.00    -0.184 NA
HETATM   21  C   UNL     1      -5.288  -0.211 -33.601  1.00  0.00     0.153 C 
BRANCH  21  22
HETATM   22  C   UNL     1      -5.135  -1.657 -33.865  1.00  0.00     0.016 A 
HETATM   23  C   UNL     1      -4.103  -2.413 -33.291  1.00  0.00     0.080 A 
HETATM   24  C   UNL     1      -3.992  -3.775 -33.561  1.00  0.00     0.074 A 
HETATM   25  C   UNL     1      -4.916  -4.377 -34.409  1.00  0.00     0.068 A 
HETATM   26  C   UNL     1      -5.945  -3.639 -34.988  1.00  0.00     0.037 A 
HETATM   27  C   UNL     1      -6.058  -2.274 -34.717  1.00  0.00     0.018 A 
BRANCH  23  28
HETATM   28  O   UNL     1      -3.161  -1.888 -32.449  1.00  0.00    -0.360 OA
HETATM   29  H   UNL     1      -3.586  -1.193 -31.894  1.00  0.00     0.217 HD
ENDBRANCH  23  28
BRANCH  25  30
HETATM   30  O   UNL     1      -4.846  -5.707 -34.702  1.00  0.00    -0.361 OA
HETATM   31  H   UNL     1      -5.039  -5.825 -35.648  1.00  0.00     0.217 HD
ENDBRANCH  25  30
ENDBRANCH  21  22
ENDBRANCH   2  20
TORSDOF 11
ENDMDL
MODEL 2
REMARK VINA RESULT:      -8.2      2.644      8.705
REMARK  11 active torsions:
REMARK  status: ('A' for Active; 'I' for Inactive)
REMARK    1  A    between atoms: C_4  and  C_5 
REMARK       I    between atoms: C_5  and  N_6 
REMARK    2  A    between atoms: N_6  and  C_7 
REMARK    3  A    between atoms: C_7  and  C_8 
REMARK    4  A    between atoms: C_8  and  C_9 
REMARK    5  A    between atoms: C_9  and  C_10 
REMARK    6  A    between atoms: C_10  and  C_11 
REMARK    7  A    between atoms: C_11  and  C_12 
REMARK       I    between atoms: C_12  and  N_13 
REMARK    8  A    between atoms: N_13  and  N_14 
REMARK    9  A    between atoms: C_15  and  C_16 
REMARK   10  A    between atoms: C_17  and  O_18 
REMARK   11  A    between atoms: C_20  and  O_21 
ROOT
HETATM    1  C   UNL     1      -8.066   3.224 -31.642  1.00  0.00     0.237 C 
HETATM    2  N   UNL     1      -6.783   2.696 -31.566  1.00  0.00    -0.247 N 
HETATM    3  O   UNL     1      -8.317   4.395 -31.910  1.00  0.00    -0.272 OA
HETATM    4  H   UNL     1      -6.631   1.719 -31.335  1.00  0.00     0.192 HD
ENDROOT
BRANCH   1   5
HETATM    5  C   UNL     1      -9.138   2.185 -31.365  1.00  0.00     0.105 C 
BRANCH   5   6
HETATM    6  C   UNL     1      -8.665   0.779 -31.729  1.00  0.00     0.009 C 
BRANCH   6   7
HETATM    7  C   UNL     1      -9.533   0.141 -32.812  1.00  0.00     0.002 C 
BRANCH   7   8
HETATM    8  C   UNL     1      -9.417   0.917 -34.126  1.00  0.00     0.020 C 
BRANCH   8   9
HETATM    9  C   UNL     1      -7.984   0.934 -34.650  1.00  0.00     0.123 C 
BRANCH   9  10
HETATM   10  N   UNL     1      -7.472  -0.413 -34.806  1.00  0.00    -0.357 N 
HETATM   11  C   UNL     1      -6.304  -0.818 -34.189  1.00  0.00     0.251 C 
HETATM   12  O   UNL     1      -5.608  -0.058 -33.523  1.00  0.00    -0.268 OA
HETATM   13  H   UNL     1      -8.102  -1.103 -35.186  1.00  0.00     0.162 HD
BRANCH  11  14
HETATM   14  C   UNL     1      -5.914  -2.254 -34.338  1.00  0.00     0.032 A 
HETATM   15  C   UNL     1      -6.819  -3.258 -34.708  1.00  0.00     0.017 A 
HETATM   16  C   UNL     1      -6.389  -4.582 -34.833  1.00  0.00     0.001 A 
HETATM   17  C   UNL     1      -5.054  -4.911 -34.607  1.00  0.00     0.000 A 
HETATM   18  C   UNL     1      -4.142  -3.917 -34.255  1.00  0.00     0.001 A 
HETATM   19  C   UNL     1      -4.570  -2.594 -34.122  1.00  0.00     0.017 A 
ENDBRANCH  11  14
ENDBRANCH   9  10
ENDBRANCH   8   9
ENDBRANCH   7   8
ENDBRANCH   6   7
ENDBRANCH   5   6
ENDBRANCH   1   5
BRANCH   2  20
HETATM   20  N   UNL     1      -5.725   3.516 -31.791  1.00  0.00    -0.184 NA
HETATM   21  C   UNL     1      -5.112   3.381 -32.922  1.00  0.00     0.153 C 
BRANCH  21  22
HETATM   22  C   UNL     1      -3.948   4.232 -33.243  1.00  0.00     0.016 A 
HETATM   23  C   UNL     1      -2.794   4.247 -32.446  1.00  0.00     0.080 A 
HETATM   24  C   UNL     1      -1.715   5.061 -32.781  1.00  0.00     0.074 A 
HETATM   25  C   UNL     1      -1.794   5.861 -33.916  1.00  0.00     0.068 A 
HETATM   26  C   UNL     1      -2.933   5.859 -34.716  1.00  0.00     0.037 A 
HETATM   27  C   UNL     1      -4.016   5.042 -34.382  1.00  0.00     0.018 A 
BRANCH  23  28
HETATM   28  O   UNL     1      -2.647   3.487 -31.317  1.00  0.00    -0.360 OA
HETATM   29  H   UNL     1      -1.698   3.498 -31.051  1.00  0.00     0.217 HD
ENDBRANCH  23  28
BRANCH  25  30
HETATM   30  O   UNL     1      -0.762   6.674 -34.283  1.00  0.00    -0.361 OA
HETATM   31  H   UNL     1       0.061   6.158 -34.256  1.00  0.00     0.217 HD
ENDBRANCH  25  30
ENDBRANCH  21  22
ENDBRANCH   2  20
TORSDOF 11
ENDMDL
MODEL 3
REMARK VINA RESULT:      -8.1      2.887     10.491
REMARK  11 active torsions:
REMARK  status: ('A' for Active; 'I' for Inactive)
REMARK    1  A    between atoms: C_4  and  C_5 
REMARK       I    between atoms: C_5  and  N_6 
REMARK    2  A    between atoms: N_6  and  C_7 
REMARK    3  A    between atoms: C_7  and  C_8 
REMARK    4  A    between atoms: C_8  and  C_9 
REMARK    5  A    between atoms: C_9  and  C_10 
REMARK    6  A    between atoms: C_10  and  C_11 
REMARK    7  A    between atoms: C_11  and  C_12 
REMARK       I    between atoms: C_12  and  N_13 
REMARK    8  A    between atoms: N_13  and  N_14 
REMARK    9  A    between atoms: C_15  and  C_16 
REMARK   10  A    between atoms: C_17  and  O_18 
REMARK   11  A    between atoms: C_20  and  O_21 
ROOT
HETATM    1  C   UNL     1      -1.508   4.861 -32.301  1.00  0.00     0.237 C 
HETATM    2  N   UNL     1      -1.520   4.700 -30.921  1.00  0.00    -0.247 N 
HETATM    3  O   UNL     1      -0.705   5.562 -32.909  1.00  0.00    -0.272 OA
HETATM    4  H   UNL     1      -2.211   4.111 -30.469  1.00  0.00     0.192 HD
ENDROOT
BRANCH   1   5
HETATM    5  C   UNL     1      -2.601   4.062 -32.988  1.00  0.00     0.105 C 
BRANCH   5   6
HETATM    6  C   UNL     1      -3.614   3.517 -31.983  1.00  0.00     0.009 C 
BRANCH   6   7
HETATM    7  C   UNL     1      -3.994   2.066 -32.278  1.00  0.00     0.002 C 
BRANCH   7   8
HETATM    8  C   UNL     1      -5.142   1.613 -31.375  1.00  0.00     0.020 C 
BRANCH   8   9
HETATM    9  C   UNL     1      -6.323   1.081 -32.183  1.00  0.00     0.123 C 
BRANCH   9  10
HETATM   10  N   UNL     1      -6.114  -0.305 -32.555  1.00  0.00    -0.357 N 
HETATM   11  C   UNL     1      -6.100  -0.703 -33.878  1.00  0.00     0.251 C 
HETATM   12  O   UNL     1      -6.314   0.071 -34.806  1.00  0.00    -0.268 OA
HETATM   13  H   UNL     1      -5.757  -0.923 -31.844  1.00  0.00     0.162 HD
BRANCH  11  14
HETATM   14  C   UNL     1      -5.784  -2.137 -34.158  1.00  0.00     0.032 A 
HETATM   15  C   UNL     1      -4.514  -2.694 -33.952  1.00  0.00     0.017 A 
HETATM   16  C   UNL     1      -4.284  -4.045 -34.230  1.00  0.00     0.001 A 
HETATM   17  C   UNL     1      -5.320  -4.850 -34.701  1.00  0.00     0.000 A 
HETATM   18  C   UNL     1      -6.590  -4.310 -34.893  1.00  0.00     0.001 A 
HETATM   19  C   UNL     1      -6.821  -2.959 -34.623  1.00  0.00     0.017 A 
ENDBRANCH  11  14
ENDBRANCH   9  10
ENDBRANCH   8   9
ENDBRANCH   7   8
ENDBRANCH   6   7
ENDBRANCH   5   6
ENDBRANCH   1   5
BRANCH   2  20
HETATM   20  N   UNL     1      -0.594   5.359 -30.179  1.00  0.00    -0.184 NA
HETATM   21  C   UNL     1      -1.037   6.096 -29.213  1.00  0.00     0.153 C 
BRANCH  21  22
HETATM   22  C   UNL     1      -0.095   6.850 -28.360  1.00  0.00     0.016 A 
HETATM   23  C   UNL     1       0.090   6.544 -27.004  1.00  0.00     0.080 A 
HETATM   24  C   UNL     1       0.989   7.275 -26.232  1.00  0.00     0.074 A 
HETATM   25  C   UNL     1       1.702   8.315 -26.820  1.00  0.00     0.068 A 
HETATM   26  C   UNL     1       1.528   8.632 -28.165  1.00  0.00     0.037 A 
HETATM   27  C   UNL     1       0.628   7.898 -28.941  1.00  0.00     0.018 A 
BRANCH  23  28
HETATM   28  O   UNL     1      -0.576   5.536 -26.360  1.00  0.00    -0.360 OA
HETATM   29  H   UNL     1      -1.545   5.709 -26.422  1.00  0.00     0.217 HD
ENDBRANCH  23  28
BRANCH  25  30
HETATM   30  O   UNL     1       2.593   9.057 -26.103  1.00  0.00    -0.361 OA
HETATM   31  H   UNL     1       2.097   9.645 -25.508  1.00  0.00     0.217 HD
ENDBRANCH  25  30
ENDBRANCH  21  22
ENDBRANCH   2  20
TORSDOF 11
ENDMDL
MODEL 4
REMARK VINA RESULT:      -8.0      2.371      3.757
REMARK  11 active torsions:
REMARK  status: ('A' for Active; 'I' for Inactive)
REMARK    1  A    between atoms: C_4  and  C_5 
REMARK       I    between atoms: C_5  and  N_6 
REMARK    2  A    between atoms: N_6  and  C_7 
REMARK    3  A    between atoms: C_7  and  C_8 
REMARK    4  A    between atoms: C_8  and  C_9 
REMARK    5  A    between atoms: C_9  and  C_10 
REMARK    6  A    between atoms: C_10  and  C_11 
REMARK    7  A    between atoms: C_11  and  C_12 
REMARK       I    between atoms: C_12  and  N_13 
REMARK    8  A    between atoms: N_13  and  N_14 
REMARK    9  A    between atoms: C_15  and  C_16 
REMARK   10  A    between atoms: C_17  and  O_18 
REMARK   11  A    between atoms: C_20  and  O_21 
ROOT
HETATM    1  C   UNL     1      -7.175   2.116 -32.649  1.00  0.00     0.237 C 
HETATM    2  N   UNL     1      -6.333   1.666 -33.658  1.00  0.00    -0.247 N 
HETATM    3  O   UNL     1      -7.532   1.436 -31.691  1.00  0.00    -0.272 OA
HETATM    4  H   UNL     1      -6.073   2.269 -34.431  1.00  0.00     0.192 HD
ENDROOT
BRANCH   1   5
HETATM    5  C   UNL     1      -7.607   3.557 -32.853  1.00  0.00     0.105 C 
BRANCH   5   6
HETATM    6  C   UNL     1      -8.233   4.140 -31.588  1.00  0.00     0.009 C 
BRANCH   6   7
HETATM    7  C   UNL     1      -7.240   4.984 -30.790  1.00  0.00     0.002 C 
BRANCH   7   8
HETATM    8  C   UNL     1      -6.837   4.270 -29.499  1.00  0.00     0.020 C 
BRANCH   8   9
HETATM    9  C   UNL     1      -5.465   3.611 -29.620  1.00  0.00     0.123 C 
BRANCH   9  10
HETATM   10  N   UNL     1      -4.672   4.250 -30.653  1.00  0.00    -0.357 N 
HETATM   11  C   UNL     1      -3.965   3.511 -31.581  1.00  0.00     0.251 C 
HETATM   12  O   UNL     1      -3.921   2.285 -31.558  1.00  0.00    -0.268 OA
HETATM   13  H   UNL     1      -4.831   5.233 -30.813  1.00  0.00     0.162 HD
BRANCH  11  14
HETATM   14  C   UNL     1      -3.256   4.265 -32.660  1.00  0.00     0.032 A 
HETATM   15  C   UNL     1      -3.874   4.649 -33.857  1.00  0.00     0.017 A 
HETATM   16  C   UNL     1      -3.155   5.357 -34.825  1.00  0.00     0.001 A 
HETATM   17  C   UNL     1      -1.823   5.698 -34.600  1.00  0.00     0.000 A 
HETATM   18  C   UNL     1      -1.204   5.335 -33.406  1.00  0.00     0.001 A 
HETATM   19  C   UNL     1      -1.917   4.621 -32.440  1.00  0.00     0.017 A 
ENDBRANCH  11  14
ENDBRANCH   9  10
ENDBRANCH   8   9
ENDBRANCH   7   8
ENDBRANCH   6   7
ENDBRANCH   5   6
ENDBRANCH   1   5
BRANCH   2  20
HETATM   20  N   UNL     1      -5.869   0.391 -33.601  1.00  0.00    -0.184 NA
HETATM   21  C   UNL     1      -6.343  -0.442 -34.470  1.00  0.00     0.153 C 
BRANCH  21  22
HETATM   22  C   UNL     1      -5.894  -1.849 -34.473  1.00  0.00     0.016 A 
HETATM   23  C   UNL     1      -4.599  -2.217 -34.080  1.00  0.00     0.080 A 
HETATM   24  C   UNL     1      -4.210  -3.555 -34.094  1.00  0.00     0.074 A 
HETATM   25  C   UNL     1      -5.122  -4.523 -34.502  1.00  0.00     0.068 A 
HETATM   26  C   UNL     1      -6.411  -4.173 -34.897  1.00  0.00     0.037 A 
HETATM   27  C   UNL     1      -6.801  -2.832 -34.882  1.00  0.00     0.018 A 
BRANCH  23  28
HETATM   28  O   UNL     1      -3.651  -1.320 -33.667  1.00  0.00    -0.360 OA
HETATM   29  H   UNL     1      -2.759  -1.693 -33.858  1.00  0.00     0.217 HD
ENDBRANCH  23  28
BRANCH  25  30
HETATM   30  O   UNL     1      -4.787  -5.845 -34.531  1.00  0.00    -0.361 OA
HETATM   31  H   UNL     1      -3.834  -5.917 -34.713  1.00  0.00     0.217 HD
ENDBRANCH  25  30
ENDBRANCH  21  22
ENDBRANCH   2  20
TORSDOF 11
ENDMDL
MODEL 5
REMARK VINA RESULT:      -7.9      5.168      8.199
REMARK  11 active torsions:
REMARK  status: ('A' for Active; 'I' for Inactive)
REMARK    1  A    between atoms: C_4  and  C_5 
REMARK       I    between atoms: C_5  and  N_6 
REMARK    2  A    between atoms: N_6  and  C_7 
REMARK    3  A    between atoms: C_7  and  C_8 
REMARK    4  A    between atoms: C_8  and  C_9 
REMARK    5  A    between atoms: C_9  and  C_10 
REMARK    6  A    between atoms: C_10  and  C_11 
REMARK    7  A    between atoms: C_11  and  C_12 
REMARK       I    between atoms: C_12  and  N_13 
REMARK    8  A    between atoms: N_13  and  N_14 
REMARK    9  A    between atoms: C_15  and  C_16 
REMARK   10  A    between atoms: C_17  and  O_18 
REMARK   11  A    between atoms: C_20  and  O_21 
ROOT
HETATM    1  C   UNL     1      -6.864   3.712 -33.790  1.00  0.00     0.237 C 
HETATM    2  N   UNL     1      -7.593   2.585 -33.431  1.00  0.00    -0.247 N 
HETATM    3  O   UNL     1      -7.361   4.752 -34.212  1.00  0.00    -0.272 OA
HETATM    4  H   UNL     1      -7.130   1.748 -33.092  1.00  0.00     0.192 HD
ENDROOT
BRANCH   1   5
HETATM    5  C   UNL     1      -5.370   3.523 -33.596  1.00  0.00     0.105 C 
BRANCH   5   6
HETATM    6  C   UNL     1      -4.889   4.156 -32.292  1.00  0.00     0.009 C 
BRANCH   6   7
HETATM    7  C   UNL     1      -4.548   3.108 -31.234  1.00  0.00     0.002 C 
BRANCH   7   8
HETATM    8  C   UNL     1      -5.617   3.075 -30.140  1.00  0.00     0.020 C 
BRANCH   8   9
HETATM    9  C   UNL     1      -5.961   1.647 -29.727  1.00  0.00     0.123 C 
BRANCH   9  10
HETATM   10  N   UNL     1      -5.647   0.710 -30.788  1.00  0.00    -0.357 N 
HETATM   11  C   UNL     1      -6.641   0.087 -31.518  1.00  0.00     0.251 C 
HETATM   12  O   UNL     1      -7.835   0.244 -31.282  1.00  0.00    -0.268 OA
HETATM   13  H   UNL     1      -4.698   0.699 -31.126  1.00  0.00     0.162 HD
BRANCH  11  14
HETATM   14  C   UNL     1      -6.211  -0.789 -32.651  1.00  0.00     0.032 A 
HETATM   15  C   UNL     1      -7.082  -1.206 -33.668  1.00  0.00     0.017 A 
HETATM   16  C   UNL     1      -6.615  -2.022 -34.703  1.00  0.00     0.001 A 
HETATM   17  C   UNL     1      -5.279  -2.415 -34.738  1.00  0.00     0.000 A 
HETATM   18  C   UNL     1      -4.402  -1.992 -33.742  1.00  0.00     0.001 A 
HETATM   19  C   UNL     1      -4.866  -1.182 -32.703  1.00  0.00     0.017 A 
ENDBRANCH  11  14
ENDBRANCH   9  10
ENDBRANCH   8   9
ENDBRANCH   7   8
ENDBRANCH   6   7
ENDBRANCH   5   6
ENDBRANCH   1   5
BRANCH   2  20
HETATM   20  N   UNL     1      -8.945   2.615 -33.554  1.00  0.00    -0.184 NA
HETATM   21  C   UNL     1      -9.507   1.569 -34.067  1.00  0.00     0.153 C 
BRANCH  21  22
HETATM   22  C   UNL     1     -10.974   1.524 -34.240  1.00  0.00     0.016 A 
HETATM   23  C   UNL     1     -11.659   2.456 -35.032  1.00  0.00     0.080 A 
HETATM   24  C   UNL     1     -13.043   2.381 -35.174  1.00  0.00     0.074 A 
HETATM   25  C   UNL     1     -13.739   1.370 -34.519  1.00  0.00     0.068 A 
HETATM   26  C   UNL     1     -13.073   0.438 -33.728  1.00  0.00     0.037 A 
HETATM   27  C   UNL     1     -11.685   0.512 -33.586  1.00  0.00     0.018 A 
BRANCH  23  28
HETATM   28  O   UNL     1     -11.040   3.476 -35.704  1.00  0.00    -0.360 OA
HETATM   29  H   UNL     1     -10.169   3.153 -36.034  1.00  0.00     0.217 HD
ENDBRANCH  23  28
BRANCH  25  30
HETATM   30  O   UNL     1     -15.094   1.257 -34.629  1.00  0.00    -0.361 OA
HETATM   31  H   UNL     1     -15.498   2.086 -34.323  1.00  0.00     0.217 HD
ENDBRANCH  25  30
ENDBRANCH  21  22
ENDBRANCH   2  20
TORSDOF 11
ENDMDL
MODEL 6
REMARK VINA RESULT:      -7.9      1.636      1.925
REMARK  11 active torsions:
REMARK  status: ('A' for Active; 'I' for Inactive)
REMARK    1  A    between atoms: C_4  and  C_5 
REMARK       I    between atoms: C_5  and  N_6 
REMARK    2  A    between atoms: N_6  and  C_7 
REMARK    3  A    between atoms: C_7  and  C_8 
REMARK    4  A    between atoms: C_8  and  C_9 
REMARK    5  A    between atoms: C_9  and  C_10 
REMARK    6  A    between atoms: C_10  and  C_11 
REMARK    7  A    between atoms: C_11  and  C_12 
REMARK       I    between atoms: C_12  and  N_13 
REMARK    8  A    between atoms: N_13  and  N_14 
REMARK    9  A    between atoms: C_15  and  C_16 
REMARK   10  A    between atoms: C_17  and  O_18 
REMARK   11  A    between atoms: C_20  and  O_21 
ROOT
HETATM    1  C   UNL     1      -6.001   2.877 -32.634  1.00  0.00     0.237 C 
HETATM    2  N   UNL     1      -5.268   1.738 -32.325  1.00  0.00    -0.247 N 
HETATM    3  O   UNL     1      -7.025   2.877 -33.311  1.00  0.00    -0.272 OA
HETATM    4  H   UNL     1      -4.424   1.795 -31.764  1.00  0.00     0.192 HD
ENDROOT
BRANCH   1   5
HETATM    5  C   UNL     1      -5.402   4.135 -32.032  1.00  0.00     0.105 C 
BRANCH   5   6
HETATM    6  C   UNL     1      -4.755   5.015 -33.099  1.00  0.00     0.009 C 
BRANCH   6   7
HETATM    7  C   UNL     1      -3.501   4.375 -33.691  1.00  0.00     0.002 C 
BRANCH   7   8
HETATM    8  C   UNL     1      -3.004   5.173 -34.898  1.00  0.00     0.020 C 
BRANCH   8   9
HETATM    9  C   UNL     1      -1.515   5.492 -34.793  1.00  0.00     0.123 C 
BRANCH   9  10
HETATM   10  N   UNL     1      -1.157   5.859 -33.436  1.00  0.00    -0.357 N 
HETATM   11  C   UNL     1      -1.257   7.164 -32.992  1.00  0.00     0.251 C 
HETATM   12  O   UNL     1      -1.599   8.089 -33.722  1.00  0.00    -0.268 OA
HETATM   13  H   UNL     1      -1.054   5.111 -32.769  1.00  0.00     0.162 HD
BRANCH  11  14
HETATM   14  C   UNL     1      -0.954   7.421 -31.551  1.00  0.00     0.032 A 
HETATM   15  C   UNL     1      -1.837   8.089 -30.691  1.00  0.00     0.017 A 
HETATM   16  C   UNL     1      -1.495   8.294 -29.351  1.00  0.00     0.001 A 
HETATM   17  C   UNL     1      -0.280   7.823 -28.857  1.00  0.00     0.000 A 
HETATM   18  C   UNL     1       0.597   7.143 -29.699  1.00  0.00     0.001 A 
HETATM   19  C   UNL     1       0.262   6.942 -31.040  1.00  0.00     0.017 A 
ENDBRANCH  11  14
ENDBRANCH   9  10
ENDBRANCH   8   9
ENDBRANCH   7   8
ENDBRANCH   6   7
ENDBRANCH   5   6
ENDBRANCH   1   5
BRANCH   2  20
HETATM   20  N   UNL     1      -5.691   0.539 -32.801  1.00  0.00    -0.184 NA
HETATM   21  C   UNL     1      -4.783  -0.261 -33.257  1.00  0.00     0.153 C 
BRANCH  21  22
HETATM   22  C   UNL     1      -5.162  -1.584 -33.797  1.00  0.00     0.016 A 
HETATM   23  C   UNL     1      -6.451  -1.849 -34.280  1.00  0.00     0.080 A 
HETATM   24  C   UNL     1      -6.772  -3.107 -34.784  1.00  0.00     0.074 A 
HETATM   25  C   UNL     1      -5.797  -4.100 -34.802  1.00  0.00     0.068 A 
HETATM   26  C   UNL     1      -4.513  -3.852 -34.325  1.00  0.00     0.037 A 
HETATM   27  C   UNL     1      -4.191  -2.590 -33.820  1.00  0.00     0.018 A 
BRANCH  23  28
HETATM   28  O   UNL     1      -7.458  -0.921 -34.293  1.00  0.00    -0.360 OA
HETATM   29  H   UNL     1      -7.059  -0.021 -34.240  1.00  0.00     0.217 HD
ENDBRANCH  23  28
BRANCH  25  30
HETATM   30  O   UNL     1      -6.065  -5.346 -35.287  1.00  0.00    -0.361 OA
HETATM   31  H   UNL     1      -5.771  -6.001 -34.632  1.00  0.00     0.217 HD
ENDBRANCH  25  30
ENDBRANCH  21  22
ENDBRANCH   2  20
TORSDOF 11
ENDMDL
MODEL 7
REMARK VINA RESULT:      -7.8      1.903      2.586
REMARK  11 active torsions:
REMARK  status: ('A' for Active; 'I' for Inactive)
REMARK    1  A    between atoms: C_4  and  C_5 
REMARK       I    between atoms: C_5  and  N_6 
REMARK    2  A    between atoms: N_6  and  C_7 
REMARK    3  A    between atoms: C_7  and  C_8 
REMARK    4  A    between atoms: C_8  and  C_9 
REMARK    5  A    between atoms: C_9  and  C_10 
REMARK    6  A    between atoms: C_10  and  C_11 
REMARK    7  A    between atoms: C_11  and  C_12 
REMARK       I    between atoms: C_12  and  N_13 
REMARK    8  A    between atoms: N_13  and  N_14 
REMARK    9  A    between atoms: C_15  and  C_16 
REMARK   10  A    between atoms: C_17  and  O_18 
REMARK   11  A    between atoms: C_20  and  O_21 
ROOT
HETATM    1  C   UNL     1      -4.570   2.563 -32.216  1.00  0.00     0.237 C 
HETATM    2  N   UNL     1      -3.806   1.428 -31.977  1.00  0.00    -0.247 N 
HETATM    3  O   UNL     1      -5.597   2.577 -32.888  1.00  0.00    -0.272 OA
HETATM    4  H   UNL     1      -2.962   1.474 -31.417  1.00  0.00     0.192 HD
ENDROOT
BRANCH   1   5
HETATM    5  C   UNL     1      -4.000   3.799 -31.544  1.00  0.00     0.105 C 
BRANCH   5   6
HETATM    6  C   UNL     1      -2.474   3.818 -31.605  1.00  0.00     0.009 C 
BRANCH   6   7
HETATM    7  C   UNL     1      -1.949   4.872 -32.579  1.00  0.00     0.002 C 
BRANCH   7   8
HETATM    8  C   UNL     1      -2.688   6.198 -32.391  1.00  0.00     0.020 C 
BRANCH   8   9
HETATM    9  C   UNL     1      -1.724   7.353 -32.134  1.00  0.00     0.123 C 
BRANCH   9  10
HETATM   10  N   UNL     1      -1.315   7.388 -30.743  1.00  0.00    -0.357 N 
HETATM   11  C   UNL     1      -0.036   7.035 -30.358  1.00  0.00     0.251 C 
HETATM   12  O   UNL     1       0.806   6.624 -31.150  1.00  0.00    -0.268 OA
HETATM   13  H   UNL     1      -1.910   7.889 -30.102  1.00  0.00     0.162 HD
BRANCH  11  14
HETATM   14  C   UNL     1       0.312   7.197 -28.913  1.00  0.00     0.032 A 
HETATM   15  C   UNL     1      -0.171   6.344 -27.910  1.00  0.00     0.017 A 
HETATM   16  C   UNL     1       0.196   6.547 -26.576  1.00  0.00     0.001 A 
HETATM   17  C   UNL     1       1.055   7.590 -26.236  1.00  0.00     0.000 A 
HETATM   18  C   UNL     1       1.554   8.433 -27.227  1.00  0.00     0.001 A 
HETATM   19  C   UNL     1       1.184   8.237 -28.560  1.00  0.00     0.017 A 
ENDBRANCH  11  14
ENDBRANCH   9  10
ENDBRANCH   8   9
ENDBRANCH   7   8
ENDBRANCH   6   7
ENDBRANCH   5   6
ENDBRANCH   1   5
BRANCH   2  20
HETATM   20  N   UNL     1      -4.202   0.248 -32.521  1.00  0.00    -0.184 NA
HETATM   21  C   UNL     1      -3.393  -0.753 -32.395  1.00  0.00     0.153 C 
BRANCH  21  22
HETATM   22  C   UNL     1      -3.747  -2.071 -32.962  1.00  0.00     0.016 A 
HETATM   23  C   UNL     1      -3.266  -3.269 -32.417  1.00  0.00     0.080 A 
HETATM   24  C   UNL     1      -3.623  -4.493 -32.977  1.00  0.00     0.074 A 
HETATM   25  C   UNL     1      -4.463  -4.514 -34.086  1.00  0.00     0.068 A 
HETATM   26  C   UNL     1      -4.948  -3.332 -34.640  1.00  0.00     0.037 A 
HETATM   27  C   UNL     1      -4.591  -2.104 -34.078  1.00  0.00     0.018 A 
BRANCH  23  28
HETATM   28  O   UNL     1      -2.437  -3.324 -31.329  1.00  0.00    -0.360 OA
HETATM   29  H   UNL     1      -1.525  -3.536 -31.637  1.00  0.00     0.217 HD
ENDBRANCH  23  28
BRANCH  25  30
HETATM   30  O   UNL     1      -4.839  -5.689 -34.667  1.00  0.00    -0.361 OA
HETATM   31  H   UNL     1      -4.914  -6.366 -33.974  1.00  0.00     0.217 HD
ENDBRANCH  25  30
ENDBRANCH  21  22
ENDBRANCH   2  20
TORSDOF 11
ENDMDL
MODEL 8
REMARK VINA RESULT:      -7.7      2.382      3.374
REMARK  11 active torsions:
REMARK  status: ('A' for Active; 'I' for Inactive)
REMARK    1  A    between atoms: C_4  and  C_5 
REMARK       I    between atoms: C_5  and  N_6 
REMARK    2  A    between atoms: N_6  and  C_7 
REMARK    3  A    between atoms: C_7  and  C_8 
REMARK    4  A    between atoms: C_8  and  C_9 
REMARK    5  A    between atoms: C_9  and  C_10 
REMARK    6  A    between atoms: C_10  and  C_11 
REMARK    7  A    between atoms: C_11  and  C_12 
REMARK       I    between atoms: C_12  and  N_13 
REMARK    8  A    between atoms: N_13  and  N_14 
REMARK    9  A    between atoms: C_15  and  C_16 
REMARK   10  A    between atoms: C_17  and  O_18 
REMARK   11  A    between atoms: C_20  and  O_21 
ROOT
HETATM    1  C   UNL     1      -4.022   2.532 -32.378  1.00  0.00     0.237 C 
HETATM    2  N   UNL     1      -3.662   1.214 -32.123  1.00  0.00    -0.247 N 
HETATM    3  O   UNL     1      -5.037   2.868 -32.980  1.00  0.00    -0.272 OA
HETATM    4  H   UNL     1      -2.807   0.992 -31.624  1.00  0.00     0.192 HD
ENDROOT
BRANCH   1   5
HETATM    5  C   UNL     1      -3.019   3.525 -31.820  1.00  0.00     0.105 C 
BRANCH   5   6
HETATM    6  C   UNL     1      -2.923   4.776 -32.691  1.00  0.00     0.009 C 
BRANCH   6   7
HETATM    7  C   UNL     1      -1.507   5.003 -33.220  1.00  0.00     0.002 C 
BRANCH   7   8
HETATM    8  C   UNL     1      -0.826   6.148 -32.468  1.00  0.00     0.020 C 
BRANCH   8   9
HETATM    9  C   UNL     1      -0.047   5.646 -31.256  1.00  0.00     0.123 C 
BRANCH   9  10
HETATM   10  N   UNL     1       0.028   6.666 -30.228  1.00  0.00    -0.357 N 
HETATM   11  C   UNL     1       0.497   6.380 -28.960  1.00  0.00     0.251 C 
HETATM   12  O   UNL     1       0.824   5.250 -28.613  1.00  0.00    -0.268 OA
HETATM   13  H   UNL     1      -0.054   7.625 -30.526  1.00  0.00     0.162 HD
BRANCH  11  14
HETATM   14  C   UNL     1       0.623   7.522 -28.004  1.00  0.00     0.032 A 
HETATM   15  C   UNL     1       1.578   7.559 -26.978  1.00  0.00     0.017 A 
HETATM   16  C   UNL     1       1.646   8.660 -26.118  1.00  0.00     0.001 A 
HETATM   17  C   UNL     1       0.775   9.735 -26.285  1.00  0.00     0.000 A 
HETATM   18  C   UNL     1      -0.166   9.715 -27.312  1.00  0.00     0.001 A 
HETATM   19  C   UNL     1      -0.242   8.614 -28.168  1.00  0.00     0.017 A 
ENDBRANCH  11  14
ENDBRANCH   9  10
ENDBRANCH   8   9
ENDBRANCH   7   8
ENDBRANCH   6   7
ENDBRANCH   5   6
ENDBRANCH   1   5
BRANCH   2  20
HETATM   20  N   UNL     1      -4.472   0.219 -32.567  1.00  0.00    -0.184 NA
HETATM   21  C   UNL     1      -3.927  -0.688 -33.312  1.00  0.00     0.153 C 
BRANCH  21  22
HETATM   22  C   UNL     1      -4.740  -1.802 -33.840  1.00  0.00     0.016 A 
HETATM   23  C   UNL     1      -6.088  -1.639 -34.193  1.00  0.00     0.080 A 
HETATM   24  C   UNL     1      -6.823  -2.713 -34.690  1.00  0.00     0.074 A 
HETATM   25  C   UNL     1      -6.205  -3.951 -34.832  1.00  0.00     0.068 A 
HETATM   26  C   UNL     1      -4.869  -4.130 -34.485  1.00  0.00     0.037 A 
HETATM   27  C   UNL     1      -4.131  -3.053 -33.987  1.00  0.00     0.018 A 
BRANCH  23  28
HETATM   28  O   UNL     1      -6.759  -0.451 -34.080  1.00  0.00    -0.360 OA
HETATM   29  H   UNL     1      -7.688  -0.638 -33.809  1.00  0.00     0.217 HD
ENDBRANCH  23  28
BRANCH  25  30
HETATM   30  O   UNL     1      -6.885  -5.030 -35.315  1.00  0.00    -0.361 OA
HETATM   31  H   UNL     1      -7.072  -4.881 -36.257  1.00  0.00     0.217 HD
ENDBRANCH  25  30
ENDBRANCH  21  22
ENDBRANCH   2  20
TORSDOF 11
ENDMDL
MODEL 9
REMARK VINA RESULT:      -7.6      2.375      9.843
REMARK  11 active torsions:
REMARK  status: ('A' for Active; 'I' for Inactive)
REMARK    1  A    between atoms: C_4  and  C_5 
REMARK       I    between atoms: C_5  and  N_6 
REMARK    2  A    between atoms: N_6  and  C_7 
REMARK    3  A    between atoms: C_7  and  C_8 
REMARK    4  A    between atoms: C_8  and  C_9 
REMARK    5  A    between atoms: C_9  and  C_10 
REMARK    6  A    between atoms: C_10  and  C_11 
REMARK    7  A    between atoms: C_11  and  C_12 
REMARK       I    between atoms: C_12  and  N_13 
REMARK    8  A    between atoms: N_13  and  N_14 
REMARK    9  A    between atoms: C_15  and  C_16 
REMARK   10  A    between atoms: C_17  and  O_18 
REMARK   11  A    between atoms: C_20  and  O_21 
ROOT
HETATM    1  C   UNL     1      -3.863   5.691 -33.716  1.00  0.00     0.237 C 
HETATM    2  N   UNL     1      -3.968   5.532 -32.340  1.00  0.00    -0.247 N 
HETATM    3  O   UNL     1      -3.050   6.426 -34.267  1.00  0.00    -0.272 OA
HETATM    4  H   UNL     1      -4.663   4.913 -31.936  1.00  0.00     0.192 HD
ENDROOT
BRANCH   1   5
HETATM    5  C   UNL     1      -4.866   4.842 -34.476  1.00  0.00     0.105 C 
BRANCH   5   6
HETATM    6  C   UNL     1      -5.914   4.239 -33.542  1.00  0.00     0.009 C 
BRANCH   6   7
HETATM    7  C   UNL     1      -6.336   2.837 -33.979  1.00  0.00     0.002 C 
BRANCH   7   8
HETATM    8  C   UNL     1      -6.447   1.904 -32.772  1.00  0.00     0.020 C 
BRANCH   8   9
HETATM    9  C   UNL     1      -7.557   0.872 -32.953  1.00  0.00     0.123 C 
BRANCH   9  10
HETATM   10  N   UNL     1      -7.005  -0.461 -33.110  1.00  0.00    -0.357 N 
HETATM   11  C   UNL     1      -6.689  -0.968 -34.356  1.00  0.00     0.251 C 
HETATM   12  O   UNL     1      -6.901  -0.354 -35.396  1.00  0.00    -0.268 OA
HETATM   13  H   UNL     1      -6.651  -0.912 -32.282  1.00  0.00     0.162 HD
BRANCH  11  14
HETATM   14  C   UNL     1      -6.039  -2.314 -34.400  1.00  0.00     0.032 A 
HETATM   15  C   UNL     1      -4.697  -2.527 -34.055  1.00  0.00     0.017 A 
HETATM   16  C   UNL     1      -4.150  -3.813 -34.115  1.00  0.00     0.001 A 
HETATM   17  C   UNL     1      -4.939  -4.894 -34.504  1.00  0.00     0.000 A 
HETATM   18  C   UNL     1      -6.279  -4.695 -34.832  1.00  0.00     0.001 A 
HETATM   19  C   UNL     1      -6.827  -3.411 -34.781  1.00  0.00     0.017 A 
ENDBRANCH  11  14
ENDBRANCH   9  10
ENDBRANCH   8   9
ENDBRANCH   7   8
ENDBRANCH   6   7
ENDBRANCH   5   6
ENDBRANCH   1   5
BRANCH   2  20
HETATM   20  N   UNL     1      -3.129   6.234 -31.535  1.00  0.00    -0.184 NA
HETATM   21  C   UNL     1      -2.125   5.590 -31.035  1.00  0.00     0.153 C 
BRANCH  21  22
HETATM   22  C   UNL     1      -1.168   6.280 -30.146  1.00  0.00     0.016 A 
HETATM   23  C   UNL     1      -0.058   5.624 -29.595  1.00  0.00     0.080 A 
HETATM   24  C   UNL     1       0.825   6.307 -28.763  1.00  0.00     0.074 A 
HETATM   25  C   UNL     1       0.593   7.650 -28.483  1.00  0.00     0.068 A 
HETATM   26  C   UNL     1      -0.506   8.315 -29.020  1.00  0.00     0.037 A 
HETATM   27  C   UNL     1      -1.391   7.630 -29.856  1.00  0.00     0.018 A 
BRANCH  23  28
HETATM   28  O   UNL     1       0.232   4.306 -29.828  1.00  0.00    -0.360 OA
HETATM   29  H   UNL     1       0.231   4.150 -30.801  1.00  0.00     0.217 HD
ENDBRANCH  23  28
BRANCH  25  30
HETATM   30  O   UNL     1       1.430   8.360 -27.673  1.00  0.00    -0.361 OA
HETATM   31  H   UNL     1       1.553   7.864 -26.846  1.00  0.00     0.217 HD
ENDBRANCH  25  30
ENDBRANCH  21  22
ENDBRANCH   2  20
TORSDOF 11
ENDMDL
MODEL 10
REMARK VINA RESULT:      -7.5      4.424      7.347
REMARK  11 active torsions:
REMARK  status: ('A' for Active; 'I' for Inactive)
REMARK    1  A    between atoms: C_4  and  C_5 
REMARK       I    between atoms: C_5  and  N_6 
REMARK    2  A    between atoms: N_6  and  C_7 
REMARK    3  A    between atoms: C_7  and  C_8 
REMARK    4  A    between atoms: C_8  and  C_9 
REMARK    5  A    between atoms: C_9  and  C_10 
REMARK    6  A    between atoms: C_10  and  C_11 
REMARK    7  A    between atoms: C_11  and  C_12 
REMARK       I    between atoms: C_12  and  N_13 
REMARK    8  A    between atoms: N_13  and  N_14 
REMARK    9  A    between atoms: C_15  and  C_16 
REMARK   10  A    between atoms: C_17  and  O_18 
REMARK   11  A    between atoms: C_20  and  O_21 
ROOT
HETATM    1  C   UNL     1      -5.793   5.482 -33.497  1.00  0.00     0.237 C 
HETATM    2  N   UNL     1      -7.071   5.402 -32.957  1.00  0.00    -0.247 N 
HETATM    3  O   UNL     1      -5.451   4.945 -34.546  1.00  0.00    -0.272 OA
HETATM    4  H   UNL     1      -7.299   5.862 -32.082  1.00  0.00     0.192 HD
ENDROOT
BRANCH   1   5
HETATM    5  C   UNL     1      -4.855   6.320 -32.646  1.00  0.00     0.105 C 
BRANCH   5   6
HETATM    6  C   UNL     1      -3.420   6.258 -33.165  1.00  0.00     0.009 C 
BRANCH   6   7
HETATM    7  C   UNL     1      -2.504   5.467 -32.233  1.00  0.00     0.002 C 
BRANCH   7   8
HETATM    8  C   UNL     1      -2.416   4.004 -32.673  1.00  0.00     0.020 C 
BRANCH   8   9
HETATM    9  C   UNL     1      -3.221   3.087 -31.757  1.00  0.00     0.123 C 
BRANCH   9  10
HETATM   10  N   UNL     1      -3.952   2.097 -32.525  1.00  0.00    -0.357 N 
HETATM   11  C   UNL     1      -5.326   1.982 -32.431  1.00  0.00     0.251 C 
HETATM   12  O   UNL     1      -5.998   2.664 -31.664  1.00  0.00    -0.268 OA
HETATM   13  H   UNL     1      -3.464   1.656 -33.288  1.00  0.00     0.162 HD
BRANCH  11  14
HETATM   14  C   UNL     1      -5.992   0.995 -33.335  1.00  0.00     0.032 A 
HETATM   15  C   UNL     1      -6.873   1.369 -34.359  1.00  0.00     0.017 A 
HETATM   16  C   UNL     1      -7.461   0.395 -35.172  1.00  0.00     0.001 A 
HETATM   17  C   UNL     1      -7.164  -0.953 -34.980  1.00  0.00     0.000 A 
HETATM   18  C   UNL     1      -6.277  -1.333 -33.975  1.00  0.00     0.001 A 
HETATM   19  C   UNL     1      -5.693  -0.364 -33.156  1.00  0.00     0.017 A 
ENDBRANCH  11  14
ENDBRANCH   9  10
ENDBRANCH   8   9
ENDBRANCH   7   8
ENDBRANCH   6   7
ENDBRANCH   5   6
ENDBRANCH   1   5
BRANCH   2  20
HETATM   20  N   UNL     1      -8.014   4.682 -33.617  1.00  0.00    -0.184 NA
HETATM   21  C   UNL     1      -8.946   4.144 -32.898  1.00  0.00     0.153 C 
BRANCH  21  22
HETATM   22  C   UNL     1     -10.007   3.340 -33.539  1.00  0.00     0.016 A 
HETATM   23  C   UNL     1     -10.363   2.067 -33.069  1.00  0.00     0.080 A 
HETATM   24  C   UNL     1     -11.371   1.339 -33.696  1.00  0.00     0.074 A 
HETATM   25  C   UNL     1     -12.021   1.889 -34.797  1.00  0.00     0.068 A 
HETATM   26  C   UNL     1     -11.678   3.150 -35.276  1.00  0.00     0.037 A 
HETATM   27  C   UNL     1     -10.668   3.881 -34.647  1.00  0.00     0.018 A 
BRANCH  23  28
HETATM   28  O   UNL     1      -9.766   1.466 -31.993  1.00  0.00    -0.360 OA
HETATM   29  H   UNL     1      -9.269   0.675 -32.309  1.00  0.00     0.217 HD
ENDBRANCH  23  28
BRANCH  25  30
HETATM   30  O   UNL     1     -13.014   1.212 -35.443  1.00  0.00    -0.361 OA
HETATM   31  H   UNL     1     -12.811   0.262 -35.411  1.00  0.00     0.217 HD
ENDBRANCH  25  30
ENDBRANCH  21  22
ENDBRANCH   2  20
TORSDOF 11
ENDMDL
