MODEL 1
REMARK VINA RESULT:      -9.0      0.000      0.000
REMARK  4 active torsions:
REMARK  status: ('A' for Active; 'I' for Inactive)
REMARK       I    between atoms: C_2  and  N_3 
REMARK    1  A    between atoms: N_3  and  C_4 
REMARK    2  A    between atoms: C_4  and  C_5 
REMARK       I    between atoms: C_5  and  N_6 
REMARK    3  A    between atoms: N_6  and  C_7 
REMARK    4  A    between atoms: C_20  and  C_21 
ROOT
HETATM    1  C   UNL     1      -4.949 -14.393 -36.732  1.00  0.00     0.272 C 
HETATM    2  N   UNL     1      -5.399 -13.134 -37.045  1.00  0.00    -0.322 N 
HETATM    3  O   UNL     1      -5.229 -15.413 -37.360  1.00  0.00    -0.266 OA
HETATM    4  H   UNL     1      -5.549 -12.515 -36.250  1.00  0.00     0.169 HD
ENDROOT
BRANCH   1   5
HETATM    5  C   UNL     1      -4.033 -14.468 -35.526  1.00  0.00     0.104 C 
HETATM    6  C   UNL     1      -2.701 -14.425 -35.751  1.00  0.00     0.046 C 
BRANCH   5   7
HETATM    7  N   UNL     1      -4.464 -14.596 -34.213  1.00  0.00    -0.323 N 
HETATM    8  C   UNL     1      -5.322 -13.795 -33.494  1.00  0.00     0.218 C 
HETATM    9  C   UNL     1      -5.653 -14.337 -32.126  1.00  0.00     0.117 C 
HETATM   10  O   UNL     1      -5.754 -12.706 -33.857  1.00  0.00    -0.274 OA
HETATM   11  H   UNL     1      -4.083 -15.391 -33.715  1.00  0.00     0.169 HD
ENDBRANCH   5   7
BRANCH   6  12
HETATM   12  C   UNL     1      -2.041 -14.237 -37.049  1.00  0.00    -0.034 A 
HETATM   13  C   UNL     1      -1.610 -15.346 -37.786  1.00  0.00     0.011 A 
HETATM   14  C   UNL     1      -0.963 -15.167 -39.010  1.00  0.00     0.001 A 
HETATM   15  C   UNL     1      -0.741 -13.881 -39.502  1.00  0.00     0.000 A 
HETATM   16  C   UNL     1      -1.168 -12.773 -38.772  1.00  0.00     0.001 A 
HETATM   17  C   UNL     1      -1.822 -12.949 -37.551  1.00  0.00     0.011 A 
ENDBRANCH   6  12
ENDBRANCH   1   5
BRANCH   2  18
HETATM   18  C   UNL     1      -5.968 -12.755 -38.274  1.00  0.00     0.035 A 
HETATM   19  C   UNL     1      -7.339 -12.869 -38.527  1.00  0.00     0.042 A 
HETATM   20  C   UNL     1      -7.859 -12.537 -39.783  1.00  0.00    -0.021 A 
HETATM   21  C   UNL     1      -9.265 -12.736 -40.051  1.00  0.00     0.010 A 
HETATM   22  C   UNL     1      -7.002 -12.063 -40.783  1.00  0.00     0.012 A 
HETATM   23  C   UNL     1     -10.053 -13.904 -39.979  1.00  0.00     0.152 A 
HETATM   24  C   UNL     1     -10.148 -11.748 -40.422  1.00  0.00     0.123 A 
HETATM   25  N   UNL     1     -11.332 -13.678 -40.297  1.00  0.00    -0.187 NA
HETATM   26  N   UNL     1     -11.363 -12.356 -40.541  1.00  0.00    -0.289 N 
HETATM   27  H   UNL     1     -12.254 -11.936 -40.783  1.00  0.00     0.188 HD
HETATM   28  C   UNL     1      -5.634 -11.954 -40.537  1.00  0.00     0.003 A 
HETATM   29  C   UNL     1      -5.115 -12.316 -39.290  1.00  0.00     0.029 A 
ENDBRANCH   2  18
TORSDOF 4
ENDMDL
MODEL 2
REMARK VINA RESULT:      -8.1     14.951     16.906
REMARK  4 active torsions:
REMARK  status: ('A' for Active; 'I' for Inactive)
REMARK       I    between atoms: C_2  and  N_3 
REMARK    1  A    between atoms: N_3  and  C_4 
REMARK    2  A    between atoms: C_4  and  C_5 
REMARK       I    between atoms: C_5  and  N_6 
REMARK    3  A    between atoms: N_6  and  C_7 
REMARK    4  A    between atoms: C_20  and  C_21 
ROOT
HETATM    1  C   UNL     1      -9.932   0.447 -33.138  1.00  0.00     0.272 C 
HETATM    2  N   UNL     1      -8.946   0.519 -34.092  1.00  0.00    -0.322 N 
HETATM    3  O   UNL     1     -10.013  -0.431 -32.280  1.00  0.00    -0.266 OA
HETATM    4  H   UNL     1      -9.235   0.912 -34.986  1.00  0.00     0.169 HD
ENDROOT
BRANCH   1   5
HETATM    5  C   UNL     1     -10.957   1.563 -33.185  1.00  0.00     0.104 C 
HETATM    6  C   UNL     1     -10.515   2.823 -32.977  1.00  0.00     0.046 C 
BRANCH   5   7
HETATM    7  N   UNL     1     -12.314   1.382 -33.407  1.00  0.00    -0.323 N 
HETATM    8  C   UNL     1     -12.995   1.264 -34.598  1.00  0.00     0.218 C 
HETATM    9  C   UNL     1     -14.460   0.943 -34.427  1.00  0.00     0.117 C 
HETATM   10  O   UNL     1     -12.522   1.455 -35.712  1.00  0.00    -0.274 OA
HETATM   11  H   UNL     1     -12.881   1.338 -32.569  1.00  0.00     0.169 HD
ENDBRANCH   5   7
BRANCH   6  12
HETATM   12  C   UNL     1      -9.120   3.238 -32.780  1.00  0.00    -0.034 A 
HETATM   13  C   UNL     1      -8.391   3.779 -33.845  1.00  0.00     0.011 A 
HETATM   14  C   UNL     1      -7.057   4.153 -33.665  1.00  0.00     0.001 A 
HETATM   15  C   UNL     1      -6.447   3.985 -32.422  1.00  0.00     0.000 A 
HETATM   16  C   UNL     1      -7.169   3.447 -31.359  1.00  0.00     0.001 A 
HETATM   17  C   UNL     1      -8.504   3.079 -31.534  1.00  0.00     0.011 A 
ENDBRANCH   6  12
ENDBRANCH   1   5
BRANCH   2  18
HETATM   18  C   UNL     1      -7.726  -0.179 -34.057  1.00  0.00     0.035 A 
HETATM   19  C   UNL     1      -6.689   0.179 -33.191  1.00  0.00     0.042 A 
HETATM   20  C   UNL     1      -5.467  -0.503 -33.227  1.00  0.00    -0.021 A 
HETATM   21  C   UNL     1      -4.379  -0.070 -32.380  1.00  0.00     0.010 A 
HETATM   22  C   UNL     1      -5.296  -1.568 -34.119  1.00  0.00     0.012 A 
HETATM   23  C   UNL     1      -3.734   1.182 -32.291  1.00  0.00     0.152 A 
HETATM   24  C   UNL     1      -3.759  -0.845 -31.428  1.00  0.00     0.123 A 
HETATM   25  N   UNL     1      -2.767   1.193 -31.366  1.00  0.00    -0.187 NA
HETATM   26  N   UNL     1      -2.820  -0.045 -30.846  1.00  0.00    -0.289 N 
HETATM   27  H   UNL     1      -2.183  -0.273 -30.090  1.00  0.00     0.188 HD
HETATM   28  C   UNL     1      -6.326  -1.923 -34.989  1.00  0.00     0.003 A 
HETATM   29  C   UNL     1      -7.533  -1.219 -34.970  1.00  0.00     0.029 A 
ENDBRANCH   2  18
TORSDOF 4
ENDMDL
MODEL 3
REMARK VINA RESULT:      -8.0     14.284     15.488
REMARK  4 active torsions:
REMARK  status: ('A' for Active; 'I' for Inactive)
REMARK       I    between atoms: C_2  and  N_3 
REMARK    1  A    between atoms: N_3  and  C_4 
REMARK    2  A    between atoms: C_4  and  C_5 
REMARK       I    between atoms: C_5  and  N_6 
REMARK    3  A    between atoms: N_6  and  C_7 
REMARK    4  A    between atoms: C_20  and  C_21 
ROOT
HETATM    1  C   UNL     1      -7.788  -0.409 -34.315  1.00  0.00     0.272 C 
HETATM    2  N   UNL     1      -8.845  -0.251 -33.452  1.00  0.00    -0.322 N 
HETATM    3  O   UNL     1      -7.625   0.237 -35.349  1.00  0.00    -0.266 OA
HETATM    4  H   UNL     1      -9.149  -1.099 -32.977  1.00  0.00     0.169 HD
ENDROOT
BRANCH   1   5
HETATM    5  C   UNL     1      -6.773  -1.457 -33.903  1.00  0.00     0.104 C 
HETATM    6  C   UNL     1      -5.863  -1.110 -32.967  1.00  0.00     0.046 C 
BRANCH   5   7
HETATM    7  N   UNL     1      -6.699  -2.738 -34.433  1.00  0.00    -0.323 N 
HETATM    8  C   UNL     1      -5.594  -3.452 -34.838  1.00  0.00     0.218 C 
HETATM    9  C   UNL     1      -5.907  -4.873 -35.239  1.00  0.00     0.117 C 
HETATM   10  O   UNL     1      -4.457  -3.007 -34.944  1.00  0.00    -0.274 OA
HETATM   11  H   UNL     1      -7.590  -3.206 -34.541  1.00  0.00     0.169 HD
ENDBRANCH   5   7
BRANCH   6  12
HETATM   12  C   UNL     1      -5.799   0.166 -32.243  1.00  0.00    -0.034 A 
HETATM   13  C   UNL     1      -6.330   0.270 -30.952  1.00  0.00     0.011 A 
HETATM   14  C   UNL     1      -6.289   1.488 -30.272  1.00  0.00     0.001 A 
HETATM   15  C   UNL     1      -5.721   2.608 -30.879  1.00  0.00     0.000 A 
HETATM   16  C   UNL     1      -5.190   2.510 -32.163  1.00  0.00     0.001 A 
HETATM   17  C   UNL     1      -5.224   1.291 -32.843  1.00  0.00     0.011 A 
ENDBRANCH   6  12
ENDBRANCH   1   5
BRANCH   2  18
HETATM   18  C   UNL     1      -9.719   0.851 -33.427  1.00  0.00     0.035 A 
HETATM   19  C   UNL     1     -11.109   0.699 -33.433  1.00  0.00     0.042 A 
HETATM   20  C   UNL     1     -11.944   1.822 -33.468  1.00  0.00    -0.021 A 
HETATM   21  C   UNL     1     -13.376   1.646 -33.553  1.00  0.00     0.010 A 
HETATM   22  C   UNL     1     -11.381   3.103 -33.469  1.00  0.00     0.012 A 
HETATM   23  C   UNL     1     -14.158   0.973 -34.516  1.00  0.00     0.152 A 
HETATM   24  C   UNL     1     -14.288   2.112 -32.634  1.00  0.00     0.123 A 
HETATM   25  N   UNL     1     -15.465   1.024 -34.238  1.00  0.00    -0.187 NA
HETATM   26  N   UNL     1     -15.511   1.704 -33.079  1.00  0.00    -0.289 N 
HETATM   27  H   UNL     1     -16.417   1.851 -32.646  1.00  0.00     0.188 HD
HETATM   28  C   UNL     1      -9.995   3.257 -33.469  1.00  0.00     0.003 A 
HETATM   29  C   UNL     1      -9.165   2.133 -33.466  1.00  0.00     0.029 A 
ENDBRANCH   2  18
TORSDOF 4
ENDMDL
MODEL 4
REMARK VINA RESULT:      -8.0      3.292      6.943
REMARK  4 active torsions:
REMARK  status: ('A' for Active; 'I' for Inactive)
REMARK       I    between atoms: C_2  and  N_3 
REMARK    1  A    between atoms: N_3  and  C_4 
REMARK    2  A    between atoms: C_4  and  C_5 
REMARK       I    between atoms: C_5  and  N_6 
REMARK    3  A    between atoms: N_6  and  C_7 
REMARK    4  A    between atoms: C_20  and  C_21 
ROOT
HETATM    1  C   UNL     1      -6.992 -13.625 -40.629  1.00  0.00     0.272 C 
HETATM    2  N   UNL     1      -5.966 -13.143 -41.405  1.00  0.00    -0.322 N 
HETATM    3  O   UNL     1      -7.298 -14.812 -40.531  1.00  0.00    -0.266 OA
HETATM    4  H   UNL     1      -6.120 -12.220 -41.805  1.00  0.00     0.169 HD
ENDROOT
BRANCH   1   5
HETATM    5  C   UNL     1      -7.756 -12.574 -39.848  1.00  0.00     0.104 C 
HETATM    6  C   UNL     1      -7.322 -12.285 -38.601  1.00  0.00     0.046 C 
BRANCH   5   7
HETATM    7  N   UNL     1      -8.878 -11.903 -40.313  1.00  0.00    -0.323 N 
HETATM    8  C   UNL     1     -10.210 -12.215 -40.154  1.00  0.00     0.218 C 
HETATM    9  C   UNL     1     -11.146 -11.164 -40.697  1.00  0.00     0.117 C 
HETATM   10  O   UNL     1     -10.646 -13.259 -39.682  1.00  0.00    -0.274 OA
HETATM   11  H   UNL     1      -8.683 -11.069 -40.853  1.00  0.00     0.169 HD
ENDBRANCH   5   7
BRANCH   6  12
HETATM   12  C   UNL     1      -6.129 -12.835 -37.943  1.00  0.00    -0.034 A 
HETATM   13  C   UNL     1      -4.865 -12.299 -38.216  1.00  0.00     0.011 A 
HETATM   14  C   UNL     1      -3.729 -12.836 -37.607  1.00  0.00     0.001 A 
HETATM   15  C   UNL     1      -3.850 -13.911 -36.728  1.00  0.00     0.000 A 
HETATM   16  C   UNL     1      -5.106 -14.449 -36.453  1.00  0.00     0.001 A 
HETATM   17  C   UNL     1      -6.245 -13.909 -37.055  1.00  0.00     0.011 A 
ENDBRANCH   6  12
ENDBRANCH   1   5
BRANCH   2  18
HETATM   18  C   UNL     1      -4.922 -13.915 -41.946  1.00  0.00     0.035 A 
HETATM   19  C   UNL     1      -3.733 -14.151 -41.250  1.00  0.00     0.042 A 
HETATM   20  C   UNL     1      -2.693 -14.875 -41.846  1.00  0.00    -0.021 A 
HETATM   21  C   UNL     1      -1.442 -15.041 -41.143  1.00  0.00     0.010 A 
HETATM   22  C   UNL     1      -2.860 -15.387 -43.137  1.00  0.00     0.012 A 
HETATM   23  C   UNL     1      -0.545 -14.079 -40.633  1.00  0.00     0.152 A 
HETATM   24  C   UNL     1      -0.881 -16.250 -40.798  1.00  0.00     0.123 A 
HETATM   25  N   UNL     1       0.511 -14.634 -40.029  1.00  0.00    -0.187 NA
HETATM   26  N   UNL     1       0.269 -15.952 -40.128  1.00  0.00    -0.289 N 
HETATM   27  H   UNL     1       0.934 -16.594 -39.709  1.00  0.00     0.188 HD
HETATM   28  C   UNL     1      -4.042 -15.149 -43.837  1.00  0.00     0.003 A 
HETATM   29  C   UNL     1      -5.065 -14.399 -43.249  1.00  0.00     0.029 A 
ENDBRANCH   2  18
TORSDOF 4
ENDMDL
MODEL 5
REMARK VINA RESULT:      -7.9     15.123     16.835
REMARK  4 active torsions:
REMARK  status: ('A' for Active; 'I' for Inactive)
REMARK       I    between atoms: C_2  and  N_3 
REMARK    1  A    between atoms: N_3  and  C_4 
REMARK    2  A    between atoms: C_4  and  C_5 
REMARK       I    between atoms: C_5  and  N_6 
REMARK    3  A    between atoms: N_6  and  C_7 
REMARK    4  A    between atoms: C_20  and  C_21 
ROOT
HETATM    1  C   UNL     1      -9.066   1.176 -32.257  1.00  0.00     0.272 C 
HETATM    2  N   UNL     1      -8.207   1.175 -33.329  1.00  0.00    -0.322 N 
HETATM    3  O   UNL     1      -9.376   0.179 -31.607  1.00  0.00    -0.266 OA
HETATM    4  H   UNL     1      -8.416   1.858 -34.055  1.00  0.00     0.169 HD
ENDROOT
BRANCH   1   5
HETATM    5  C   UNL     1      -9.631   2.533 -31.886  1.00  0.00     0.104 C 
HETATM    6  C   UNL     1      -8.775   3.448 -31.380  1.00  0.00     0.046 C 
BRANCH   5   7
HETATM    7  N   UNL     1     -10.965   2.896 -32.011  1.00  0.00    -0.323 N 
HETATM    8  C   UNL     1     -11.761   2.917 -33.134  1.00  0.00     0.218 C 
HETATM    9  C   UNL     1     -13.205   3.246 -32.845  1.00  0.00     0.117 C 
HETATM   10  O   UNL     1     -11.374   2.756 -34.286  1.00  0.00    -0.274 OA
HETATM   11  H   UNL     1     -11.409   3.192 -31.151  1.00  0.00     0.169 HD
ENDBRANCH   5   7
BRANCH   6  12
HETATM   12  C   UNL     1      -7.324   3.289 -31.218  1.00  0.00    -0.034 A 
HETATM   13  C   UNL     1      -6.447   3.843 -32.157  1.00  0.00     0.011 A 
HETATM   14  C   UNL     1      -5.068   3.674 -32.016  1.00  0.00     0.001 A 
HETATM   15  C   UNL     1      -4.560   2.947 -30.939  1.00  0.00     0.000 A 
HETATM   16  C   UNL     1      -5.429   2.393 -30.001  1.00  0.00     0.001 A 
HETATM   17  C   UNL     1      -6.808   2.567 -30.136  1.00  0.00     0.011 A 
ENDBRANCH   6  12
ENDBRANCH   1   5
BRANCH   2  18
HETATM   18  C   UNL     1      -7.313   0.139 -33.655  1.00  0.00     0.035 A 
HETATM   19  C   UNL     1      -6.122  -0.064 -32.952  1.00  0.00     0.042 A 
HETATM   20  C   UNL     1      -5.229  -1.069 -33.345  1.00  0.00    -0.021 A 
HETATM   21  C   UNL     1      -3.968  -1.215 -32.657  1.00  0.00     0.010 A 
HETATM   22  C   UNL     1      -5.547  -1.890 -34.433  1.00  0.00     0.012 A 
HETATM   23  C   UNL     1      -2.919  -0.290 -32.465  1.00  0.00     0.152 A 
HETATM   24  C   UNL     1      -3.550  -2.348 -31.998  1.00  0.00     0.123 A 
HETATM   25  N   UNL     1      -1.908  -0.803 -31.755  1.00  0.00    -0.187 NA
HETATM   26  N   UNL     1      -2.329  -2.048 -31.470  1.00  0.00    -0.289 N 
HETATM   27  H   UNL     1      -1.728  -2.638 -30.903  1.00  0.00     0.188 HD
HETATM   28  C   UNL     1      -6.732  -1.685 -35.140  1.00  0.00     0.003 A 
HETATM   29  C   UNL     1      -7.605  -0.660 -34.763  1.00  0.00     0.029 A 
ENDBRANCH   2  18
TORSDOF 4
ENDMDL
MODEL 6
REMARK VINA RESULT:      -7.9     16.512     18.159
REMARK  4 active torsions:
REMARK  status: ('A' for Active; 'I' for Inactive)
REMARK       I    between atoms: C_2  and  N_3 
REMARK    1  A    between atoms: N_3  and  C_4 
REMARK    2  A    between atoms: C_4  and  C_5 
REMARK       I    between atoms: C_5  and  N_6 
REMARK    3  A    between atoms: N_6  and  C_7 
REMARK    4  A    between atoms: C_20  and  C_21 
ROOT
HETATM    1  C   UNL     1     -10.015   2.874 -33.607  1.00  0.00     0.272 C 
HETATM    2  N   UNL     1      -9.372   3.364 -32.495  1.00  0.00    -0.322 N 
HETATM    3  O   UNL     1      -9.946   3.369 -34.731  1.00  0.00    -0.266 OA
HETATM    4  H   UNL     1      -9.867   3.235 -31.615  1.00  0.00     0.169 HD
ENDROOT
BRANCH   1   5
HETATM    5  C   UNL     1     -10.843   1.626 -33.373  1.00  0.00     0.104 C 
HETATM    6  C   UNL     1     -10.203   0.436 -33.418  1.00  0.00     0.046 C 
BRANCH   5   7
HETATM    7  N   UNL     1     -12.210   1.616 -33.137  1.00  0.00    -0.323 N 
HETATM    8  C   UNL     1     -13.250   1.497 -34.032  1.00  0.00     0.218 C 
HETATM    9  C   UNL     1     -14.604   1.396 -33.375  1.00  0.00     0.117 C 
HETATM   10  O   UNL     1     -13.146   1.531 -35.253  1.00  0.00    -0.274 OA
HETATM   11  H   UNL     1     -12.476   1.718 -32.165  1.00  0.00     0.169 HD
ENDBRANCH   5   7
BRANCH   6  12
HETATM   12  C   UNL     1      -8.761   0.228 -33.598  1.00  0.00    -0.034 A 
HETATM   13  C   UNL     1      -7.926   0.091 -32.484  1.00  0.00     0.011 A 
HETATM   14  C   UNL     1      -6.551  -0.086 -32.654  1.00  0.00     0.001 A 
HETATM   15  C   UNL     1      -6.005  -0.123 -33.936  1.00  0.00     0.000 A 
HETATM   16  C   UNL     1      -6.832   0.012 -35.050  1.00  0.00     0.001 A 
HETATM   17  C   UNL     1      -8.208   0.182 -34.883  1.00  0.00     0.011 A 
ENDBRANCH   6  12
ENDBRANCH   1   5
BRANCH   2  18
HETATM   18  C   UNL     1      -8.307   4.282 -32.509  1.00  0.00     0.035 A 
HETATM   19  C   UNL     1      -6.971   3.871 -32.519  1.00  0.00     0.042 A 
HETATM   20  C   UNL     1      -5.938   4.815 -32.472  1.00  0.00    -0.021 A 
HETATM   21  C   UNL     1      -4.565   4.371 -32.403  1.00  0.00     0.010 A 
HETATM   22  C   UNL     1      -6.249   6.179 -32.443  1.00  0.00     0.012 A 
HETATM   23  C   UNL     1      -3.917   3.545 -31.461  1.00  0.00     0.152 A 
HETATM   24  C   UNL     1      -3.587   4.674 -33.323  1.00  0.00     0.123 A 
HETATM   25  N   UNL     1      -2.626   3.353 -31.750  1.00  0.00    -0.187 NA
HETATM   26  N   UNL     1      -2.460   4.035 -32.897  1.00  0.00    -0.289 N 
HETATM   27  H   UNL     1      -1.545   4.016 -33.336  1.00  0.00     0.188 HD
HETATM   28  C   UNL     1      -7.581   6.592 -32.427  1.00  0.00     0.003 A 
HETATM   29  C   UNL     1      -8.608   5.644 -32.442  1.00  0.00     0.029 A 
ENDBRANCH   2  18
TORSDOF 4
ENDMDL
MODEL 7
REMARK VINA RESULT:      -7.7     22.555     24.175
REMARK  4 active torsions:
REMARK  status: ('A' for Active; 'I' for Inactive)
REMARK       I    between atoms: C_2  and  N_3 
REMARK    1  A    between atoms: N_3  and  C_4 
REMARK    2  A    between atoms: C_4  and  C_5 
REMARK       I    between atoms: C_5  and  N_6 
REMARK    3  A    between atoms: N_6  and  C_7 
REMARK    4  A    between atoms: C_20  and  C_21 
ROOT
HETATM    1  C   UNL     1      -2.098   7.349 -30.511  1.00  0.00     0.272 C 
HETATM    2  N   UNL     1      -2.840   6.735 -29.530  1.00  0.00    -0.322 N 
HETATM    3  O   UNL     1      -2.220   8.526 -30.848  1.00  0.00    -0.266 OA
HETATM    4  H   UNL     1      -3.030   5.747 -29.684  1.00  0.00     0.169 HD
ENDROOT
BRANCH   1   5
HETATM    5  C   UNL     1      -1.061   6.468 -31.180  1.00  0.00     0.104 C 
HETATM    6  C   UNL     1       0.108   6.278 -30.530  1.00  0.00     0.046 C 
BRANCH   5   7
HETATM    7  N   UNL     1      -1.220   5.861 -32.418  1.00  0.00    -0.323 N 
HETATM    8  C   UNL     1      -1.286   6.433 -33.668  1.00  0.00     0.218 C 
HETATM    9  C   UNL     1      -1.330   5.427 -34.792  1.00  0.00     0.117 C 
HETATM   10  O   UNL     1      -1.369   7.634 -33.899  1.00  0.00    -0.274 OA
HETATM   11  H   UNL     1      -1.305   4.852 -32.390  1.00  0.00     0.169 HD
ENDBRANCH   5   7
BRANCH   6  12
HETATM   12  C   UNL     1       0.456   6.780 -29.195  1.00  0.00    -0.034 A 
HETATM   13  C   UNL     1       0.183   6.007 -28.060  1.00  0.00     0.011 A 
HETATM   14  C   UNL     1       0.494   6.494 -26.788  1.00  0.00     0.001 A 
HETATM   15  C   UNL     1       1.074   7.754 -26.645  1.00  0.00     0.000 A 
HETATM   16  C   UNL     1       1.347   8.527 -27.772  1.00  0.00     0.001 A 
HETATM   17  C   UNL     1       1.044   8.040 -29.045  1.00  0.00     0.011 A 
ENDBRANCH   6  12
ENDBRANCH   1   5
BRANCH   2  18
HETATM   18  C   UNL     1      -3.608   7.397 -28.556  1.00  0.00     0.035 A 
HETATM   19  C   UNL     1      -3.028   7.999 -27.434  1.00  0.00     0.042 A 
HETATM   20  C   UNL     1      -3.831   8.597 -26.456  1.00  0.00    -0.021 A 
HETATM   21  C   UNL     1      -3.222   9.144 -25.266  1.00  0.00     0.010 A 
HETATM   22  C   UNL     1      -5.221   8.614 -26.618  1.00  0.00     0.012 A 
HETATM   23  C   UNL     1      -2.406   8.531 -24.292  1.00  0.00     0.152 A 
HETATM   24  C   UNL     1      -3.312  10.457 -24.861  1.00  0.00     0.123 A 
HETATM   25  N   UNL     1      -2.024   9.383 -23.335  1.00  0.00    -0.187 NA
HETATM   26  N   UNL     1      -2.573  10.549 -23.718  1.00  0.00    -0.289 N 
HETATM   27  H   UNL     1      -2.397  11.370 -23.149  1.00  0.00     0.188 HD
HETATM   28  C   UNL     1      -5.802   8.009 -27.732  1.00  0.00     0.003 A 
HETATM   29  C   UNL     1      -4.998   7.386 -28.690  1.00  0.00     0.029 A 
ENDBRANCH   2  18
TORSDOF 4
ENDMDL
MODEL 8
REMARK VINA RESULT:      -7.6     17.333     18.974
REMARK  4 active torsions:
REMARK  status: ('A' for Active; 'I' for Inactive)
REMARK       I    between atoms: C_2  and  N_3 
REMARK    1  A    between atoms: N_3  and  C_4 
REMARK    2  A    between atoms: C_4  and  C_5 
REMARK       I    between atoms: C_5  and  N_6 
REMARK    3  A    between atoms: N_6  and  C_7 
REMARK    4  A    between atoms: C_20  and  C_21 
ROOT
HETATM    1  C   UNL     1      -7.391   3.692 -33.540  1.00  0.00     0.272 C 
HETATM    2  N   UNL     1      -6.796   3.710 -32.302  1.00  0.00    -0.322 N 
HETATM    3  O   UNL     1      -6.828   3.988 -34.593  1.00  0.00    -0.266 OA
HETATM    4  H   UNL     1      -7.409   3.955 -31.528  1.00  0.00     0.169 HD
ENDROOT
BRANCH   1   5
HETATM    5  C   UNL     1      -8.843   3.255 -33.550  1.00  0.00     0.104 C 
HETATM    6  C   UNL     1      -9.095   1.935 -33.696  1.00  0.00     0.046 C 
BRANCH   5   7
HETATM    7  N   UNL     1      -9.928   4.112 -33.438  1.00  0.00    -0.323 N 
HETATM    8  C   UNL     1     -10.364   5.086 -34.309  1.00  0.00     0.218 C 
HETATM    9  C   UNL     1     -11.667   5.725 -33.898  1.00  0.00     0.117 C 
HETATM   10  O   UNL     1      -9.758   5.479 -35.299  1.00  0.00    -0.274 OA
HETATM   11  H   UNL     1     -10.470   4.006 -32.589  1.00  0.00     0.169 HD
ENDBRANCH   5   7
BRANCH   6  12
HETATM   12  C   UNL     1      -8.098   0.860 -33.775  1.00  0.00    -0.034 A 
HETATM   13  C   UNL     1      -7.565   0.309 -32.604  1.00  0.00     0.011 A 
HETATM   14  C   UNL     1      -6.601  -0.699 -32.678  1.00  0.00     0.001 A 
HETATM   15  C   UNL     1      -6.164  -1.157 -33.920  1.00  0.00     0.000 A 
HETATM   16  C   UNL     1      -6.692  -0.612 -35.089  1.00  0.00     0.001 A 
HETATM   17  C   UNL     1      -7.661   0.391 -35.018  1.00  0.00     0.011 A 
ENDBRANCH   6  12
ENDBRANCH   1   5
BRANCH   2  18
HETATM   18  C   UNL     1      -5.410   3.750 -32.066  1.00  0.00     0.035 A 
HETATM   19  C   UNL     1      -4.636   4.875 -32.369  1.00  0.00     0.042 A 
HETATM   20  C   UNL     1      -3.250   4.855 -32.175  1.00  0.00    -0.021 A 
HETATM   21  C   UNL     1      -2.456   5.997 -32.566  1.00  0.00     0.010 A 
HETATM   22  C   UNL     1      -2.641   3.710 -31.649  1.00  0.00     0.012 A 
HETATM   23  C   UNL     1      -2.320   6.629 -33.820  1.00  0.00     0.152 A 
HETATM   24  C   UNL     1      -1.660   6.736 -31.721  1.00  0.00     0.123 A 
HETATM   25  N   UNL     1      -1.490   7.676 -33.778  1.00  0.00    -0.187 NA
HETATM   26  N   UNL     1      -1.120   7.728 -32.486  1.00  0.00    -0.289 N 
HETATM   27  H   UNL     1      -0.496   8.474 -32.197  1.00  0.00     0.188 HD
HETATM   28  C   UNL     1      -3.410   2.584 -31.352  1.00  0.00     0.003 A 
HETATM   29  C   UNL     1      -4.789   2.598 -31.577  1.00  0.00     0.029 A 
ENDBRANCH   2  18
TORSDOF 4
ENDMDL
MODEL 9
REMARK VINA RESULT:      -7.5     15.512     17.749
REMARK  4 active torsions:
REMARK  status: ('A' for Active; 'I' for Inactive)
REMARK       I    between atoms: C_2  and  N_3 
REMARK    1  A    between atoms: N_3  and  C_4 
REMARK    2  A    between atoms: C_4  and  C_5 
REMARK       I    between atoms: C_5  and  N_6 
REMARK    3  A    between atoms: N_6  and  C_7 
REMARK    4  A    between atoms: C_20  and  C_21 
ROOT
HETATM    1  C   UNL     1      -8.734   2.590 -32.950  1.00  0.00     0.272 C 
HETATM    2  N   UNL     1      -8.009   2.163 -34.036  1.00  0.00    -0.322 N 
HETATM    3  O   UNL     1      -9.118   1.863 -32.035  1.00  0.00    -0.266 OA
HETATM    4  H   UNL     1      -8.191   2.663 -34.904  1.00  0.00     0.169 HD
ENDROOT
BRANCH   1   5
HETATM    5  C   UNL     1      -9.040   4.074 -32.924  1.00  0.00     0.104 C 
HETATM    6  C   UNL     1     -10.260   4.467 -33.350  1.00  0.00     0.046 C 
BRANCH   5   7
HETATM    7  N   UNL     1      -8.151   5.058 -32.512  1.00  0.00    -0.323 N 
HETATM    8  C   UNL     1      -7.022   5.531 -33.141  1.00  0.00     0.218 C 
HETATM    9  C   UNL     1      -6.386   6.705 -32.438  1.00  0.00     0.117 C 
HETATM   10  O   UNL     1      -6.504   5.043 -34.139  1.00  0.00    -0.274 OA
HETATM   11  H   UNL     1      -8.366   5.479 -31.617  1.00  0.00     0.169 HD
ENDBRANCH   5   7
BRANCH   6  12
HETATM   12  C   UNL     1     -11.361   3.590 -33.772  1.00  0.00    -0.034 A 
HETATM   13  C   UNL     1     -12.328   3.182 -32.847  1.00  0.00     0.011 A 
HETATM   14  C   UNL     1     -13.363   2.331 -33.242  1.00  0.00     0.001 A 
HETATM   15  C   UNL     1     -13.433   1.882 -34.561  1.00  0.00     0.000 A 
HETATM   16  C   UNL     1     -12.472   2.286 -35.486  1.00  0.00     0.001 A 
HETATM   17  C   UNL     1     -11.441   3.143 -35.095  1.00  0.00     0.011 A 
ENDBRANCH   6  12
ENDBRANCH   1   5
BRANCH   2  18
HETATM   18  C   UNL     1      -7.326   0.937 -34.129  1.00  0.00     0.035 A 
HETATM   19  C   UNL     1      -6.174   0.669 -33.382  1.00  0.00     0.042 A 
HETATM   20  C   UNL     1      -5.489  -0.540 -33.546  1.00  0.00    -0.021 A 
HETATM   21  C   UNL     1      -4.257  -0.769 -32.825  1.00  0.00     0.010 A 
HETATM   22  C   UNL     1      -5.976  -1.496 -34.445  1.00  0.00     0.012 A 
HETATM   23  C   UNL     1      -3.054  -0.031 -32.814  1.00  0.00     0.152 A 
HETATM   24  C   UNL     1      -4.036  -1.799 -31.940  1.00  0.00     0.123 A 
HETATM   25  N   UNL     1      -2.136  -0.563 -32.000  1.00  0.00    -0.187 NA
HETATM   26  N   UNL     1      -2.769  -1.624 -31.469  1.00  0.00    -0.289 N 
HETATM   27  H   UNL     1      -2.271  -2.184 -30.784  1.00  0.00     0.188 HD
HETATM   28  C   UNL     1      -7.121  -1.229 -35.195  1.00  0.00     0.003 A 
HETATM   29  C   UNL     1      -7.784  -0.007 -35.051  1.00  0.00     0.029 A 
ENDBRANCH   2  18
TORSDOF 4
ENDMDL
MODEL 10
REMARK VINA RESULT:      -7.5     15.964     17.427
REMARK  4 active torsions:
REMARK  status: ('A' for Active; 'I' for Inactive)
REMARK       I    between atoms: C_2  and  N_3 
REMARK    1  A    between atoms: N_3  and  C_4 
REMARK    2  A    between atoms: C_4  and  C_5 
REMARK       I    between atoms: C_5  and  N_6 
REMARK    3  A    between atoms: N_6  and  C_7 
REMARK    4  A    between atoms: C_20  and  C_21 
ROOT
HETATM    1  C   UNL     1      -7.711   1.490 -32.650  1.00  0.00     0.272 C 
HETATM    2  N   UNL     1      -7.112   2.235 -33.637  1.00  0.00    -0.322 N 
HETATM    3  O   UNL     1      -7.526   1.648 -31.444  1.00  0.00    -0.266 OA
HETATM    4  H   UNL     1      -6.920   1.736 -34.503  1.00  0.00     0.169 HD
ENDROOT
BRANCH   1   5
HETATM    5  C   UNL     1      -8.668   0.422 -33.141  1.00  0.00     0.104 C 
HETATM    6  C   UNL     1      -8.137  -0.755 -33.540  1.00  0.00     0.046 C 
BRANCH   5   7
HETATM    7  N   UNL     1     -10.045   0.574 -33.229  1.00  0.00    -0.323 N 
HETATM    8  C   UNL     1     -10.778   1.474 -33.969  1.00  0.00     0.218 C 
HETATM    9  C   UNL     1     -12.267   1.240 -33.903  1.00  0.00     0.117 C 
HETATM   10  O   UNL     1     -10.321   2.430 -34.585  1.00  0.00    -0.274 OA
HETATM   11  H   UNL     1     -10.581  -0.069 -32.659  1.00  0.00     0.169 HD
ENDBRANCH   5   7
BRANCH   6  12
HETATM   12  C   UNL     1      -6.721  -1.139 -33.478  1.00  0.00    -0.034 A 
HETATM   13  C   UNL     1      -6.115  -1.770 -34.570  1.00  0.00     0.011 A 
HETATM   14  C   UNL     1      -4.774  -2.156 -34.503  1.00  0.00     0.001 A 
HETATM   15  C   UNL     1      -4.036  -1.916 -33.344  1.00  0.00     0.000 A 
HETATM   16  C   UNL     1      -4.635  -1.287 -32.254  1.00  0.00     0.001 A 
HETATM   17  C   UNL     1      -5.973  -0.895 -32.321  1.00  0.00     0.011 A 
ENDBRANCH   6  12
ENDBRANCH   1   5
BRANCH   2  18
HETATM   18  C   UNL     1      -6.464   3.469 -33.446  1.00  0.00     0.035 A 
HETATM   19  C   UNL     1      -5.092   3.558 -33.193  1.00  0.00     0.042 A 
HETATM   20  C   UNL     1      -4.494   4.800 -32.949  1.00  0.00    -0.021 A 
HETATM   21  C   UNL     1      -3.091   4.865 -32.612  1.00  0.00     0.010 A 
HETATM   22  C   UNL     1      -5.274   5.961 -32.986  1.00  0.00     0.012 A 
HETATM   23  C   UNL     1      -2.375   4.259 -31.558  1.00  0.00     0.152 A 
HETATM   24  C   UNL     1      -2.136   5.554 -33.324  1.00  0.00     0.123 A 
HETATM   25  N   UNL     1      -1.071   4.555 -31.590  1.00  0.00    -0.187 NA
HETATM   26  N   UNL     1      -0.953   5.327 -32.684  1.00  0.00    -0.289 N 
HETATM   27  H   UNL     1      -0.029   5.661 -32.936  1.00  0.00     0.188 HD
HETATM   28  C   UNL     1      -6.644   5.876 -33.232  1.00  0.00     0.003 A 
HETATM   29  C   UNL     1      -7.241   4.630 -33.444  1.00  0.00     0.029 A 
ENDBRANCH   2  18
TORSDOF 4
ENDMDL
