MODEL 1
REMARK VINA RESULT:      -9.7      0.000      0.000
REMARK  5 active torsions:
REMARK  status: ('A' for Active; 'I' for Inactive)
REMARK    1  A    between atoms: C_7  and  C_8 
REMARK    2  A    between atoms: C_16  and  C_17 
REMARK    3  A    between atoms: C_20  and  O_21 
REMARK    4  A    between atoms: C_24  and  C_25 
REMARK       I    between atoms: C_25  and  N_26 
REMARK    5  A    between atoms: N_26  and  C_27 
ROOT
HETATM    1  C   UNL     1      -8.138   4.641 -31.438  1.00  0.00     0.070 C 
HETATM    2  C   UNL     1      -8.300   3.433 -32.329  1.00  0.00     0.037 C 
HETATM    3  N   UNL     1      -7.572   2.304 -31.954  1.00  0.00    -0.192 N 
HETATM    4  C   UNL     1      -7.425   1.233 -32.759  1.00  0.00     0.726 A 
HETATM    5  N   UNL     1      -8.160   1.158 -33.904  1.00  0.00    -0.083 N 
HETATM    6  N   UNL     1      -7.861   0.059 -34.620  1.00  0.00    -0.135 NA
HETATM    7  C   UNL     1      -6.937  -0.522 -33.831  1.00  0.00     0.200 A 
HETATM    8  N   UNL     1      -6.659   0.179 -32.671  1.00  0.00    -0.041 NA
HETATM    9  C   UNL     1      -9.190   2.129 -34.279  1.00  0.00     0.202 C 
HETATM   10  C   UNL     1      -9.083   3.399 -33.440  1.00  0.00     0.062 C 
HETATM   11  H   UNL     1      -6.922   2.409 -31.179  1.00  0.00     0.184 HD
ENDROOT
BRANCH  10  12
HETATM   12  C   UNL     1      -9.672   4.655 -33.991  1.00  0.00     0.256 C 
HETATM   13  N   UNL     1     -10.973   4.896 -33.605  1.00  0.00    -0.323 N 
HETATM   14  H   UNL     1     -11.412   4.251 -32.962  1.00  0.00     0.169 HD
HETATM   15  O   UNL     1      -9.003   5.343 -34.754  1.00  0.00    -0.267 OA
BRANCH  13  16
HETATM   16  C   UNL     1     -11.803   5.963 -34.011  1.00  0.00     0.035 A 
HETATM   17  C   UNL     1     -11.779   7.237 -33.442  1.00  0.00     0.029 A 
HETATM   18  C   UNL     1     -12.639   8.237 -33.907  1.00  0.00     0.002 A 
HETATM   19  C   UNL     1     -13.522   7.975 -34.951  1.00  0.00     0.000 A 
HETATM   20  C   UNL     1     -13.554   6.708 -35.527  1.00  0.00     0.002 A 
HETATM   21  C   UNL     1     -12.703   5.706 -35.054  1.00  0.00     0.029 A 
ENDBRANCH  13  16
ENDBRANCH  10  12
BRANCH   9  22
HETATM   22  C   UNL     1     -10.555   1.445 -34.175  1.00  0.00    -0.028 A 
HETATM   23  C   UNL     1     -10.788   0.391 -33.269  1.00  0.00     0.012 A 
HETATM   24  C   UNL     1     -12.041  -0.220 -33.192  1.00  0.00     0.037 A 
HETATM   25  C   UNL     1     -13.064   0.211 -34.027  1.00  0.00     0.065 A 
HETATM   26  C   UNL     1     -12.856   1.239 -34.937  1.00  0.00     0.037 A 
HETATM   27  C   UNL     1     -11.605   1.854 -35.015  1.00  0.00     0.012 A 
BRANCH  25  28
HETATM   28  O   UNL     1     -14.300  -0.363 -33.990  1.00  0.00    -0.361 OA
HETATM   29  H   UNL     1     -14.435  -0.867 -34.809  1.00  0.00     0.217 HD
ENDBRANCH  25  28
ENDBRANCH   9  22
BRANCH   7  30
HETATM   30  C   UNL     1      -6.354  -1.823 -34.131  1.00  0.00     0.036 A 
HETATM   31  C   UNL     1      -4.983  -2.095 -34.021  1.00  0.00     0.048 A 
HETATM   32 CL   UNL     1      -3.811  -0.897 -33.589  1.00  0.00    -0.083 Cl
HETATM   33  C   UNL     1      -4.495  -3.376 -34.313  1.00  0.00     0.025 A 
HETATM   34  C   UNL     1      -5.362  -4.392 -34.717  1.00  0.00     0.002 A 
HETATM   35  C   UNL     1      -6.723  -4.131 -34.839  1.00  0.00     0.001 A 
HETATM   36  C   UNL     1      -7.214  -2.857 -34.552  1.00  0.00     0.017 A 
ENDBRANCH   7  30
TORSDOF 5
ENDMDL
MODEL 2
REMARK VINA RESULT:      -9.5      2.700      5.130
REMARK  5 active torsions:
REMARK  status: ('A' for Active; 'I' for Inactive)
REMARK    1  A    between atoms: C_7  and  C_8 
REMARK    2  A    between atoms: C_16  and  C_17 
REMARK    3  A    between atoms: C_20  and  O_21 
REMARK    4  A    between atoms: C_24  and  C_25 
REMARK       I    between atoms: C_25  and  N_26 
REMARK    5  A    between atoms: N_26  and  C_27 
ROOT
HETATM    1  C   UNL     1     -10.412   3.702 -34.408  1.00  0.00     0.070 C 
HETATM    2  C   UNL     1      -9.352   2.783 -33.850  1.00  0.00     0.037 C 
HETATM    3  N   UNL     1      -8.877   1.807 -34.726  1.00  0.00    -0.192 N 
HETATM    4  C   UNL     1      -8.111   0.775 -34.320  1.00  0.00     0.726 A 
HETATM    5  N   UNL     1      -7.622   0.773 -33.048  1.00  0.00    -0.083 N 
HETATM    6  N   UNL     1      -6.922  -0.345 -32.783  1.00  0.00    -0.135 NA
HETATM    7  C   UNL     1      -7.001  -0.987 -33.964  1.00  0.00     0.200 A 
HETATM    8  N   UNL     1      -7.720  -0.310 -34.932  1.00  0.00    -0.041 NA
HETATM    9  C   UNL     1      -7.790   1.881 -32.106  1.00  0.00     0.202 C 
HETATM   10  C   UNL     1      -8.867   2.852 -32.582  1.00  0.00     0.062 C 
HETATM   11  H   UNL     1      -9.342   1.728 -35.628  1.00  0.00     0.184 HD
ENDROOT
BRANCH  10  12
HETATM   12  C   UNL     1      -9.528   3.720 -31.563  1.00  0.00     0.256 C 
HETATM   13  N   UNL     1      -8.893   4.921 -31.334  1.00  0.00    -0.323 N 
HETATM   14  H   UNL     1      -8.074   5.145 -31.882  1.00  0.00     0.169 HD
HETATM   15  O   UNL     1     -10.530   3.308 -30.990  1.00  0.00    -0.267 OA
BRANCH  13  16
HETATM   16  C   UNL     1      -9.249   5.911 -30.393  1.00  0.00     0.035 A 
HETATM   17  C   UNL     1     -10.301   6.813 -30.562  1.00  0.00     0.029 A 
HETATM   18  C   UNL     1     -10.583   7.764 -29.576  1.00  0.00     0.002 A 
HETATM   19  C   UNL     1      -9.823   7.815 -28.409  1.00  0.00     0.000 A 
HETATM   20  C   UNL     1      -8.773   6.919 -28.231  1.00  0.00     0.002 A 
HETATM   21  C   UNL     1      -8.483   5.978 -29.220  1.00  0.00     0.029 A 
ENDBRANCH  13  16
ENDBRANCH  10  12
BRANCH   9  22
HETATM   22  C   UNL     1      -6.427   2.543 -31.894  1.00  0.00    -0.028 A 
HETATM   23  C   UNL     1      -5.670   3.041 -32.973  1.00  0.00     0.012 A 
HETATM   24  C   UNL     1      -4.426   3.640 -32.758  1.00  0.00     0.037 A 
HETATM   25  C   UNL     1      -3.928   3.733 -31.464  1.00  0.00     0.065 A 
HETATM   26  C   UNL     1      -4.649   3.237 -30.385  1.00  0.00     0.037 A 
HETATM   27  C   UNL     1      -5.893   2.641 -30.597  1.00  0.00     0.012 A 
BRANCH  25  28
HETATM   28  O   UNL     1      -2.716   4.302 -31.209  1.00  0.00    -0.361 OA
HETATM   29  H   UNL     1      -2.466   4.107 -30.291  1.00  0.00     0.217 HD
ENDBRANCH  25  28
ENDBRANCH   9  22
BRANCH   7  30
HETATM   30  C   UNL     1      -6.306  -2.242 -34.223  1.00  0.00     0.036 A 
HETATM   31  C   UNL     1      -4.922  -2.400 -34.063  1.00  0.00     0.048 A 
HETATM   32 CL   UNL     1      -3.865  -1.106 -33.613  1.00  0.00    -0.083 Cl
HETATM   33  C   UNL     1      -4.323  -3.643 -34.316  1.00  0.00     0.025 A 
HETATM   34  C   UNL     1      -5.092  -4.731 -34.731  1.00  0.00     0.002 A 
HETATM   35  C   UNL     1      -6.465  -4.582 -34.902  1.00  0.00     0.001 A 
HETATM   36  C   UNL     1      -7.065  -3.348 -34.653  1.00  0.00     0.017 A 
ENDBRANCH   7  30
TORSDOF 5
ENDMDL
MODEL 3
REMARK VINA RESULT:      -9.3      3.715      5.898
REMARK  5 active torsions:
REMARK  status: ('A' for Active; 'I' for Inactive)
REMARK    1  A    between atoms: C_7  and  C_8 
REMARK    2  A    between atoms: C_16  and  C_17 
REMARK    3  A    between atoms: C_20  and  O_21 
REMARK    4  A    between atoms: C_24  and  C_25 
REMARK       I    between atoms: C_25  and  N_26 
REMARK    5  A    between atoms: N_26  and  C_27 
ROOT
HETATM    1  C   UNL     1     -10.287   3.737 -30.614  1.00  0.00     0.070 C 
HETATM    2  C   UNL     1      -9.071   3.524 -31.483  1.00  0.00     0.037 C 
HETATM    3  N   UNL     1      -7.854   3.917 -30.925  1.00  0.00    -0.192 N 
HETATM    4  C   UNL     1      -6.719   4.010 -31.647  1.00  0.00     0.726 A 
HETATM    5  N   UNL     1      -6.703   3.530 -32.922  1.00  0.00    -0.083 N 
HETATM    6  N   UNL     1      -5.518   3.743 -33.522  1.00  0.00    -0.135 NA
HETATM    7  C   UNL     1      -4.831   4.347 -32.534  1.00  0.00     0.200 A 
HETATM    8  N   UNL     1      -5.548   4.513 -31.363  1.00  0.00    -0.041 NA
HETATM    9  C   UNL     1      -7.822   2.817 -33.541  1.00  0.00     0.202 C 
HETATM   10  C   UNL     1      -9.106   3.000 -32.737  1.00  0.00     0.062 C 
HETATM   11  H   UNL     1      -7.889   4.398 -30.030  1.00  0.00     0.184 HD
ENDROOT
BRANCH  10  12
HETATM   12  C   UNL     1     -10.408   2.802 -33.440  1.00  0.00     0.256 C 
HETATM   13  N   UNL     1     -11.331   2.058 -32.739  1.00  0.00    -0.323 N 
HETATM   14  H   UNL     1     -11.090   1.742 -31.809  1.00  0.00     0.169 HD
HETATM   15  O   UNL     1     -10.551   3.262 -34.568  1.00  0.00    -0.267 OA
BRANCH  13  16
HETATM   16  C   UNL     1     -12.615   1.661 -33.170  1.00  0.00     0.035 A 
HETATM   17  C   UNL     1     -12.858   0.591 -34.033  1.00  0.00     0.029 A 
HETATM   18  C   UNL     1     -14.165   0.266 -34.410  1.00  0.00     0.002 A 
HETATM   19  C   UNL     1     -15.241   1.002 -33.919  1.00  0.00     0.000 A 
HETATM   20  C   UNL     1     -15.011   2.070 -33.057  1.00  0.00     0.002 A 
HETATM   21  C   UNL     1     -13.705   2.401 -32.690  1.00  0.00     0.029 A 
ENDBRANCH  13  16
ENDBRANCH  10  12
BRANCH   9  22
HETATM   22  C   UNL     1      -7.419   1.351 -33.717  1.00  0.00    -0.028 A 
HETATM   23  C   UNL     1      -6.972   0.571 -32.632  1.00  0.00     0.012 A 
HETATM   24  C   UNL     1      -6.607  -0.765 -32.816  1.00  0.00     0.037 A 
HETATM   25  C   UNL     1      -6.677  -1.324 -34.086  1.00  0.00     0.065 A 
HETATM   26  C   UNL     1      -7.102  -0.571 -35.173  1.00  0.00     0.037 A 
HETATM   27  C   UNL     1      -7.470   0.763 -34.993  1.00  0.00     0.012 A 
BRANCH  25  28
HETATM   28  O   UNL     1      -6.323  -2.621 -34.311  1.00  0.00    -0.361 OA
HETATM   29  H   UNL     1      -6.402  -3.116 -33.479  1.00  0.00     0.217 HD
ENDBRANCH  25  28
ENDBRANCH   9  22
BRANCH   7  30
HETATM   30  C   UNL     1      -3.425   4.706 -32.662  1.00  0.00     0.036 A 
HETATM   31  C   UNL     1      -2.853   5.158 -33.859  1.00  0.00     0.048 A 
HETATM   32 CL   UNL     1      -3.731   5.270 -35.346  1.00  0.00    -0.083 Cl
HETATM   33  C   UNL     1      -1.494   5.500 -33.904  1.00  0.00     0.025 A 
HETATM   34  C   UNL     1      -0.696   5.395 -32.765  1.00  0.00     0.002 A 
HETATM   35  C   UNL     1      -1.251   4.938 -31.573  1.00  0.00     0.001 A 
HETATM   36  C   UNL     1      -2.602   4.594 -31.523  1.00  0.00     0.017 A 
ENDBRANCH   7  30
TORSDOF 5
ENDMDL
MODEL 4
REMARK VINA RESULT:      -9.3      4.028      6.486
REMARK  5 active torsions:
REMARK  status: ('A' for Active; 'I' for Inactive)
REMARK    1  A    between atoms: C_7  and  C_8 
REMARK    2  A    between atoms: C_16  and  C_17 
REMARK    3  A    between atoms: C_20  and  O_21 
REMARK    4  A    between atoms: C_24  and  C_25 
REMARK       I    between atoms: C_25  and  N_26 
REMARK    5  A    between atoms: N_26  and  C_27 
ROOT
HETATM    1  C   UNL     1      -9.100   5.601 -33.161  1.00  0.00     0.070 C 
HETATM    2  C   UNL     1      -7.948   4.626 -33.131  1.00  0.00     0.037 C 
HETATM    3  N   UNL     1      -8.133   3.449 -33.856  1.00  0.00    -0.192 N 
HETATM    4  C   UNL     1      -7.310   2.387 -33.745  1.00  0.00     0.726 A 
HETATM    5  N   UNL     1      -6.148   2.520 -33.045  1.00  0.00    -0.083 N 
HETATM    6  N   UNL     1      -5.466   1.363 -32.983  1.00  0.00    -0.135 NA
HETATM    7  C   UNL     1      -6.267   0.550 -33.699  1.00  0.00     0.200 A 
HETATM    8  N   UNL     1      -7.406   1.163 -34.189  1.00  0.00    -0.041 NA
HETATM    9  C   UNL     1      -5.674   3.786 -32.480  1.00  0.00     0.202 C 
HETATM   10  C   UNL     1      -6.789   4.828 -32.450  1.00  0.00     0.062 C 
HETATM   11  H   UNL     1      -9.053   3.296 -34.263  1.00  0.00     0.184 HD
ENDROOT
BRANCH  10  12
HETATM   12  C   UNL     1      -6.667   5.956 -31.479  1.00  0.00     0.256 C 
HETATM   13  N   UNL     1      -6.072   7.089 -31.990  1.00  0.00    -0.323 N 
HETATM   14  H   UNL     1      -5.805   7.096 -32.965  1.00  0.00     0.169 HD
HETATM   15  O   UNL     1      -7.051   5.794 -30.326  1.00  0.00    -0.267 OA
BRANCH  13  16
HETATM   16  C   UNL     1      -5.770   8.282 -31.299  1.00  0.00     0.035 A 
HETATM   17  C   UNL     1      -6.728   9.176 -30.819  1.00  0.00     0.029 A 
HETATM   18  C   UNL     1      -6.339  10.338 -30.145  1.00  0.00     0.002 A 
HETATM   19  C   UNL     1      -4.989  10.610 -29.934  1.00  0.00     0.000 A 
HETATM   20  C   UNL     1      -4.025   9.724 -30.406  1.00  0.00     0.002 A 
HETATM   21  C   UNL     1      -4.413   8.571 -31.091  1.00  0.00     0.029 A 
ENDBRANCH  13  16
ENDBRANCH  10  12
BRANCH   9  22
HETATM   22  C   UNL     1      -4.445   4.235 -33.273  1.00  0.00    -0.028 A 
HETATM   23  C   UNL     1      -4.563   4.903 -34.508  1.00  0.00     0.012 A 
HETATM   24  C   UNL     1      -3.427   5.303 -35.216  1.00  0.00     0.037 A 
HETATM   25  C   UNL     1      -2.168   5.026 -34.698  1.00  0.00     0.065 A 
HETATM   26  C   UNL     1      -2.025   4.357 -33.489  1.00  0.00     0.037 A 
HETATM   27  C   UNL     1      -3.158   3.959 -32.778  1.00  0.00     0.012 A 
BRANCH  25  28
HETATM   28  O   UNL     1      -1.033   5.390 -35.359  1.00  0.00    -0.361 OA
HETATM   29  H   UNL     1      -1.274   5.693 -36.250  1.00  0.00     0.217 HD
ENDBRANCH  25  28
ENDBRANCH   9  22
BRANCH   7  30
HETATM   30  C   UNL     1      -5.911  -0.828 -34.008  1.00  0.00     0.036 A 
HETATM   31  C   UNL     1      -4.641  -1.368 -33.760  1.00  0.00     0.048 A 
HETATM   32 CL   UNL     1      -3.324  -0.441 -33.129  1.00  0.00    -0.083 Cl
HETATM   33  C   UNL     1      -4.375  -2.710 -34.070  1.00  0.00     0.025 A 
HETATM   34  C   UNL     1      -5.364  -3.520 -34.628  1.00  0.00     0.002 A 
HETATM   35  C   UNL     1      -6.625  -2.992 -34.888  1.00  0.00     0.001 A 
HETATM   36  C   UNL     1      -6.894  -1.657 -34.583  1.00  0.00     0.017 A 
ENDBRANCH   7  30
TORSDOF 5
ENDMDL
MODEL 5
REMARK VINA RESULT:      -9.3      4.909      7.758
REMARK  5 active torsions:
REMARK  status: ('A' for Active; 'I' for Inactive)
REMARK    1  A    between atoms: C_7  and  C_8 
REMARK    2  A    between atoms: C_16  and  C_17 
REMARK    3  A    between atoms: C_20  and  O_21 
REMARK    4  A    between atoms: C_24  and  C_25 
REMARK       I    between atoms: C_25  and  N_26 
REMARK    5  A    between atoms: N_26  and  C_27 
ROOT
HETATM    1  C   UNL     1      -7.762   5.973 -30.891  1.00  0.00     0.070 C 
HETATM    2  C   UNL     1      -6.746   4.952 -31.345  1.00  0.00     0.037 C 
HETATM    3  N   UNL     1      -7.245   3.912 -32.130  1.00  0.00    -0.192 N 
HETATM    4  C   UNL     1      -6.526   2.809 -32.418  1.00  0.00     0.726 A 
HETATM    5  N   UNL     1      -5.203   2.777 -32.095  1.00  0.00    -0.083 N 
HETATM    6  N   UNL     1      -4.641   1.593 -32.400  1.00  0.00    -0.135 NA
HETATM    7  C   UNL     1      -5.688   0.940 -32.940  1.00  0.00     0.200 A 
HETATM    8  N   UNL     1      -6.860   1.675 -32.973  1.00  0.00    -0.041 NA
HETATM    9  C   UNL     1      -4.469   3.916 -31.538  1.00  0.00     0.202 C 
HETATM   10  C   UNL     1      -5.425   4.991 -31.029  1.00  0.00     0.062 C 
HETATM   11  H   UNL     1      -8.254   3.868 -32.253  1.00  0.00     0.184 HD
ENDROOT
BRANCH  10  12
HETATM   12  C   UNL     1      -4.919   5.948 -30.000  1.00  0.00     0.256 C 
HETATM   13  N   UNL     1      -4.252   7.039 -30.511  1.00  0.00    -0.323 N 
HETATM   14  H   UNL     1      -4.189   7.139 -31.515  1.00  0.00     0.169 HD
HETATM   15  O   UNL     1      -5.088   5.690 -28.813  1.00  0.00    -0.267 OA
BRANCH  13  16
HETATM   16  C   UNL     1      -3.618   8.071 -29.786  1.00  0.00     0.035 A 
HETATM   17  C   UNL     1      -4.294   9.110 -29.143  1.00  0.00     0.029 A 
HETATM   18  C   UNL     1      -3.584  10.093 -28.447  1.00  0.00     0.002 A 
HETATM   19  C   UNL     1      -2.194  10.040 -28.377  1.00  0.00     0.000 A 
HETATM   20  C   UNL     1      -1.510   9.007 -29.012  1.00  0.00     0.002 A 
HETATM   21  C   UNL     1      -2.218   8.033 -29.719  1.00  0.00     0.029 A 
ENDBRANCH  13  16
ENDBRANCH  10  12
BRANCH   9  22
HETATM   22  C   UNL     1      -3.492   4.424 -32.599  1.00  0.00    -0.028 A 
HETATM   23  C   UNL     1      -3.927   4.805 -33.885  1.00  0.00     0.012 A 
HETATM   24  C   UNL     1      -3.017   5.264 -34.840  1.00  0.00     0.037 A 
HETATM   25  C   UNL     1      -1.667   5.335 -34.519  1.00  0.00     0.065 A 
HETATM   26  C   UNL     1      -1.213   4.953 -33.263  1.00  0.00     0.037 A 
HETATM   27  C   UNL     1      -2.119   4.496 -32.306  1.00  0.00     0.012 A 
BRANCH  25  28
HETATM   28  O   UNL     1      -0.745   5.770 -35.423  1.00  0.00    -0.361 OA
HETATM   29  H   UNL     1      -0.188   5.020 -35.687  1.00  0.00     0.217 HD
ENDBRANCH  25  28
ENDBRANCH   9  22
BRANCH   7  30
HETATM   30  C   UNL     1      -5.568  -0.389 -33.525  1.00  0.00     0.036 A 
HETATM   31  C   UNL     1      -6.410  -0.860 -34.542  1.00  0.00     0.048 A 
HETATM   32 CL   UNL     1      -7.740   0.052 -35.170  1.00  0.00    -0.083 Cl
HETATM   33  C   UNL     1      -6.225  -2.147 -35.068  1.00  0.00     0.025 A 
HETATM   34  C   UNL     1      -5.207  -2.971 -34.588  1.00  0.00     0.002 A 
HETATM   35  C   UNL     1      -4.371  -2.518 -33.572  1.00  0.00     0.001 A 
HETATM   36  C   UNL     1      -4.553  -1.239 -33.044  1.00  0.00     0.017 A 
ENDBRANCH   7  30
TORSDOF 5
ENDMDL
MODEL 6
REMARK VINA RESULT:      -9.1      5.124      9.847
REMARK  5 active torsions:
REMARK  status: ('A' for Active; 'I' for Inactive)
REMARK    1  A    between atoms: C_7  and  C_8 
REMARK    2  A    between atoms: C_16  and  C_17 
REMARK    3  A    between atoms: C_20  and  O_21 
REMARK    4  A    between atoms: C_24  and  C_25 
REMARK       I    between atoms: C_25  and  N_26 
REMARK    5  A    between atoms: N_26  and  C_27 
ROOT
HETATM    1  C   UNL     1      -5.482   0.696 -29.868  1.00  0.00     0.070 C 
HETATM    2  C   UNL     1      -5.554   2.092 -30.439  1.00  0.00     0.037 C 
HETATM    3  N   UNL     1      -5.377   3.129 -29.523  1.00  0.00    -0.192 N 
HETATM    4  C   UNL     1      -5.640   4.417 -29.821  1.00  0.00     0.726 A 
HETATM    5  N   UNL     1      -5.911   4.755 -31.113  1.00  0.00    -0.083 N 
HETATM    6  N   UNL     1      -6.202   6.063 -31.237  1.00  0.00    -0.135 NA
HETATM    7  C   UNL     1      -6.065   6.482 -29.965  1.00  0.00     0.200 A 
HETATM    8  N   UNL     1      -5.707   5.486 -29.074  1.00  0.00    -0.041 NA
HETATM    9  C   UNL     1      -5.837   3.819 -32.237  1.00  0.00     0.202 C 
HETATM   10  C   UNL     1      -5.785   2.374 -31.748  1.00  0.00     0.062 C 
HETATM   11  H   UNL     1      -5.311   2.872 -28.541  1.00  0.00     0.184 HD
ENDROOT
BRANCH  10  12
HETATM   12  C   UNL     1      -6.216   1.300 -32.691  1.00  0.00     0.256 C 
HETATM   13  N   UNL     1      -5.479   0.139 -32.613  1.00  0.00    -0.323 N 
HETATM   14  H   UNL     1      -4.748   0.078 -31.917  1.00  0.00     0.169 HD
HETATM   15  O   UNL     1      -7.135   1.525 -33.471  1.00  0.00    -0.267 OA
BRANCH  13  16
HETATM   16  C   UNL     1      -5.613  -1.016 -33.413  1.00  0.00     0.035 A 
HETATM   17  C   UNL     1      -6.836  -1.537 -33.841  1.00  0.00     0.029 A 
HETATM   18  C   UNL     1      -6.877  -2.689 -34.633  1.00  0.00     0.002 A 
HETATM   19  C   UNL     1      -5.697  -3.324 -35.012  1.00  0.00     0.000 A 
HETATM   20  C   UNL     1      -4.472  -2.813 -34.592  1.00  0.00     0.002 A 
HETATM   21  C   UNL     1      -4.432  -1.669 -33.791  1.00  0.00     0.029 A 
ENDBRANCH  13  16
ENDBRANCH  10  12
BRANCH   9  22
HETATM   22  C   UNL     1      -4.641   4.209 -33.109  1.00  0.00    -0.028 A 
HETATM   23  C   UNL     1      -4.811   4.821 -34.367  1.00  0.00     0.012 A 
HETATM   24  C   UNL     1      -3.705   5.166 -35.147  1.00  0.00     0.037 A 
HETATM   25  C   UNL     1      -2.426   4.891 -34.680  1.00  0.00     0.065 A 
HETATM   26  C   UNL     1      -2.234   4.276 -33.449  1.00  0.00     0.037 A 
HETATM   27  C   UNL     1      -3.337   3.932 -32.665  1.00  0.00     0.012 A 
BRANCH  25  28
HETATM   28  O   UNL     1      -1.320   5.203 -35.412  1.00  0.00    -0.361 OA
HETATM   29  H   UNL     1      -0.973   4.392 -35.818  1.00  0.00     0.217 HD
ENDBRANCH  25  28
ENDBRANCH   9  22
BRANCH   7  30
HETATM   30  C   UNL     1      -6.189   7.882 -29.582  1.00  0.00     0.036 A 
HETATM   31  C   UNL     1      -7.238   8.372 -28.790  1.00  0.00     0.048 A 
HETATM   32 CL   UNL     1      -8.550   7.386 -28.239  1.00  0.00    -0.083 Cl
HETATM   33  C   UNL     1      -7.285   9.731 -28.448  1.00  0.00     0.025 A 
HETATM   34  C   UNL     1      -6.295  10.609 -28.890  1.00  0.00     0.002 A 
HETATM   35  C   UNL     1      -5.255  10.136 -29.683  1.00  0.00     0.001 A 
HETATM   36  C   UNL     1      -5.205   8.785 -30.028  1.00  0.00     0.017 A 
ENDBRANCH   7  30
TORSDOF 5
ENDMDL
MODEL 7
REMARK VINA RESULT:      -9.0      5.084      8.486
REMARK  5 active torsions:
REMARK  status: ('A' for Active; 'I' for Inactive)
REMARK    1  A    between atoms: C_7  and  C_8 
REMARK    2  A    between atoms: C_16  and  C_17 
REMARK    3  A    between atoms: C_20  and  O_21 
REMARK    4  A    between atoms: C_24  and  C_25 
REMARK       I    between atoms: C_25  and  N_26 
REMARK    5  A    between atoms: N_26  and  C_27 
ROOT
HETATM    1  C   UNL     1      -3.084   5.825 -34.413  1.00  0.00     0.070 C 
HETATM    2  C   UNL     1      -4.103   4.930 -33.750  1.00  0.00     0.037 C 
HETATM    3  N   UNL     1      -5.316   4.794 -34.424  1.00  0.00    -0.192 N 
HETATM    4  C   UNL     1      -6.402   4.227 -33.861  1.00  0.00     0.726 A 
HETATM    5  N   UNL     1      -6.272   3.593 -32.662  1.00  0.00    -0.083 N 
HETATM    6  N   UNL     1      -7.451   3.126 -32.212  1.00  0.00    -0.135 NA
HETATM    7  C   UNL     1      -8.274   3.493 -33.212  1.00  0.00     0.200 A 
HETATM    8  N   UNL     1      -7.648   4.164 -34.247  1.00  0.00    -0.041 NA
HETATM    9  C   UNL     1      -4.993   3.394 -31.977  1.00  0.00     0.202 C 
HETATM   10  C   UNL     1      -3.905   4.284 -32.570  1.00  0.00     0.062 C 
HETATM   11  H   UNL     1      -5.457   5.376 -35.246  1.00  0.00     0.184 HD
ENDROOT
BRANCH  10  12
HETATM   12  C   UNL     1      -2.720   4.605 -31.720  1.00  0.00     0.256 C 
HETATM   13  N   UNL     1      -2.716   5.881 -31.201  1.00  0.00    -0.323 N 
HETATM   14  H   UNL     1      -3.507   6.481 -31.389  1.00  0.00     0.169 HD
HETATM   15  O   UNL     1      -1.844   3.760 -31.577  1.00  0.00    -0.267 OA
BRANCH  13  16
HETATM   16  C   UNL     1      -1.708   6.483 -30.418  1.00  0.00     0.035 A 
HETATM   17  C   UNL     1      -1.910   6.995 -29.135  1.00  0.00     0.029 A 
HETATM   18  C   UNL     1      -0.853   7.577 -28.429  1.00  0.00     0.002 A 
HETATM   19  C   UNL     1       0.419   7.641 -28.994  1.00  0.00     0.000 A 
HETATM   20  C   UNL     1       0.633   7.132 -30.272  1.00  0.00     0.002 A 
HETATM   21  C   UNL     1      -0.427   6.563 -30.982  1.00  0.00     0.029 A 
ENDBRANCH  13  16
ENDBRANCH  10  12
BRANCH   9  22
HETATM   22  C   UNL     1      -4.650   1.903 -32.024  1.00  0.00    -0.028 A 
HETATM   23  C   UNL     1      -4.949   1.109 -33.148  1.00  0.00     0.012 A 
HETATM   24  C   UNL     1      -4.630  -0.251 -33.169  1.00  0.00     0.037 A 
HETATM   25  C   UNL     1      -4.019  -0.825 -32.061  1.00  0.00     0.065 A 
HETATM   26  C   UNL     1      -3.726  -0.066 -30.935  1.00  0.00     0.037 A 
HETATM   27  C   UNL     1      -4.042   1.293 -30.913  1.00  0.00     0.012 A 
BRANCH  25  28
HETATM   28  O   UNL     1      -3.697  -2.150 -32.035  1.00  0.00    -0.361 OA
HETATM   29  H   UNL     1      -2.759  -2.247 -32.266  1.00  0.00     0.217 HD
ENDBRANCH  25  28
ENDBRANCH   9  22
BRANCH   7  30
HETATM   30  C   UNL     1      -9.684   3.128 -33.241  1.00  0.00     0.036 A 
HETATM   31  C   UNL     1     -10.149   1.896 -33.725  1.00  0.00     0.048 A 
HETATM   32 CL   UNL     1      -9.111   0.696 -34.414  1.00  0.00    -0.083 Cl
HETATM   33  C   UNL     1     -11.521   1.607 -33.708  1.00  0.00     0.025 A 
HETATM   34  C   UNL     1     -12.437   2.536 -33.215  1.00  0.00     0.002 A 
HETATM   35  C   UNL     1     -11.988   3.765 -32.741  1.00  0.00     0.001 A 
HETATM   36  C   UNL     1     -10.624   4.059 -32.758  1.00  0.00     0.017 A 
ENDBRANCH   7  30
TORSDOF 5
ENDMDL
MODEL 8
REMARK VINA RESULT:      -8.8      3.171      9.119
REMARK  5 active torsions:
REMARK  status: ('A' for Active; 'I' for Inactive)
REMARK    1  A    between atoms: C_7  and  C_8 
REMARK    2  A    between atoms: C_16  and  C_17 
REMARK    3  A    between atoms: C_20  and  O_21 
REMARK    4  A    between atoms: C_24  and  C_25 
REMARK       I    between atoms: C_25  and  N_26 
REMARK    5  A    between atoms: N_26  and  C_27 
ROOT
HETATM    1  C   UNL     1     -10.252  -0.255 -32.672  1.00  0.00     0.070 C 
HETATM    2  C   UNL     1      -9.576   1.068 -32.941  1.00  0.00     0.037 C 
HETATM    3  N   UNL     1     -10.235   2.195 -32.450  1.00  0.00    -0.192 N 
HETATM    4  C   UNL     1      -9.891   3.450 -32.801  1.00  0.00     0.726 A 
HETATM    5  N   UNL     1      -8.746   3.649 -33.513  1.00  0.00    -0.083 N 
HETATM    6  N   UNL     1      -8.572   4.946 -33.828  1.00  0.00    -0.135 NA
HETATM    7  C   UNL     1      -9.652   5.501 -33.247  1.00  0.00     0.200 A 
HETATM    8  N   UNL     1     -10.475   4.600 -32.597  1.00  0.00    -0.041 NA
HETATM    9  C   UNL     1      -7.793   2.587 -33.843  1.00  0.00     0.202 C 
HETATM   10  C   UNL     1      -8.407   1.208 -33.622  1.00  0.00     0.062 C 
HETATM   11  H   UNL     1     -11.154   2.051 -32.039  1.00  0.00     0.184 HD
ENDROOT
BRANCH  10  12
HETATM   12  C   UNL     1      -7.817   0.052 -34.361  1.00  0.00     0.256 C 
HETATM   13  N   UNL     1      -7.094  -0.820 -33.577  1.00  0.00    -0.323 N 
HETATM   14  H   UNL     1      -7.047  -0.649 -32.582  1.00  0.00     0.169 HD
HETATM   15  O   UNL     1      -7.974  -0.022 -35.574  1.00  0.00    -0.267 OA
BRANCH  13  16
HETATM   16  C   UNL     1      -6.377  -1.960 -34.002  1.00  0.00     0.035 A 
HETATM   17  C   UNL     1      -4.985  -2.050 -34.022  1.00  0.00     0.029 A 
HETATM   18  C   UNL     1      -4.356  -3.220 -34.460  1.00  0.00     0.002 A 
HETATM   19  C   UNL     1      -5.115  -4.314 -34.871  1.00  0.00     0.000 A 
HETATM   20  C   UNL     1      -6.504  -4.235 -34.854  1.00  0.00     0.002 A 
HETATM   21  C   UNL     1      -7.132  -3.062 -34.429  1.00  0.00     0.029 A 
ENDBRANCH  13  16
ENDBRANCH  10  12
BRANCH   9  22
HETATM   22  C   UNL     1      -6.515   2.820 -33.035  1.00  0.00    -0.028 A 
HETATM   23  C   UNL     1      -6.406   2.414 -31.690  1.00  0.00     0.012 A 
HETATM   24  C   UNL     1      -5.230   2.638 -30.969  1.00  0.00     0.037 A 
HETATM   25  C   UNL     1      -4.163   3.279 -31.587  1.00  0.00     0.065 A 
HETATM   26  C   UNL     1      -4.251   3.700 -32.907  1.00  0.00     0.037 A 
HETATM   27  C   UNL     1      -5.424   3.475 -33.630  1.00  0.00     0.012 A 
BRANCH  25  28
HETATM   28  O   UNL     1      -3.000   3.525 -30.919  1.00  0.00    -0.361 OA
HETATM   29  H   UNL     1      -2.456   2.721 -30.932  1.00  0.00     0.217 HD
ENDBRANCH  25  28
ENDBRANCH   9  22
BRANCH   7  30
HETATM   30  C   UNL     1      -9.878   6.941 -33.226  1.00  0.00     0.036 A 
HETATM   31  C   UNL     1     -10.561   7.626 -34.241  1.00  0.00     0.048 A 
HETATM   32 CL   UNL     1     -11.150   6.856 -35.674  1.00  0.00    -0.083 Cl
HETATM   33  C   UNL     1     -10.755   9.012 -34.146  1.00  0.00     0.025 A 
HETATM   34  C   UNL     1     -10.271   9.723 -33.048  1.00  0.00     0.002 A 
HETATM   35  C   UNL     1      -9.583   9.055 -32.040  1.00  0.00     0.001 A 
HETATM   36  C   UNL     1      -9.386   7.677 -32.130  1.00  0.00     0.017 A 
ENDBRANCH   7  30
TORSDOF 5
ENDMDL
MODEL 9
REMARK VINA RESULT:      -8.6      2.202      2.942
REMARK  5 active torsions:
REMARK  status: ('A' for Active; 'I' for Inactive)
REMARK    1  A    between atoms: C_7  and  C_8 
REMARK    2  A    between atoms: C_16  and  C_17 
REMARK    3  A    between atoms: C_20  and  O_21 
REMARK    4  A    between atoms: C_24  and  C_25 
REMARK       I    between atoms: C_25  and  N_26 
REMARK    5  A    between atoms: N_26  and  C_27 
ROOT
HETATM    1  C   UNL     1      -5.344   4.024 -30.335  1.00  0.00     0.070 C 
HETATM    2  C   UNL     1      -5.744   2.973 -31.342  1.00  0.00     0.037 C 
HETATM    3  N   UNL     1      -5.300   1.678 -31.073  1.00  0.00    -0.192 N 
HETATM    4  C   UNL     1      -5.371   0.681 -31.978  1.00  0.00     0.726 A 
HETATM    5  N   UNL     1      -6.066   0.883 -33.133  1.00  0.00    -0.083 N 
HETATM    6  N   UNL     1      -5.999  -0.184 -33.950  1.00  0.00    -0.135 NA
HETATM    7  C   UNL     1      -5.255  -1.030 -33.212  1.00  0.00     0.200 A 
HETATM    8  N   UNL     1      -4.864  -0.522 -31.986  1.00  0.00    -0.041 NA
HETATM    9  C   UNL     1      -6.840   2.093 -33.421  1.00  0.00     0.202 C 
HETATM   10  C   UNL     1      -6.478   3.221 -32.459  1.00  0.00     0.062 C 
HETATM   11  H   UNL     1      -4.669   1.560 -30.284  1.00  0.00     0.184 HD
ENDROOT
BRANCH  10  12
HETATM   12  C   UNL     1      -6.753   4.624 -32.890  1.00  0.00     0.256 C 
HETATM   13  N   UNL     1      -7.797   5.232 -32.229  1.00  0.00    -0.323 N 
HETATM   14  H   UNL     1      -8.264   4.722 -31.493  1.00  0.00     0.169 HD
HETATM   15  O   UNL     1      -6.085   5.110 -33.796  1.00  0.00    -0.267 OA
BRANCH  13  16
HETATM   16  C   UNL     1      -8.321   6.522 -32.462  1.00  0.00     0.035 A 
HETATM   17  C   UNL     1      -9.521   6.774 -33.129  1.00  0.00     0.029 A 
HETATM   18  C   UNL     1      -9.966   8.086 -33.317  1.00  0.00     0.002 A 
HETATM   19  C   UNL     1      -9.222   9.158 -32.829  1.00  0.00     0.000 A 
HETATM   20  C   UNL     1      -8.024   8.918 -32.160  1.00  0.00     0.002 A 
HETATM   21  C   UNL     1      -7.574   7.608 -31.984  1.00  0.00     0.029 A 
ENDBRANCH  13  16
ENDBRANCH  10  12
BRANCH   9  22
HETATM   22  C   UNL     1      -8.326   1.729 -33.398  1.00  0.00    -0.028 A 
HETATM   23  C   UNL     1      -8.818   0.673 -32.606  1.00  0.00     0.012 A 
HETATM   24  C   UNL     1     -10.179   0.356 -32.602  1.00  0.00     0.037 A 
HETATM   25  C   UNL     1     -11.052   1.086 -33.399  1.00  0.00     0.065 A 
HETATM   26  C   UNL     1     -10.589   2.123 -34.199  1.00  0.00     0.037 A 
HETATM   27  C   UNL     1      -9.231   2.444 -34.203  1.00  0.00     0.012 A 
BRANCH  25  28
HETATM   28  O   UNL     1     -12.386   0.806 -33.432  1.00  0.00    -0.361 OA
HETATM   29  H   UNL     1     -12.836   1.352 -32.767  1.00  0.00     0.217 HD
ENDBRANCH  25  28
ENDBRANCH   9  22
BRANCH   7  30
HETATM   30  C   UNL     1      -4.969  -2.395 -33.634  1.00  0.00     0.036 A 
HETATM   31  C   UNL     1      -3.913  -3.155 -33.111  1.00  0.00     0.048 A 
HETATM   32 CL   UNL     1      -2.778  -2.537 -31.961  1.00  0.00    -0.083 Cl
HETATM   33  C   UNL     1      -3.708  -4.470 -33.554  1.00  0.00     0.025 A 
HETATM   34  C   UNL     1      -4.545  -5.035 -34.516  1.00  0.00     0.002 A 
HETATM   35  C   UNL     1      -5.590  -4.286 -35.049  1.00  0.00     0.001 A 
HETATM   36  C   UNL     1      -5.798  -2.977 -34.613  1.00  0.00     0.017 A 
ENDBRANCH   7  30
TORSDOF 5
ENDMDL
MODEL 10
REMARK VINA RESULT:      -8.5      3.087      8.926
REMARK  5 active torsions:
REMARK  status: ('A' for Active; 'I' for Inactive)
REMARK    1  A    between atoms: C_7  and  C_8 
REMARK    2  A    between atoms: C_16  and  C_17 
REMARK    3  A    between atoms: C_20  and  O_21 
REMARK    4  A    between atoms: C_24  and  C_25 
REMARK       I    between atoms: C_25  and  N_26 
REMARK    5  A    between atoms: N_26  and  C_27 
ROOT
HETATM    1  C   UNL     1     -10.497  -0.171 -32.872  1.00  0.00     0.070 C 
HETATM    2  C   UNL     1      -9.880   1.201 -32.998  1.00  0.00     0.037 C 
HETATM    3  N   UNL     1     -10.759   2.231 -33.330  1.00  0.00    -0.192 N 
HETATM    4  C   UNL     1     -10.339   3.456 -33.704  1.00  0.00     0.726 A 
HETATM    5  N   UNL     1      -9.019   3.769 -33.580  1.00  0.00    -0.083 N 
HETATM    6  N   UNL     1      -8.752   5.004 -34.042  1.00  0.00    -0.135 NA
HETATM    7  C   UNL     1      -9.979   5.411 -34.420  1.00  0.00     0.200 A 
HETATM    8  N   UNL     1     -10.977   4.476 -34.211  1.00  0.00    -0.041 NA
HETATM    9  C   UNL     1      -8.023   2.889 -32.963  1.00  0.00     0.202 C 
HETATM   10  C   UNL     1      -8.558   1.467 -32.820  1.00  0.00     0.062 C 
HETATM   11  H   UNL     1     -11.716   1.968 -33.554  1.00  0.00     0.184 HD
ENDROOT
BRANCH  10  12
HETATM   12  C   UNL     1      -7.569   0.354 -32.707  1.00  0.00     0.256 C 
HETATM   13  N   UNL     1      -7.233  -0.238 -33.904  1.00  0.00    -0.323 N 
HETATM   14  H   UNL     1      -7.631   0.134 -34.755  1.00  0.00     0.169 HD
HETATM   15  O   UNL     1      -7.168   0.025 -31.596  1.00  0.00    -0.267 OA
BRANCH  13  16
HETATM   16  C   UNL     1      -6.377  -1.343 -34.102  1.00  0.00     0.035 A 
HETATM   17  C   UNL     1      -5.007  -1.333 -33.833  1.00  0.00     0.029 A 
HETATM   18  C   UNL     1      -4.232  -2.476 -34.060  1.00  0.00     0.002 A 
HETATM   19  C   UNL     1      -4.822  -3.640 -34.546  1.00  0.00     0.000 A 
HETATM   20  C   UNL     1      -6.188  -3.661 -34.816  1.00  0.00     0.002 A 
HETATM   21  C   UNL     1      -6.959  -2.517 -34.602  1.00  0.00     0.029 A 
ENDBRANCH  13  16
ENDBRANCH  10  12
BRANCH   9  22
HETATM   22  C   UNL     1      -7.589   3.511 -31.634  1.00  0.00    -0.028 A 
HETATM   23  C   UNL     1      -8.518   4.097 -30.752  1.00  0.00     0.012 A 
HETATM   24  C   UNL     1      -8.100   4.661 -29.545  1.00  0.00     0.037 A 
HETATM   25  C   UNL     1      -6.749   4.653 -29.219  1.00  0.00     0.065 A 
HETATM   26  C   UNL     1      -5.812   4.093 -30.079  1.00  0.00     0.037 A 
HETATM   27  C   UNL     1      -6.228   3.526 -31.284  1.00  0.00     0.012 A 
BRANCH  25  28
HETATM   28  O   UNL     1      -6.296   5.199 -28.056  1.00  0.00    -0.361 OA
HETATM   29  H   UNL     1      -5.779   5.994 -28.264  1.00  0.00     0.217 HD
ENDBRANCH  25  28
ENDBRANCH   9  22
BRANCH   7  30
HETATM   30  C   UNL     1     -10.241   6.755 -34.916  1.00  0.00     0.036 A 
HETATM   31  C   UNL     1     -10.492   7.849 -34.075  1.00  0.00     0.048 A 
HETATM   32 CL   UNL     1     -10.595   7.717 -32.353  1.00  0.00    -0.083 Cl
HETATM   33  C   UNL     1     -10.722   9.119 -34.624  1.00  0.00     0.025 A 
HETATM   34  C   UNL     1     -10.707   9.310 -36.006  1.00  0.00     0.002 A 
HETATM   35  C   UNL     1     -10.468   8.229 -36.850  1.00  0.00     0.001 A 
HETATM   36  C   UNL     1     -10.241   6.963 -36.309  1.00  0.00     0.017 A 
ENDBRANCH   7  30
TORSDOF 5
ENDMDL
