MODEL 1
REMARK VINA RESULT:      -9.7      0.000      0.000
REMARK  3 active torsions:
REMARK  status: ('A' for Active; 'I' for Inactive)
REMARK    1  A    between atoms: C_8  and  C_9 
REMARK    2  A    between atoms: C_14  and  C_15 
REMARK    3  A    between atoms: C_16  and  O_17 
ROOT
HETATM    1  C   UNL     1     -10.041   1.558 -33.834  1.00  0.00     0.143 A 
HETATM    2  N   UNL     1      -9.662   1.868 -32.610  1.00  0.00    -0.223 NA
HETATM    3  C   UNL     1      -8.324   1.542 -32.515  1.00  0.00     0.149 A 
HETATM    4  C   UNL     1      -7.889   1.017 -33.720  1.00  0.00     0.046 A 
HETATM    5  C   UNL     1      -6.523   0.633 -34.164  1.00  0.00     0.070 C 
HETATM    6  C   UNL     1      -5.792  -0.347 -33.223  1.00  0.00     0.045 C 
HETATM    7  C   UNL     1      -6.264  -0.354 -31.752  1.00  0.00     0.132 C 
HETATM    8  N   UNL     1      -6.394   0.962 -31.155  1.00  0.00    -0.355 N 
HETATM    9  C   UNL     1      -7.505   1.770 -31.321  1.00  0.00     0.272 C 
HETATM   10  O   UNL     1      -7.753   2.627 -30.475  1.00  0.00    -0.266 OA
HETATM   11  N   UNL     1      -8.993   1.013 -34.531  1.00  0.00    -0.341 N 
HETATM   12  H   UNL     1      -9.025   0.718 -35.494  1.00  0.00     0.167 HD
HETATM   13  H   UNL     1      -5.947   1.128 -30.261  1.00  0.00     0.162 HD
ENDROOT
BRANCH   1  14
HETATM   14  C   UNL     1     -11.412   1.796 -34.361  1.00  0.00     0.059 A 
HETATM   15  C   UNL     1     -11.875   2.888 -35.071  1.00  0.00     0.040 A 
HETATM   16  C   UNL     1     -11.251   4.140 -35.553  1.00  0.00     0.071 C 
HETATM   17  N   UNL     1     -13.199   2.623 -35.306  1.00  0.00    -0.281 N 
HETATM   18  H   UNL     1     -13.874   3.197 -35.799  1.00  0.00     0.189 HD
HETATM   19  N   UNL     1     -13.623   1.454 -34.809  1.00  0.00    -0.179 NA
HETATM   20  C   UNL     1     -12.535   0.938 -34.220  1.00  0.00     0.067 A 
HETATM   21  C   UNL     1     -12.613  -0.374 -33.528  1.00  0.00     0.073 C 
ENDBRANCH   1  14
BRANCH   6  22
HETATM   22  C   UNL     1      -5.772  -1.754 -33.828  1.00  0.00    -0.019 A 
HETATM   23  C   UNL     1      -4.620  -2.566 -33.732  1.00  0.00     0.074 A 
HETATM   24  C   UNL     1      -4.626  -3.851 -34.286  1.00  0.00     0.037 A 
HETATM   25  C   UNL     1      -5.757  -4.332 -34.949  1.00  0.00     0.003 A 
HETATM   26  C   UNL     1      -6.884  -3.529 -35.076  1.00  0.00     0.001 A 
HETATM   27  C   UNL     1      -6.890  -2.246 -34.528  1.00  0.00     0.010 A 
BRANCH  23  28
HETATM   28  O   UNL     1      -3.543  -2.012 -33.090  1.00  0.00    -0.355 OA
HETATM   29  C   UNL     1      -3.063  -2.660 -31.919  1.00  0.00     0.210 C 
ENDBRANCH  23  28
ENDBRANCH   6  22
TORSDOF 3
ENDMDL
MODEL 2
REMARK VINA RESULT:      -9.0      4.178      6.614
REMARK  3 active torsions:
REMARK  status: ('A' for Active; 'I' for Inactive)
REMARK    1  A    between atoms: C_8  and  C_9 
REMARK    2  A    between atoms: C_14  and  C_15 
REMARK    3  A    between atoms: C_16  and  O_17 
ROOT
HETATM    1  C   UNL     1      -3.219   3.867 -32.306  1.00  0.00     0.143 A 
HETATM    2  N   UNL     1      -4.236   4.134 -31.513  1.00  0.00    -0.223 NA
HETATM    3  C   UNL     1      -4.694   2.923 -31.033  1.00  0.00     0.149 A 
HETATM    4  C   UNL     1      -3.927   1.898 -31.561  1.00  0.00     0.046 A 
HETATM    5  C   UNL     1      -3.936   0.441 -31.265  1.00  0.00     0.070 C 
HETATM    6  C   UNL     1      -5.318  -0.233 -31.394  1.00  0.00     0.045 C 
HETATM    7  C   UNL     1      -6.543   0.696 -31.235  1.00  0.00     0.132 C 
HETATM    8  N   UNL     1      -6.484   1.579 -30.085  1.00  0.00    -0.355 N 
HETATM    9  C   UNL     1      -5.797   2.780 -30.079  1.00  0.00     0.272 C 
HETATM   10  O   UNL     1      -6.135   3.658 -29.287  1.00  0.00    -0.266 OA
HETATM   11  N   UNL     1      -3.017   2.513 -32.381  1.00  0.00    -0.341 N 
HETATM   12  H   UNL     1      -2.285   2.060 -32.905  1.00  0.00     0.167 HD
HETATM   13  H   UNL     1      -7.283   1.608 -29.463  1.00  0.00     0.162 HD
ENDROOT
BRANCH   1  14
HETATM   14  C   UNL     1      -2.411   4.910 -32.995  1.00  0.00     0.059 A 
HETATM   15  C   UNL     1      -1.254   5.524 -32.551  1.00  0.00     0.040 A 
HETATM   16  C   UNL     1      -0.428   5.399 -31.330  1.00  0.00     0.071 C 
HETATM   17  N   UNL     1      -0.919   6.408 -33.544  1.00  0.00    -0.281 N 
HETATM   18  H   UNL     1      -0.128   7.042 -33.575  1.00  0.00     0.189 HD
HETATM   19  N   UNL     1      -1.760   6.411 -34.585  1.00  0.00    -0.179 NA
HETATM   20  C   UNL     1      -2.686   5.498 -34.258  1.00  0.00     0.067 A 
HETATM   21  C   UNL     1      -3.820   5.224 -35.177  1.00  0.00     0.073 C 
ENDBRANCH   1  14
BRANCH   6  22
HETATM   22  C   UNL     1      -5.390  -1.067 -32.676  1.00  0.00    -0.019 A 
HETATM   23  C   UNL     1      -4.409  -2.042 -32.961  1.00  0.00     0.074 A 
HETATM   24  C   UNL     1      -4.499  -2.797 -34.136  1.00  0.00     0.037 A 
HETATM   25  C   UNL     1      -5.542  -2.582 -35.039  1.00  0.00     0.003 A 
HETATM   26  C   UNL     1      -6.494  -1.602 -34.783  1.00  0.00     0.001 A 
HETATM   27  C   UNL     1      -6.415  -0.843 -33.616  1.00  0.00     0.010 A 
BRANCH  23  28
HETATM   28  O   UNL     1      -3.405  -2.175 -32.038  1.00  0.00    -0.355 OA
HETATM   29  C   UNL     1      -2.947  -3.487 -31.738  1.00  0.00     0.210 C 
ENDBRANCH  23  28
ENDBRANCH   6  22
TORSDOF 3
ENDMDL
MODEL 3
REMARK VINA RESULT:      -8.1      4.416      7.138
REMARK  3 active torsions:
REMARK  status: ('A' for Active; 'I' for Inactive)
REMARK    1  A    between atoms: C_8  and  C_9 
REMARK    2  A    between atoms: C_14  and  C_15 
REMARK    3  A    between atoms: C_16  and  O_17 
ROOT
HETATM    1  C   UNL     1      -3.318   4.447 -31.979  1.00  0.00     0.143 A 
HETATM    2  N   UNL     1      -4.297   4.836 -31.187  1.00  0.00    -0.223 NA
HETATM    3  C   UNL     1      -4.887   3.691 -30.693  1.00  0.00     0.149 A 
HETATM    4  C   UNL     1      -4.243   2.579 -31.209  1.00  0.00     0.046 A 
HETATM    5  C   UNL     1      -4.416   1.136 -30.896  1.00  0.00     0.070 C 
HETATM    6  C   UNL     1      -5.866   0.621 -31.016  1.00  0.00     0.045 C 
HETATM    7  C   UNL     1      -6.977   1.684 -30.867  1.00  0.00     0.132 C 
HETATM    8  N   UNL     1      -6.816   2.569 -29.727  1.00  0.00    -0.355 N 
HETATM    9  C   UNL     1      -5.998   3.685 -29.736  1.00  0.00     0.272 C 
HETATM   10  O   UNL     1      -6.233   4.604 -28.955  1.00  0.00    -0.266 OA
HETATM   11  N   UNL     1      -3.271   3.077 -32.037  1.00  0.00    -0.341 N 
HETATM   12  H   UNL     1      -2.596   2.539 -32.556  1.00  0.00     0.167 HD
HETATM   13  H   UNL     1      -7.606   2.695 -29.105  1.00  0.00     0.162 HD
ENDROOT
BRANCH   1  14
HETATM   14  C   UNL     1      -2.399   5.383 -32.680  1.00  0.00     0.059 A 
HETATM   15  C   UNL     1      -1.329   6.083 -32.153  1.00  0.00     0.040 A 
HETATM   16  C   UNL     1      -0.721   6.170 -30.807  1.00  0.00     0.071 C 
HETATM   17  N   UNL     1      -0.825   6.805 -33.204  1.00  0.00    -0.281 N 
HETATM   18  H   UNL     1      -0.036   7.442 -33.203  1.00  0.00     0.189 HD
HETATM   19  N   UNL     1      -1.479   6.626 -34.358  1.00  0.00    -0.179 NA
HETATM   20  C   UNL     1      -2.453   5.758 -34.048  1.00  0.00     0.067 A 
HETATM   21  C   UNL     1      -3.418   5.319 -35.089  1.00  0.00     0.073 C 
ENDBRANCH   1  14
BRANCH   6  22
HETATM   22  C   UNL     1      -6.034  -0.214 -32.288  1.00  0.00    -0.019 A 
HETATM   23  C   UNL     1      -7.306  -0.383 -32.879  1.00  0.00     0.074 A 
HETATM   24  C   UNL     1      -7.435  -1.145 -34.046  1.00  0.00     0.037 A 
HETATM   25  C   UNL     1      -6.319  -1.755 -34.622  1.00  0.00     0.003 A 
HETATM   26  C   UNL     1      -5.069  -1.620 -34.030  1.00  0.00     0.001 A 
HETATM   27  C   UNL     1      -4.927  -0.864 -32.867  1.00  0.00     0.010 A 
BRANCH  23  28
HETATM   28  O   UNL     1      -8.355   0.224 -32.238  1.00  0.00    -0.355 OA
HETATM   29  C   UNL     1      -9.666  -0.022 -32.730  1.00  0.00     0.210 C 
ENDBRANCH  23  28
ENDBRANCH   6  22
TORSDOF 3
ENDMDL
MODEL 4
REMARK VINA RESULT:      -8.1      2.770      7.407
REMARK  3 active torsions:
REMARK  status: ('A' for Active; 'I' for Inactive)
REMARK    1  A    between atoms: C_8  and  C_9 
REMARK    2  A    between atoms: C_14  and  C_15 
REMARK    3  A    between atoms: C_16  and  O_17 
ROOT
HETATM    1  C   UNL     1      -6.470   0.847 -33.105  1.00  0.00     0.143 A 
HETATM    2  N   UNL     1      -6.272   1.992 -33.726  1.00  0.00    -0.223 NA
HETATM    3  C   UNL     1      -7.365   2.788 -33.447  1.00  0.00     0.149 A 
HETATM    4  C   UNL     1      -8.247   2.094 -32.635  1.00  0.00     0.046 A 
HETATM    5  C   UNL     1      -9.495   2.546 -31.964  1.00  0.00     0.070 C 
HETATM    6  C   UNL     1     -10.531   3.195 -32.904  1.00  0.00     0.045 C 
HETATM    7  C   UNL     1      -9.974   3.805 -34.210  1.00  0.00     0.132 C 
HETATM    8  N   UNL     1      -8.810   4.655 -34.029  1.00  0.00    -0.355 N 
HETATM    9  C   UNL     1      -7.519   4.167 -33.917  1.00  0.00     0.272 C 
HETATM   10  O   UNL     1      -6.577   4.900 -34.210  1.00  0.00    -0.266 OA
HETATM   11  N   UNL     1      -7.674   0.862 -32.450  1.00  0.00    -0.341 N 
HETATM   12  H   UNL     1      -8.040   0.114 -31.884  1.00  0.00     0.167 HD
HETATM   13  H   UNL     1      -8.821   5.576 -34.449  1.00  0.00     0.162 HD
ENDROOT
BRANCH   1  14
HETATM   14  C   UNL     1      -5.495  -0.278 -33.115  1.00  0.00     0.059 A 
HETATM   15  C   UNL     1      -4.278  -0.358 -32.465  1.00  0.00     0.040 A 
HETATM   16  C   UNL     1      -3.526   0.555 -31.576  1.00  0.00     0.071 C 
HETATM   17  N   UNL     1      -3.773  -1.586 -32.807  1.00  0.00    -0.281 N 
HETATM   18  H   UNL     1      -2.892  -2.001 -32.523  1.00  0.00     0.189 HD
HETATM   19  N   UNL     1      -4.563  -2.299 -33.618  1.00  0.00    -0.179 NA
HETATM   20  C   UNL     1      -5.624  -1.504 -33.820  1.00  0.00     0.067 A 
HETATM   21  C   UNL     1      -6.734  -1.952 -34.699  1.00  0.00     0.073 C 
ENDBRANCH   1  14
BRANCH   6  22
HETATM   22  C   UNL     1     -11.692   2.232 -33.169  1.00  0.00    -0.019 A 
HETATM   23  C   UNL     1     -13.031   2.662 -33.044  1.00  0.00     0.074 A 
HETATM   24  C   UNL     1     -14.076   1.766 -33.297  1.00  0.00     0.037 A 
HETATM   25  C   UNL     1     -13.805   0.445 -33.655  1.00  0.00     0.003 A 
HETATM   26  C   UNL     1     -12.491   0.004 -33.749  1.00  0.00     0.001 A 
HETATM   27  C   UNL     1     -11.441   0.887 -33.499  1.00  0.00     0.010 A 
BRANCH  23  28
HETATM   28  O   UNL     1     -13.213   3.966 -32.663  1.00  0.00    -0.355 OA
HETATM   29  C   UNL     1     -13.817   4.211 -31.399  1.00  0.00     0.210 C 
ENDBRANCH  23  28
ENDBRANCH   6  22
TORSDOF 3
ENDMDL
MODEL 5
REMARK VINA RESULT:      -8.1     13.800     15.050
REMARK  3 active torsions:
REMARK  status: ('A' for Active; 'I' for Inactive)
REMARK    1  A    between atoms: C_8  and  C_9 
REMARK    2  A    between atoms: C_14  and  C_15 
REMARK    3  A    between atoms: C_16  and  O_17 
ROOT
HETATM    1  C   UNL     1      -8.669 -13.434 -39.147  1.00  0.00     0.143 A 
HETATM    2  N   UNL     1      -8.532 -13.695 -37.862  1.00  0.00    -0.223 NA
HETATM    3  C   UNL     1      -7.264 -13.284 -37.507  1.00  0.00     0.149 A 
HETATM    4  C   UNL     1      -6.618 -12.763 -38.616  1.00  0.00     0.046 A 
HETATM    5  C   UNL     1      -5.300 -12.085 -38.732  1.00  0.00     0.070 C 
HETATM    6  C   UNL     1      -4.115 -12.879 -38.144  1.00  0.00     0.045 C 
HETATM    7  C   UNL     1      -4.468 -13.919 -37.056  1.00  0.00     0.132 C 
HETATM    8  N   UNL     1      -5.349 -13.424 -36.014  1.00  0.00    -0.355 N 
HETATM    9  C   UNL     1      -6.725 -13.360 -36.146  1.00  0.00     0.272 C 
HETATM   10  O   UNL     1      -7.423 -13.367 -35.134  1.00  0.00    -0.266 OA
HETATM   11  N   UNL     1      -7.514 -12.890 -39.646  1.00  0.00    -0.341 N 
HETATM   12  H   UNL     1      -7.377 -12.583 -40.596  1.00  0.00     0.167 HD
HETATM   13  H   UNL     1      -5.077 -13.570 -35.049  1.00  0.00     0.162 HD
ENDROOT
BRANCH   1  14
HETATM   14  C   UNL     1      -9.919 -13.687 -39.914  1.00  0.00     0.059 A 
HETATM   15  C   UNL     1     -10.814 -12.762 -40.415  1.00  0.00     0.040 A 
HETATM   16  C   UNL     1     -10.882 -11.283 -40.398  1.00  0.00     0.071 C 
HETATM   17  N   UNL     1     -11.790 -13.506 -41.025  1.00  0.00    -0.281 N 
HETATM   18  H   UNL     1     -12.620 -13.176 -41.506  1.00  0.00     0.189 HD
HETATM   19  N   UNL     1     -11.595 -14.829 -40.958  1.00  0.00    -0.179 NA
HETATM   20  C   UNL     1     -10.450 -14.954 -40.272  1.00  0.00     0.067 A 
HETATM   21  C   UNL     1      -9.904 -16.303 -39.976  1.00  0.00     0.073 C 
ENDBRANCH   1  14
BRANCH   6  22
HETATM   22  C   UNL     1      -3.267 -13.485 -39.266  1.00  0.00    -0.019 A 
HETATM   23  C   UNL     1      -1.887 -13.721 -39.082  1.00  0.00     0.074 A 
HETATM   24  C   UNL     1      -1.133 -14.283 -40.120  1.00  0.00     0.037 A 
HETATM   25  C   UNL     1      -1.731 -14.594 -41.342  1.00  0.00     0.003 A 
HETATM   26  C   UNL     1      -3.082 -14.335 -41.543  1.00  0.00     0.001 A 
HETATM   27  C   UNL     1      -3.843 -13.776 -40.517  1.00  0.00     0.010 A 
BRANCH  23  28
HETATM   28  O   UNL     1      -1.370 -13.364 -37.864  1.00  0.00    -0.355 OA
HETATM   29  C   UNL     1      -0.852 -14.396 -37.035  1.00  0.00     0.210 C 
ENDBRANCH  23  28
ENDBRANCH   6  22
TORSDOF 3
ENDMDL
MODEL 6
REMARK VINA RESULT:      -8.1      6.495      8.932
REMARK  3 active torsions:
REMARK  status: ('A' for Active; 'I' for Inactive)
REMARK    1  A    between atoms: C_8  and  C_9 
REMARK    2  A    between atoms: C_14  and  C_15 
REMARK    3  A    between atoms: C_16  and  O_17 
ROOT
HETATM    1  C   UNL     1      -4.526   3.186 -32.034  1.00  0.00     0.143 A 
HETATM    2  N   UNL     1      -4.749   3.809 -33.173  1.00  0.00    -0.223 NA
HETATM    3  C   UNL     1      -3.632   4.578 -33.430  1.00  0.00     0.149 A 
HETATM    4  C   UNL     1      -2.712   4.413 -32.408  1.00  0.00     0.046 A 
HETATM    5  C   UNL     1      -1.320   4.919 -32.276  1.00  0.00     0.070 C 
HETATM    6  C   UNL     1      -1.171   6.444 -32.457  1.00  0.00     0.045 C 
HETATM    7  C   UNL     1      -2.277   7.141 -33.281  1.00  0.00     0.132 C 
HETATM    8  N   UNL     1      -2.599   6.483 -34.534  1.00  0.00    -0.355 N 
HETATM    9  C   UNL     1      -3.457   5.401 -34.630  1.00  0.00     0.272 C 
HETATM   10  O   UNL     1      -4.025   5.182 -35.698  1.00  0.00    -0.266 OA
HETATM   11  N   UNL     1      -3.305   3.549 -31.525  1.00  0.00    -0.341 N 
HETATM   12  H   UNL     1      -2.897   3.190 -30.676  1.00  0.00     0.167 HD
HETATM   13  H   UNL     1      -2.616   7.043 -35.377  1.00  0.00     0.162 HD
ENDROOT
BRANCH   1  14
HETATM   14  C   UNL     1      -5.475   2.216 -31.423  1.00  0.00     0.059 A 
HETATM   15  C   UNL     1      -6.466   2.464 -30.491  1.00  0.00     0.040 A 
HETATM   16  C   UNL     1      -6.941   3.680 -29.796  1.00  0.00     0.071 C 
HETATM   17  N   UNL     1      -7.041   1.243 -30.252  1.00  0.00    -0.281 N 
HETATM   18  H   UNL     1      -7.804   1.025 -29.621  1.00  0.00     0.189 HD
HETATM   19  N   UNL     1      -6.505   0.236 -30.951  1.00  0.00    -0.179 NA
HETATM   20  C   UNL     1      -5.536   0.819 -31.672  1.00  0.00     0.067 A 
HETATM   21  C   UNL     1      -4.689   0.005 -32.580  1.00  0.00     0.073 C 
ENDBRANCH   1  14
BRANCH   6  22
HETATM   22  C   UNL     1      -0.946   7.124 -31.103  1.00  0.00    -0.019 A 
HETATM   23  C   UNL     1       0.097   6.706 -30.248  1.00  0.00     0.074 A 
HETATM   24  C   UNL     1       0.287   7.348 -29.018  1.00  0.00     0.037 A 
HETATM   25  C   UNL     1      -0.557   8.386 -28.622  1.00  0.00     0.003 A 
HETATM   26  C   UNL     1      -1.606   8.783 -29.443  1.00  0.00     0.001 A 
HETATM   27  C   UNL     1      -1.806   8.152 -30.670  1.00  0.00     0.010 A 
BRANCH  23  28
HETATM   28  O   UNL     1       0.864   5.664 -30.697  1.00  0.00    -0.355 OA
HETATM   29  C   UNL     1       1.183   4.628 -29.776  1.00  0.00     0.210 C 
ENDBRANCH  23  28
ENDBRANCH   6  22
TORSDOF 3
ENDMDL
MODEL 7
REMARK VINA RESULT:      -8.0      7.092      9.919
REMARK  3 active torsions:
REMARK  status: ('A' for Active; 'I' for Inactive)
REMARK    1  A    between atoms: C_8  and  C_9 
REMARK    2  A    between atoms: C_14  and  C_15 
REMARK    3  A    between atoms: C_16  and  O_17 
ROOT
HETATM    1  C   UNL     1      -3.330   3.257 -32.235  1.00  0.00     0.143 A 
HETATM    2  N   UNL     1      -2.968   3.835 -33.362  1.00  0.00    -0.223 NA
HETATM    3  C   UNL     1      -2.015   4.778 -33.036  1.00  0.00     0.149 A 
HETATM    4  C   UNL     1      -1.803   4.767 -31.668  1.00  0.00     0.046 A 
HETATM    5  C   UNL     1      -0.803   5.497 -30.844  1.00  0.00     0.070 C 
HETATM    6  C   UNL     1      -0.790   7.025 -31.053  1.00  0.00     0.045 C 
HETATM    7  C   UNL     1      -1.338   7.529 -32.407  1.00  0.00     0.132 C 
HETATM    8  N   UNL     1      -0.818   6.827 -33.567  1.00  0.00    -0.355 N 
HETATM    9  C   UNL     1      -1.321   5.619 -34.016  1.00  0.00     0.272 C 
HETATM   10  O   UNL     1      -1.165   5.308 -35.195  1.00  0.00    -0.266 OA
HETATM   11  N   UNL     1      -2.660   3.817 -31.178  1.00  0.00    -0.341 N 
HETATM   12  H   UNL     1      -2.746   3.531 -30.215  1.00  0.00     0.167 HD
HETATM   13  H   UNL     1      -0.442   7.377 -34.329  1.00  0.00     0.162 HD
ENDROOT
BRANCH   1  14
HETATM   14  C   UNL     1      -4.315   2.144 -32.155  1.00  0.00     0.059 A 
HETATM   15  C   UNL     1      -4.106   0.850 -31.714  1.00  0.00     0.040 A 
HETATM   16  C   UNL     1      -2.930   0.121 -31.187  1.00  0.00     0.071 C 
HETATM   17  N   UNL     1      -5.319   0.228 -31.852  1.00  0.00    -0.281 N 
HETATM   18  H   UNL     1      -5.558  -0.733 -31.632  1.00  0.00     0.189 HD
HETATM   19  N   UNL     1      -6.287   1.012 -32.342  1.00  0.00    -0.179 NA
HETATM   20  C   UNL     1      -5.681   2.192 -32.538  1.00  0.00     0.067 A 
HETATM   21  C   UNL     1      -6.443   3.337 -33.100  1.00  0.00     0.073 C 
ENDBRANCH   1  14
BRANCH   6  22
HETATM   22  C   UNL     1      -1.449   7.734 -29.866  1.00  0.00    -0.019 A 
HETATM   23  C   UNL     1      -0.673   8.211 -28.788  1.00  0.00     0.074 A 
HETATM   24  C   UNL     1      -1.296   8.862 -27.716  1.00  0.00     0.037 A 
HETATM   25  C   UNL     1      -2.682   9.027 -27.696  1.00  0.00     0.003 A 
HETATM   26  C   UNL     1      -3.457   8.532 -28.738  1.00  0.00     0.001 A 
HETATM   27  C   UNL     1      -2.848   7.882 -29.811  1.00  0.00     0.010 A 
BRANCH  23  28
HETATM   28  O   UNL     1       0.677   7.987 -28.869  1.00  0.00    -0.355 OA
HETATM   29  C   UNL     1       1.489   8.421 -27.786  1.00  0.00     0.210 C 
ENDBRANCH  23  28
ENDBRANCH   6  22
TORSDOF 3
ENDMDL
MODEL 8
REMARK VINA RESULT:      -7.9      4.665      8.264
REMARK  3 active torsions:
REMARK  status: ('A' for Active; 'I' for Inactive)
REMARK    1  A    between atoms: C_8  and  C_9 
REMARK    2  A    between atoms: C_14  and  C_15 
REMARK    3  A    between atoms: C_16  and  O_17 
ROOT
HETATM    1  C   UNL     1      -2.958   4.253 -32.327  1.00  0.00     0.143 A 
HETATM    2  N   UNL     1      -2.544   3.198 -31.655  1.00  0.00    -0.223 NA
HETATM    3  C   UNL     1      -3.562   2.268 -31.712  1.00  0.00     0.149 A 
HETATM    4  C   UNL     1      -4.621   2.784 -32.438  1.00  0.00     0.046 A 
HETATM    5  C   UNL     1      -5.886   2.142 -32.885  1.00  0.00     0.070 C 
HETATM    6  C   UNL     1      -6.701   1.475 -31.757  1.00  0.00     0.045 C 
HETATM    7  C   UNL     1      -5.904   1.052 -30.503  1.00  0.00     0.132 C 
HETATM    8  N   UNL     1      -4.683   0.319 -30.784  1.00  0.00    -0.355 N 
HETATM    9  C   UNL     1      -3.486   0.929 -31.119  1.00  0.00     0.272 C 
HETATM   10  O   UNL     1      -2.432   0.332 -30.911  1.00  0.00    -0.266 OA
HETATM   11  N   UNL     1      -4.230   4.048 -32.797  1.00  0.00    -0.341 N 
HETATM   12  H   UNL     1      -4.755   4.697 -33.361  1.00  0.00     0.167 HD
HETATM   13  H   UNL     1      -4.528  -0.555 -30.298  1.00  0.00     0.162 HD
ENDROOT
BRANCH   1  14
HETATM   14  C   UNL     1      -2.132   5.472 -32.545  1.00  0.00     0.059 A 
HETATM   15  C   UNL     1      -1.831   6.471 -31.639  1.00  0.00     0.040 A 
HETATM   16  C   UNL     1      -2.173   6.708 -30.218  1.00  0.00     0.071 C 
HETATM   17  N   UNL     1      -1.055   7.360 -32.336  1.00  0.00    -0.281 N 
HETATM   18  H   UNL     1      -0.644   8.226 -32.004  1.00  0.00     0.189 HD
HETATM   19  N   UNL     1      -0.832   7.015 -33.610  1.00  0.00    -0.179 NA
HETATM   20  C   UNL     1      -1.493   5.857 -33.753  1.00  0.00     0.067 A 
HETATM   21  C   UNL     1      -1.495   5.157 -35.063  1.00  0.00     0.073 C 
ENDBRANCH   1  14
BRANCH   6  22
HETATM   22  C   UNL     1      -7.922   2.329 -31.402  1.00  0.00    -0.019 A 
HETATM   23  C   UNL     1      -9.155   2.138 -32.063  1.00  0.00     0.074 A 
HETATM   24  C   UNL     1     -10.259   2.926 -31.717  1.00  0.00     0.037 A 
HETATM   25  C   UNL     1     -10.147   3.912 -30.736  1.00  0.00     0.003 A 
HETATM   26  C   UNL     1      -8.929   4.130 -30.103  1.00  0.00     0.001 A 
HETATM   27  C   UNL     1      -7.821   3.352 -30.439  1.00  0.00     0.010 A 
BRANCH  23  28
HETATM   28  O   UNL     1      -9.176   1.168 -33.031  1.00  0.00    -0.355 OA
HETATM   29  C   UNL     1     -10.002   0.031 -32.814  1.00  0.00     0.210 C 
ENDBRANCH  23  28
ENDBRANCH   6  22
TORSDOF 3
ENDMDL
MODEL 9
REMARK VINA RESULT:      -7.9      3.500      7.399
REMARK  3 active torsions:
REMARK  status: ('A' for Active; 'I' for Inactive)
REMARK    1  A    between atoms: C_8  and  C_9 
REMARK    2  A    between atoms: C_14  and  C_15 
REMARK    3  A    between atoms: C_16  and  O_17 
ROOT
HETATM    1  C   UNL     1      -5.695  -1.670 -33.681  1.00  0.00     0.143 A 
HETATM    2  N   UNL     1      -6.918  -1.548 -33.208  1.00  0.00    -0.223 NA
HETATM    3  C   UNL     1      -7.253  -0.214 -33.313  1.00  0.00     0.149 A 
HETATM    4  C   UNL     1      -6.193   0.487 -33.864  1.00  0.00     0.046 A 
HETATM    5  C   UNL     1      -6.098   1.908 -34.292  1.00  0.00     0.070 C 
HETATM    6  C   UNL     1      -6.495   2.933 -33.209  1.00  0.00     0.045 C 
HETATM    7  C   UNL     1      -7.442   2.417 -32.102  1.00  0.00     0.132 C 
HETATM    8  N   UNL     1      -8.595   1.681 -32.590  1.00  0.00    -0.355 N 
HETATM    9  C   UNL     1      -8.555   0.341 -32.932  1.00  0.00     0.272 C 
HETATM   10  O   UNL     1      -9.595  -0.314 -32.903  1.00  0.00    -0.266 OA
HETATM   11  N   UNL     1      -5.210  -0.447 -34.067  1.00  0.00    -0.341 N 
HETATM   12  H   UNL     1      -4.308  -0.282 -34.482  1.00  0.00     0.167 HD
HETATM   13  H   UNL     1      -9.511   1.949 -32.252  1.00  0.00     0.162 HD
ENDROOT
BRANCH   1  14
HETATM   14  C   UNL     1      -4.974  -2.968 -33.787  1.00  0.00     0.059 A 
HETATM   15  C   UNL     1      -5.281  -4.051 -34.590  1.00  0.00     0.040 A 
HETATM   16  C   UNL     1      -6.346  -4.328 -35.579  1.00  0.00     0.071 C 
HETATM   17  N   UNL     1      -4.322  -4.987 -34.304  1.00  0.00    -0.281 N 
HETATM   18  H   UNL     1      -4.219  -5.917 -34.697  1.00  0.00     0.189 HD
HETATM   19  N   UNL     1      -3.426  -4.597 -33.389  1.00  0.00    -0.179 NA
HETATM   20  C   UNL     1      -3.820  -3.358 -33.058  1.00  0.00     0.067 A 
HETATM   21  C   UNL     1      -3.067  -2.586 -32.036  1.00  0.00     0.073 C 
ENDBRANCH   1  14
BRANCH   6  22
HETATM   22  C   UNL     1      -5.250   3.611 -32.631  1.00  0.00    -0.019 A 
HETATM   23  C   UNL     1      -5.119   5.017 -32.649  1.00  0.00     0.074 A 
HETATM   24  C   UNL     1      -3.974   5.616 -32.108  1.00  0.00     0.037 A 
HETATM   25  C   UNL     1      -2.953   4.833 -31.568  1.00  0.00     0.003 A 
HETATM   26  C   UNL     1      -3.059   3.447 -31.575  1.00  0.00     0.001 A 
HETATM   27  C   UNL     1      -4.194   2.839 -32.110  1.00  0.00     0.010 A 
BRANCH  23  28
HETATM   28  O   UNL     1      -6.152   5.712 -33.220  1.00  0.00    -0.355 OA
HETATM   29  C   UNL     1      -6.839   6.662 -32.415  1.00  0.00     0.210 C 
ENDBRANCH  23  28
ENDBRANCH   6  22
TORSDOF 3
ENDMDL
MODEL 10
REMARK VINA RESULT:      -7.7      6.775      9.768
REMARK  3 active torsions:
REMARK  status: ('A' for Active; 'I' for Inactive)
REMARK    1  A    between atoms: C_8  and  C_9 
REMARK    2  A    between atoms: C_14  and  C_15 
REMARK    3  A    between atoms: C_16  and  O_17 
ROOT
HETATM    1  C   UNL     1      -1.992   6.810 -29.801  1.00  0.00     0.143 A 
HETATM    2  N   UNL     1      -1.517   7.264 -30.943  1.00  0.00    -0.223 NA
HETATM    3  C   UNL     1      -2.362   6.807 -31.934  1.00  0.00     0.149 A 
HETATM    4  C   UNL     1      -3.373   6.051 -31.368  1.00  0.00     0.046 A 
HETATM    5  C   UNL     1      -4.584   5.447 -31.984  1.00  0.00     0.070 C 
HETATM    6  C   UNL     1      -4.304   4.551 -33.209  1.00  0.00     0.045 C 
HETATM    7  C   UNL     1      -2.987   4.832 -33.967  1.00  0.00     0.132 C 
HETATM    8  N   UNL     1      -2.751   6.233 -34.265  1.00  0.00    -0.355 N 
HETATM    9  C   UNL     1      -2.209   7.126 -33.357  1.00  0.00     0.272 C 
HETATM   10  O   UNL     1      -1.635   8.129 -33.775  1.00  0.00    -0.266 OA
HETATM   11  N   UNL     1      -3.109   6.044 -30.023  1.00  0.00    -0.341 N 
HETATM   12  H   UNL     1      -3.666   5.606 -29.307  1.00  0.00     0.167 HD
HETATM   13  H   UNL     1      -2.514   6.486 -35.217  1.00  0.00     0.162 HD
ENDROOT
BRANCH   1  14
HETATM   14  C   UNL     1      -1.392   7.117 -28.475  1.00  0.00     0.059 A 
HETATM   15  C   UNL     1      -1.860   7.987 -27.507  1.00  0.00     0.040 A 
HETATM   16  C   UNL     1      -3.039   8.876 -27.409  1.00  0.00     0.071 C 
HETATM   17  N   UNL     1      -0.945   7.912 -26.490  1.00  0.00    -0.281 N 
HETATM   18  H   UNL     1      -0.948   8.412 -25.608  1.00  0.00     0.189 HD
HETATM   19  N   UNL     1       0.068   7.068 -26.722  1.00  0.00    -0.179 NA
HETATM   20  C   UNL     1      -0.192   6.576 -27.942  1.00  0.00     0.067 A 
HETATM   21  C   UNL     1       0.736   5.598 -28.564  1.00  0.00     0.073 C 
ENDBRANCH   1  14
BRANCH   6  22
HETATM   22  C   UNL     1      -4.448   3.073 -32.835  1.00  0.00    -0.019 A 
HETATM   23  C   UNL     1      -5.610   2.350 -33.184  1.00  0.00     0.074 A 
HETATM   24  C   UNL     1      -5.717   0.997 -32.838  1.00  0.00     0.037 A 
HETATM   25  C   UNL     1      -4.693   0.362 -32.134  1.00  0.00     0.003 A 
HETATM   26  C   UNL     1      -3.560   1.075 -31.758  1.00  0.00     0.001 A 
HETATM   27  C   UNL     1      -3.441   2.422 -32.097  1.00  0.00     0.010 A 
BRANCH  23  28
HETATM   28  O   UNL     1      -6.581   3.051 -33.850  1.00  0.00    -0.355 OA
HETATM   29  C   UNL     1      -7.936   2.686 -33.625  1.00  0.00     0.210 C 
ENDBRANCH  23  28
ENDBRANCH   6  22
TORSDOF 3
ENDMDL
