MODEL 1
REMARK VINA RESULT:      -9.2      0.000      0.000
REMARK  5 active torsions:
REMARK  status: ('A' for Active; 'I' for Inactive)
REMARK    1  A    between atoms: O_2  and  C_3 
REMARK    2  A    between atoms: C_4  and  C_5 
REMARK       I    between atoms: C_5  and  N_6 
REMARK    3  A    between atoms: N_6  and  C_7 
REMARK    4  A    between atoms: C_7  and  C_8 
REMARK       I    between atoms: C_8  and  N_9 
REMARK    5  A    between atoms: N_9  and  N_10 
ROOT
HETATM    1  C   UNL     1      -5.683   2.084 -31.310  1.00  0.00     0.255 C 
HETATM    2  N   UNL     1      -4.727   1.641 -32.210  1.00  0.00    -0.245 N 
HETATM    3  O   UNL     1      -6.757   1.516 -31.099  1.00  0.00    -0.270 OA
HETATM    4  H   UNL     1      -3.798   2.075 -32.222  1.00  0.00     0.192 HD
ENDROOT
BRANCH   1   5
HETATM    5  C   UNL     1      -5.252   3.266 -30.439  1.00  0.00     0.227 C 
BRANCH   5   6
HETATM    6  N   UNL     1      -4.108   4.036 -30.904  1.00  0.00    -0.348 N 
HETATM    7  C   UNL     1      -4.213   5.391 -31.143  1.00  0.00     0.254 C 
HETATM    8  O   UNL     1      -5.171   6.048 -30.754  1.00  0.00    -0.268 OA
HETATM    9  H   UNL     1      -3.367   3.523 -31.363  1.00  0.00     0.163 HD
BRANCH   7  10
HETATM   10  C   UNL     1      -3.078   6.001 -31.885  1.00  0.00     0.065 A 
HETATM   11  C   UNL     1      -3.189   6.297 -33.249  1.00  0.00     0.084 A 
HETATM   12  C   UNL     1      -2.097   6.832 -33.942  1.00  0.00     0.038 A 
HETATM   13  C   UNL     1      -0.907   7.108 -33.268  1.00  0.00     0.003 A 
HETATM   14  C   UNL     1      -0.801   6.844 -31.902  1.00  0.00     0.001 A 
HETATM   15  C   UNL     1      -1.883   6.294 -31.210  1.00  0.00     0.020 A 
BRANCH  11  16
HETATM   16  O   UNL     1      -4.318   5.967 -33.950  1.00  0.00    -0.355 OA
HETATM   17  C   UNL     1      -3.997   5.102 -35.040  1.00  0.00     0.210 C 
ENDBRANCH  11  16
ENDBRANCH   7  10
ENDBRANCH   5   6
ENDBRANCH   1   5
BRANCH   2  18
HETATM   18  N   UNL     1      -4.942   0.469 -32.880  1.00  0.00    -0.166 NA
HETATM   19  C   UNL     1      -4.199  -0.544 -32.578  1.00  0.00     0.157 A 
HETATM   20  C   UNL     1      -3.020  -0.636 -31.604  1.00  0.00     0.277 A 
HETATM   21  C   UNL     1      -4.360  -1.883 -33.134  1.00  0.00     0.028 A 
HETATM   22  O   UNL     1      -2.533   0.289 -30.994  1.00  0.00    -0.266 OA
HETATM   23  N   UNL     1      -2.636  -1.962 -31.617  1.00  0.00    -0.321 N 
HETATM   24  C   UNL     1      -3.410  -2.692 -32.513  1.00  0.00     0.048 A 
HETATM   25  H   UNL     1      -1.873  -2.318 -31.061  1.00  0.00     0.169 HD
HETATM   26  C   UNL     1      -3.313  -4.035 -32.807  1.00  0.00     0.032 A 
HETATM   27  C   UNL     1      -4.204  -4.552 -33.756  1.00  0.00     0.021 A 
HETATM   28  C   UNL     1      -5.160  -3.721 -34.379  1.00  0.00     0.012 A 
HETATM   29 BR   UNL     1      -6.338  -4.466 -35.658  1.00  0.00    -0.051 Br
HETATM   30  C   UNL     1      -5.251  -2.364 -34.072  1.00  0.00     0.035 A 
ENDBRANCH   2  18
TORSDOF 5
ENDMDL
MODEL 2
REMARK VINA RESULT:      -9.0      0.765      1.786
REMARK  5 active torsions:
REMARK  status: ('A' for Active; 'I' for Inactive)
REMARK    1  A    between atoms: O_2  and  C_3 
REMARK    2  A    between atoms: C_4  and  C_5 
REMARK       I    between atoms: C_5  and  N_6 
REMARK    3  A    between atoms: N_6  and  C_7 
REMARK    4  A    between atoms: C_7  and  C_8 
REMARK       I    between atoms: C_8  and  N_9 
REMARK    5  A    between atoms: N_9  and  N_10 
ROOT
HETATM    1  C   UNL     1      -5.692   2.028 -31.252  1.00  0.00     0.255 C 
HETATM    2  N   UNL     1      -4.789   1.655 -32.235  1.00  0.00    -0.245 N 
HETATM    3  O   UNL     1      -6.702   1.386 -30.954  1.00  0.00    -0.270 OA
HETATM    4  H   UNL     1      -3.897   2.153 -32.323  1.00  0.00     0.192 HD
ENDROOT
BRANCH   1   5
HETATM    5  C   UNL     1      -5.269   3.233 -30.409  1.00  0.00     0.227 C 
BRANCH   5   6
HETATM    6  N   UNL     1      -4.144   4.012 -30.905  1.00  0.00    -0.348 N 
HETATM    7  C   UNL     1      -4.336   5.255 -31.472  1.00  0.00     0.254 C 
HETATM    8  O   UNL     1      -5.397   5.860 -31.372  1.00  0.00    -0.268 OA
HETATM    9  H   UNL     1      -3.301   3.503 -31.134  1.00  0.00     0.163 HD
BRANCH   7  10
HETATM   10  C   UNL     1      -3.166   5.817 -32.198  1.00  0.00     0.065 A 
HETATM   11  C   UNL     1      -2.081   6.361 -31.500  1.00  0.00     0.084 A 
HETATM   12  C   UNL     1      -1.008   6.924 -32.199  1.00  0.00     0.038 A 
HETATM   13  C   UNL     1      -0.997   6.909 -33.595  1.00  0.00     0.003 A 
HETATM   14  C   UNL     1      -2.060   6.340 -34.295  1.00  0.00     0.001 A 
HETATM   15  C   UNL     1      -3.142   5.793 -33.602  1.00  0.00     0.020 A 
BRANCH  11  16
HETATM   16  O   UNL     1      -2.102   6.456 -30.134  1.00  0.00    -0.355 OA
HETATM   17  C   UNL     1      -0.772   6.484 -29.614  1.00  0.00     0.210 C 
ENDBRANCH  11  16
ENDBRANCH   7  10
ENDBRANCH   5   6
ENDBRANCH   1   5
BRANCH   2  18
HETATM   18  N   UNL     1      -4.981   0.474 -32.895  1.00  0.00    -0.166 NA
HETATM   19  C   UNL     1      -4.223  -0.524 -32.581  1.00  0.00     0.157 A 
HETATM   20  C   UNL     1      -3.048  -0.587 -31.598  1.00  0.00     0.277 A 
HETATM   21  C   UNL     1      -4.359  -1.871 -33.125  1.00  0.00     0.028 A 
HETATM   22  O   UNL     1      -2.580   0.351 -30.994  1.00  0.00    -0.266 OA
HETATM   23  N   UNL     1      -2.642  -1.907 -31.597  1.00  0.00    -0.321 N 
HETATM   24  C   UNL     1      -3.399  -2.657 -32.491  1.00  0.00     0.048 A 
HETATM   25  H   UNL     1      -1.876  -2.244 -31.034  1.00  0.00     0.169 HD
HETATM   26  C   UNL     1      -3.277  -4.002 -32.772  1.00  0.00     0.032 A 
HETATM   27  C   UNL     1      -4.154  -4.542 -33.722  1.00  0.00     0.021 A 
HETATM   28  C   UNL     1      -5.120  -3.733 -34.358  1.00  0.00     0.012 A 
HETATM   29 BR   UNL     1      -6.278  -4.509 -35.636  1.00  0.00    -0.051 Br
HETATM   30  C   UNL     1      -5.236  -2.374 -34.064  1.00  0.00     0.035 A 
ENDBRANCH   2  18
TORSDOF 5
ENDMDL
MODEL 3
REMARK VINA RESULT:      -8.7      3.317      8.708
REMARK  5 active torsions:
REMARK  status: ('A' for Active; 'I' for Inactive)
REMARK    1  A    between atoms: O_2  and  C_3 
REMARK    2  A    between atoms: C_4  and  C_5 
REMARK       I    between atoms: C_5  and  N_6 
REMARK    3  A    between atoms: N_6  and  C_7 
REMARK    4  A    between atoms: C_7  and  C_8 
REMARK       I    between atoms: C_8  and  N_9 
REMARK    5  A    between atoms: N_9  and  N_10 
ROOT
HETATM    1  C   UNL     1      -5.284   1.927 -31.308  1.00  0.00     0.255 C 
HETATM    2  N   UNL     1      -4.150   2.136 -32.077  1.00  0.00    -0.245 N 
HETATM    3  O   UNL     1      -5.525   2.514 -30.250  1.00  0.00    -0.270 OA
HETATM    4  H   UNL     1      -4.090   1.728 -33.017  1.00  0.00     0.192 HD
ENDROOT
BRANCH   1   5
HETATM    5  C   UNL     1      -6.339   1.020 -31.944  1.00  0.00     0.227 C 
BRANCH   5   6
HETATM    6  N   UNL     1      -5.876  -0.262 -32.454  1.00  0.00    -0.348 N 
HETATM    7  C   UNL     1      -6.087  -0.622 -33.769  1.00  0.00     0.254 C 
HETATM    8  O   UNL     1      -6.444   0.188 -34.616  1.00  0.00    -0.268 OA
HETATM    9  H   UNL     1      -5.717  -0.993 -31.774  1.00  0.00     0.163 HD
BRANCH   7  10
HETATM   10  C   UNL     1      -5.836  -2.052 -34.091  1.00  0.00     0.065 A 
HETATM   11  C   UNL     1      -4.611  -2.654 -33.781  1.00  0.00     0.084 A 
HETATM   12  C   UNL     1      -4.376  -3.988 -34.130  1.00  0.00     0.038 A 
HETATM   13  C   UNL     1      -5.377  -4.735 -34.752  1.00  0.00     0.003 A 
HETATM   14  C   UNL     1      -6.611  -4.150 -35.035  1.00  0.00     0.001 A 
HETATM   15  C   UNL     1      -6.844  -2.813 -34.705  1.00  0.00     0.020 A 
BRANCH  11  16
HETATM   16  O   UNL     1      -3.587  -1.923 -33.239  1.00  0.00    -0.355 OA
HETATM   17  C   UNL     1      -3.156  -2.502 -32.006  1.00  0.00     0.210 C 
ENDBRANCH  11  16
ENDBRANCH   7  10
ENDBRANCH   5   6
ENDBRANCH   1   5
BRANCH   2  18
HETATM   18  N   UNL     1      -3.252   3.089 -31.687  1.00  0.00    -0.166 NA
HETATM   19  C   UNL     1      -3.272   4.225 -32.301  1.00  0.00     0.157 A 
HETATM   20  C   UNL     1      -4.124   4.679 -33.491  1.00  0.00     0.277 A 
HETATM   21  C   UNL     1      -2.444   5.373 -31.945  1.00  0.00     0.028 A 
HETATM   22  O   UNL     1      -4.892   3.983 -34.116  1.00  0.00    -0.266 OA
HETATM   23  N   UNL     1      -3.792   6.003 -33.697  1.00  0.00    -0.321 N 
HETATM   24  C   UNL     1      -2.808   6.410 -32.803  1.00  0.00     0.048 A 
HETATM   25  H   UNL     1      -4.205   6.565 -34.426  1.00  0.00     0.169 HD
HETATM   26  C   UNL     1      -2.217   7.652 -32.712  1.00  0.00     0.032 A 
HETATM   27  C   UNL     1      -1.235   7.828 -31.728  1.00  0.00     0.021 A 
HETATM   28  C   UNL     1      -0.875   6.768 -30.869  1.00  0.00     0.012 A 
HETATM   29 BR   UNL     1       0.459   7.054 -29.558  1.00  0.00    -0.051 Br
HETATM   30  C   UNL     1      -1.481   5.516 -30.967  1.00  0.00     0.035 A 
ENDBRANCH   2  18
TORSDOF 5
ENDMDL
MODEL 4
REMARK VINA RESULT:      -8.5      3.731      8.484
REMARK  5 active torsions:
REMARK  status: ('A' for Active; 'I' for Inactive)
REMARK    1  A    between atoms: O_2  and  C_3 
REMARK    2  A    between atoms: C_4  and  C_5 
REMARK       I    between atoms: C_5  and  N_6 
REMARK    3  A    between atoms: N_6  and  C_7 
REMARK    4  A    between atoms: C_7  and  C_8 
REMARK       I    between atoms: C_8  and  N_9 
REMARK    5  A    between atoms: N_9  and  N_10 
ROOT
HETATM    1  C   UNL     1      -5.450   3.467 -31.642  1.00  0.00     0.255 C 
HETATM    2  N   UNL     1      -4.923   4.690 -32.021  1.00  0.00    -0.245 N 
HETATM    3  O   UNL     1      -5.179   2.889 -30.586  1.00  0.00    -0.270 OA
HETATM    4  H   UNL     1      -5.307   5.180 -32.837  1.00  0.00     0.192 HD
ENDROOT
BRANCH   1   5
HETATM    5  C   UNL     1      -6.552   2.926 -32.556  1.00  0.00     0.227 C 
BRANCH   5   6
HETATM    6  N   UNL     1      -6.274   1.674 -33.243  1.00  0.00    -0.348 N 
HETATM    7  C   UNL     1      -6.782   0.479 -32.776  1.00  0.00     0.254 C 
HETATM    8  O   UNL     1      -7.667   0.435 -31.930  1.00  0.00    -0.268 OA
HETATM    9  H   UNL     1      -5.455   1.650 -33.835  1.00  0.00     0.163 HD
BRANCH   7  10
HETATM   10  C   UNL     1      -6.195  -0.747 -33.379  1.00  0.00     0.065 A 
HETATM   11  C   UNL     1      -4.824  -1.011 -33.280  1.00  0.00     0.084 A 
HETATM   12  C   UNL     1      -4.283  -2.148 -33.890  1.00  0.00     0.038 A 
HETATM   13  C   UNL     1      -5.113  -3.042 -34.567  1.00  0.00     0.003 A 
HETATM   14  C   UNL     1      -6.485  -2.800 -34.643  1.00  0.00     0.001 A 
HETATM   15  C   UNL     1      -7.027  -1.657 -34.050  1.00  0.00     0.020 A 
BRANCH  11  16
HETATM   16  O   UNL     1      -3.977  -0.113 -32.687  1.00  0.00    -0.355 OA
HETATM   17  C   UNL     1      -2.906  -0.793 -32.029  1.00  0.00     0.210 C 
ENDBRANCH  11  16
ENDBRANCH   7  10
ENDBRANCH   5   6
ENDBRANCH   1   5
BRANCH   2  18
HETATM   18  N   UNL     1      -4.087   5.346 -31.161  1.00  0.00    -0.166 NA
HETATM   19  C   UNL     1      -2.831   5.393 -31.460  1.00  0.00     0.157 A 
HETATM   20  C   UNL     1      -2.078   4.750 -32.630  1.00  0.00     0.277 A 
HETATM   21  C   UNL     1      -1.826   6.127 -30.697  1.00  0.00     0.028 A 
HETATM   22  O   UNL     1      -2.556   4.002 -33.452  1.00  0.00    -0.266 OA
HETATM   23  N   UNL     1      -0.772   5.178 -32.506  1.00  0.00    -0.321 N 
HETATM   24  C   UNL     1      -0.619   5.976 -31.377  1.00  0.00     0.048 A 
HETATM   25  H   UNL     1      -0.042   4.908 -33.149  1.00  0.00     0.169 HD
HETATM   26  C   UNL     1       0.538   6.572 -30.920  1.00  0.00     0.032 A 
HETATM   27  C   UNL     1       0.450   7.330 -29.746  1.00  0.00     0.021 A 
HETATM   28  C   UNL     1      -0.779   7.473 -29.066  1.00  0.00     0.012 A 
HETATM   29 BR   UNL     1      -0.845   8.504 -27.482  1.00  0.00    -0.051 Br
HETATM   30  C   UNL     1      -1.943   6.868 -29.539  1.00  0.00     0.035 A 
ENDBRANCH   2  18
TORSDOF 5
ENDMDL
MODEL 5
REMARK VINA RESULT:      -8.5      4.305      7.686
REMARK  5 active torsions:
REMARK  status: ('A' for Active; 'I' for Inactive)
REMARK    1  A    between atoms: O_2  and  C_3 
REMARK    2  A    between atoms: C_4  and  C_5 
REMARK       I    between atoms: C_5  and  N_6 
REMARK    3  A    between atoms: N_6  and  C_7 
REMARK    4  A    between atoms: C_7  and  C_8 
REMARK       I    between atoms: C_8  and  N_9 
REMARK    5  A    between atoms: N_9  and  N_10 
ROOT
HETATM    1  C   UNL     1      -6.319   2.293 -31.346  1.00  0.00     0.255 C 
HETATM    2  N   UNL     1      -6.653   1.930 -32.641  1.00  0.00    -0.245 N 
HETATM    3  O   UNL     1      -6.937   3.123 -30.674  1.00  0.00    -0.270 OA
HETATM    4  H   UNL     1      -6.190   1.127 -33.080  1.00  0.00     0.192 HD
ENDROOT
BRANCH   1   5
HETATM    5  C   UNL     1      -5.204   1.462 -30.708  1.00  0.00     0.227 C 
BRANCH   5   6
HETATM    6  N   UNL     1      -5.041   0.102 -31.201  1.00  0.00    -0.348 N 
HETATM    7  C   UNL     1      -3.803  -0.371 -31.585  1.00  0.00     0.254 C 
HETATM    8  O   UNL     1      -2.766   0.222 -31.310  1.00  0.00    -0.268 OA
HETATM    9  H   UNL     1      -5.865  -0.352 -31.571  1.00  0.00     0.163 HD
BRANCH   7  10
HETATM   10  C   UNL     1      -3.811  -1.653 -32.337  1.00  0.00     0.065 A 
HETATM   11  C   UNL     1      -4.501  -1.771 -33.550  1.00  0.00     0.084 A 
HETATM   12  C   UNL     1      -4.534  -2.997 -34.223  1.00  0.00     0.038 A 
HETATM   13  C   UNL     1      -3.846  -4.096 -33.708  1.00  0.00     0.003 A 
HETATM   14  C   UNL     1      -3.132  -3.977 -32.516  1.00  0.00     0.001 A 
HETATM   15  C   UNL     1      -3.111  -2.760 -31.831  1.00  0.00     0.020 A 
BRANCH  11  16
HETATM   16  O   UNL     1      -5.244  -0.729 -34.038  1.00  0.00    -0.355 OA
HETATM   17  C   UNL     1      -6.314  -1.214 -34.850  1.00  0.00     0.210 C 
ENDBRANCH  11  16
ENDBRANCH   7  10
ENDBRANCH   5   6
ENDBRANCH   1   5
BRANCH   2  18
HETATM   18  N   UNL     1      -7.768   2.473 -33.213  1.00  0.00    -0.166 NA
HETATM   19  C   UNL     1      -8.855   1.775 -33.200  1.00  0.00     0.157 A 
HETATM   20  C   UNL     1      -9.095   0.350 -32.690  1.00  0.00     0.277 A 
HETATM   21  C   UNL     1     -10.147   2.246 -33.687  1.00  0.00     0.028 A 
HETATM   22  O   UNL     1      -8.246  -0.403 -32.271  1.00  0.00    -0.266 OA
HETATM   23  N   UNL     1     -10.447   0.124 -32.854  1.00  0.00    -0.321 N 
HETATM   24  C   UNL     1     -11.064   1.225 -33.441  1.00  0.00     0.048 A 
HETATM   25  H   UNL     1     -10.894  -0.743 -32.599  1.00  0.00     0.169 HD
HETATM   26  C   UNL     1     -12.395   1.365 -33.771  1.00  0.00     0.032 A 
HETATM   27  C   UNL     1     -12.788   2.571 -34.365  1.00  0.00     0.021 A 
HETATM   28  C   UNL     1     -11.848   3.596 -34.610  1.00  0.00     0.012 A 
HETATM   29 BR   UNL     1     -12.426   5.206 -35.418  1.00  0.00    -0.051 Br
HETATM   30  C   UNL     1     -10.504   3.445 -34.270  1.00  0.00     0.035 A 
ENDBRANCH   2  18
TORSDOF 5
ENDMDL
MODEL 6
REMARK VINA RESULT:      -8.5      1.911      2.834
REMARK  5 active torsions:
REMARK  status: ('A' for Active; 'I' for Inactive)
REMARK    1  A    between atoms: O_2  and  C_3 
REMARK    2  A    between atoms: C_4  and  C_5 
REMARK       I    between atoms: C_5  and  N_6 
REMARK    3  A    between atoms: N_6  and  C_7 
REMARK    4  A    between atoms: C_7  and  C_8 
REMARK       I    between atoms: C_8  and  N_9 
REMARK    5  A    between atoms: N_9  and  N_10 
ROOT
HETATM    1  C   UNL     1      -5.443   2.611 -31.008  1.00  0.00     0.255 C 
HETATM    2  N   UNL     1      -4.928   2.231 -32.237  1.00  0.00    -0.245 N 
HETATM    3  O   UNL     1      -5.800   1.823 -30.129  1.00  0.00    -0.270 OA
HETATM    4  H   UNL     1      -4.512   2.935 -32.856  1.00  0.00     0.192 HD
ENDROOT
BRANCH   1   5
HETATM    5  C   UNL     1      -5.388   4.114 -30.721  1.00  0.00     0.227 C 
BRANCH   5   6
HETATM    6  N   UNL     1      -4.080   4.671 -30.413  1.00  0.00    -0.348 N 
HETATM    7  C   UNL     1      -3.673   5.871 -30.959  1.00  0.00     0.254 C 
HETATM    8  O   UNL     1      -4.455   6.631 -31.517  1.00  0.00    -0.268 OA
HETATM    9  H   UNL     1      -3.373   4.026 -30.088  1.00  0.00     0.163 HD
BRANCH   7  10
HETATM   10  C   UNL     1      -2.227   6.187 -30.809  1.00  0.00     0.065 A 
HETATM   11  C   UNL     1      -1.256   5.449 -31.496  1.00  0.00     0.084 A 
HETATM   12  C   UNL     1       0.102   5.732 -31.310  1.00  0.00     0.038 A 
HETATM   13  C   UNL     1       0.490   6.776 -30.469  1.00  0.00     0.003 A 
HETATM   14  C   UNL     1      -0.474   7.534 -29.806  1.00  0.00     0.001 A 
HETATM   15  C   UNL     1      -1.830   7.244 -29.975  1.00  0.00     0.020 A 
BRANCH  11  16
HETATM   16  O   UNL     1      -1.607   4.373 -32.268  1.00  0.00    -0.355 OA
HETATM   17  C   UNL     1      -1.823   4.777 -33.621  1.00  0.00     0.210 C 
ENDBRANCH  11  16
ENDBRANCH   7  10
ENDBRANCH   5   6
ENDBRANCH   1   5
BRANCH   2  18
HETATM   18  N   UNL     1      -4.745   0.901 -32.495  1.00  0.00    -0.166 NA
HETATM   19  C   UNL     1      -5.559   0.329 -33.319  1.00  0.00     0.157 A 
HETATM   20  C   UNL     1      -6.789   0.898 -34.033  1.00  0.00     0.277 A 
HETATM   21  C   UNL     1      -5.445  -1.055 -33.767  1.00  0.00     0.028 A 
HETATM   22  O   UNL     1      -7.254   2.003 -33.868  1.00  0.00    -0.266 OA
HETATM   23  N   UNL     1      -7.246  -0.120 -34.846  1.00  0.00    -0.321 N 
HETATM   24  C   UNL     1      -6.469  -1.263 -34.689  1.00  0.00     0.048 A 
HETATM   25  H   UNL     1      -8.055  -0.026 -35.441  1.00  0.00     0.169 HD
HETATM   26  C   UNL     1      -6.627  -2.479 -35.320  1.00  0.00     0.032 A 
HETATM   27  C   UNL     1      -5.719  -3.495 -34.995  1.00  0.00     0.021 A 
HETATM   28  C   UNL     1      -4.688  -3.271 -34.058  1.00  0.00     0.012 A 
HETATM   29 BR   UNL     1      -3.489  -4.677 -33.650  1.00  0.00    -0.051 Br
HETATM   30  C   UNL     1      -4.536  -2.036 -33.428  1.00  0.00     0.035 A 
ENDBRANCH   2  18
TORSDOF 5
ENDMDL
MODEL 7
REMARK VINA RESULT:      -8.2      2.703      4.104
REMARK  5 active torsions:
REMARK  status: ('A' for Active; 'I' for Inactive)
REMARK    1  A    between atoms: O_2  and  C_3 
REMARK    2  A    between atoms: C_4  and  C_5 
REMARK       I    between atoms: C_5  and  N_6 
REMARK    3  A    between atoms: N_6  and  C_7 
REMARK    4  A    between atoms: C_7  and  C_8 
REMARK       I    between atoms: C_8  and  N_9 
REMARK    5  A    between atoms: N_9  and  N_10 
ROOT
HETATM    1  C   UNL     1      -3.456   3.820 -31.629  1.00  0.00     0.255 C 
HETATM    2  N   UNL     1      -4.569   3.015 -31.448  1.00  0.00    -0.245 N 
HETATM    3  O   UNL     1      -2.379   3.427 -32.084  1.00  0.00    -0.270 OA
HETATM    4  H   UNL     1      -5.472   3.440 -31.210  1.00  0.00     0.192 HD
ENDROOT
BRANCH   1   5
HETATM    5  C   UNL     1      -3.689   5.312 -31.382  1.00  0.00     0.227 C 
BRANCH   5   6
HETATM    6  N   UNL     1      -2.836   5.950 -30.391  1.00  0.00    -0.348 N 
HETATM    7  C   UNL     1      -2.481   7.278 -30.509  1.00  0.00     0.254 C 
HETATM    8  O   UNL     1      -3.043   8.035 -31.291  1.00  0.00    -0.268 OA
HETATM    9  H   UNL     1      -2.250   5.344 -29.833  1.00  0.00     0.163 HD
BRANCH   7  10
HETATM   10  C   UNL     1      -1.384   7.731 -29.613  1.00  0.00     0.065 A 
HETATM   11  C   UNL     1      -0.116   7.140 -29.674  1.00  0.00     0.084 A 
HETATM   12  C   UNL     1       0.892   7.549 -28.794  1.00  0.00     0.038 A 
HETATM   13  C   UNL     1       0.649   8.575 -27.879  1.00  0.00     0.003 A 
HETATM   14  C   UNL     1      -0.603   9.188 -27.835  1.00  0.00     0.001 A 
HETATM   15  C   UNL     1      -1.618   8.771 -28.699  1.00  0.00     0.020 A 
BRANCH  11  16
HETATM   16  O   UNL     1       0.126   6.083 -30.510  1.00  0.00    -0.355 OA
HETATM   17  C   UNL     1       0.642   4.971 -29.775  1.00  0.00     0.210 C 
ENDBRANCH  11  16
ENDBRANCH   7  10
ENDBRANCH   5   6
ENDBRANCH   1   5
BRANCH   2  18
HETATM   18  N   UNL     1      -4.512   1.708 -31.842  1.00  0.00    -0.166 NA
HETATM   19  C   UNL     1      -5.366   1.306 -32.724  1.00  0.00     0.157 A 
HETATM   20  C   UNL     1      -6.527   2.063 -33.377  1.00  0.00     0.277 A 
HETATM   21  C   UNL     1      -5.380  -0.028 -33.314  1.00  0.00     0.028 A 
HETATM   22  O   UNL     1      -6.885   3.185 -33.098  1.00  0.00    -0.266 OA
HETATM   23  N   UNL     1      -7.070   1.184 -34.293  1.00  0.00    -0.321 N 
HETATM   24  C   UNL     1      -6.409  -0.039 -34.255  1.00  0.00     0.048 A 
HETATM   25  H   UNL     1      -7.859   1.418 -34.876  1.00  0.00     0.169 HD
HETATM   26  C   UNL     1      -6.675  -1.162 -35.010  1.00  0.00     0.032 A 
HETATM   27  C   UNL     1      -5.873  -2.289 -34.791  1.00  0.00     0.021 A 
HETATM   28  C   UNL     1      -4.837  -2.265 -33.833  1.00  0.00     0.012 A 
HETATM   29 BR   UNL     1      -3.784  -3.815 -33.572  1.00  0.00    -0.051 Br
HETATM   30  C   UNL     1      -4.574  -1.123 -33.077  1.00  0.00     0.035 A 
ENDBRANCH   2  18
TORSDOF 5
ENDMDL
MODEL 8
REMARK VINA RESULT:      -8.1      2.028      3.312
REMARK  5 active torsions:
REMARK  status: ('A' for Active; 'I' for Inactive)
REMARK    1  A    between atoms: O_2  and  C_3 
REMARK    2  A    between atoms: C_4  and  C_5 
REMARK       I    between atoms: C_5  and  N_6 
REMARK    3  A    between atoms: N_6  and  C_7 
REMARK    4  A    between atoms: C_7  and  C_8 
REMARK       I    between atoms: C_8  and  N_9 
REMARK    5  A    between atoms: N_9  and  N_10 
ROOT
HETATM    1  C   UNL     1      -5.544   2.725 -31.181  1.00  0.00     0.255 C 
HETATM    2  N   UNL     1      -5.093   2.300 -32.420  1.00  0.00    -0.245 N 
HETATM    3  O   UNL     1      -5.809   1.972 -30.241  1.00  0.00    -0.270 OA
HETATM    4  H   UNL     1      -4.749   2.987 -33.101  1.00  0.00     0.192 HD
ENDROOT
BRANCH   1   5
HETATM    5  C   UNL     1      -5.539   4.242 -30.976  1.00  0.00     0.227 C 
BRANCH   5   6
HETATM    6  N   UNL     1      -4.270   4.844 -30.598  1.00  0.00    -0.348 N 
HETATM    7  C   UNL     1      -3.458   5.441 -31.540  1.00  0.00     0.254 C 
HETATM    8  O   UNL     1      -3.857   5.709 -32.667  1.00  0.00    -0.268 OA
HETATM    9  H   UNL     1      -3.851   4.523 -29.736  1.00  0.00     0.163 HD
BRANCH   7  10
HETATM   10  C   UNL     1      -2.075   5.753 -31.091  1.00  0.00     0.065 A 
HETATM   11  C   UNL     1      -1.846   6.646 -30.038  1.00  0.00     0.084 A 
HETATM   12  C   UNL     1      -0.538   6.961 -29.656  1.00  0.00     0.038 A 
HETATM   13  C   UNL     1       0.543   6.356 -30.298  1.00  0.00     0.003 A 
HETATM   14  C   UNL     1       0.321   5.442 -31.328  1.00  0.00     0.001 A 
HETATM   15  C   UNL     1      -0.984   5.138 -31.724  1.00  0.00     0.020 A 
BRANCH  11  16
HETATM   16  O   UNL     1      -2.886   7.310 -29.441  1.00  0.00    -0.355 OA
HETATM   17  C   UNL     1      -2.446   8.565 -28.919  1.00  0.00     0.210 C 
ENDBRANCH  11  16
ENDBRANCH   7  10
ENDBRANCH   5   6
ENDBRANCH   1   5
BRANCH   2  18
HETATM   18  N   UNL     1      -4.867   0.967 -32.621  1.00  0.00    -0.166 NA
HETATM   19  C   UNL     1      -5.679   0.327 -33.395  1.00  0.00     0.157 A 
HETATM   20  C   UNL     1      -6.948   0.818 -34.102  1.00  0.00     0.277 A 
HETATM   21  C   UNL     1      -5.525  -1.072 -33.782  1.00  0.00     0.028 A 
HETATM   22  O   UNL     1      -7.449   1.912 -33.976  1.00  0.00    -0.266 OA
HETATM   23  N   UNL     1      -7.387  -0.254 -34.854  1.00  0.00    -0.321 N 
HETATM   24  C   UNL     1      -6.564  -1.360 -34.665  1.00  0.00     0.048 A 
HETATM   25  H   UNL     1      -8.214  -0.217 -35.430  1.00  0.00     0.169 HD
HETATM   26  C   UNL     1      -6.692  -2.609 -35.234  1.00  0.00     0.032 A 
HETATM   27  C   UNL     1      -5.739  -3.575 -34.887  1.00  0.00     0.021 A 
HETATM   28  C   UNL     1      -4.694  -3.270 -33.989  1.00  0.00     0.012 A 
HETATM   29 BR   UNL     1      -3.434  -4.610 -33.549  1.00  0.00    -0.051 Br
HETATM   30  C   UNL     1      -4.572  -2.002 -33.421  1.00  0.00     0.035 A 
ENDBRANCH   2  18
TORSDOF 5
ENDMDL
MODEL 9
REMARK VINA RESULT:      -8.0      4.462      8.688
REMARK  5 active torsions:
REMARK  status: ('A' for Active; 'I' for Inactive)
REMARK    1  A    between atoms: O_2  and  C_3 
REMARK    2  A    between atoms: C_4  and  C_5 
REMARK       I    between atoms: C_5  and  N_6 
REMARK    3  A    between atoms: N_6  and  C_7 
REMARK    4  A    between atoms: C_7  and  C_8 
REMARK       I    between atoms: C_8  and  N_9 
REMARK    5  A    between atoms: N_9  and  N_10 
ROOT
HETATM    1  C   UNL     1      -4.541   5.836 -32.459  1.00  0.00     0.255 C 
HETATM    2  N   UNL     1      -3.254   6.341 -32.541  1.00  0.00    -0.245 N 
HETATM    3  O   UNL     1      -5.247   5.890 -31.448  1.00  0.00    -0.270 OA
HETATM    4  H   UNL     1      -2.786   6.397 -33.452  1.00  0.00     0.192 HD
ENDROOT
BRANCH   1   5
HETATM    5  C   UNL     1      -5.127   5.338 -33.782  1.00  0.00     0.227 C 
BRANCH   5   6
HETATM    6  N   UNL     1      -5.256   3.896 -33.936  1.00  0.00    -0.348 N 
HETATM    7  C   UNL     1      -6.492   3.286 -33.893  1.00  0.00     0.254 C 
HETATM    8  O   UNL     1      -7.536   3.923 -33.968  1.00  0.00    -0.268 OA
HETATM    9  H   UNL     1      -4.437   3.340 -33.733  1.00  0.00     0.163 HD
BRANCH   7  10
HETATM   10  C   UNL     1      -6.472   1.804 -33.767  1.00  0.00     0.065 A 
HETATM   11  C   UNL     1      -6.090   1.190 -32.568  1.00  0.00     0.084 A 
HETATM   12  C   UNL     1      -6.035  -0.205 -32.481  1.00  0.00     0.038 A 
HETATM   13  C   UNL     1      -6.399  -0.990 -33.576  1.00  0.00     0.003 A 
HETATM   14  C   UNL     1      -6.810  -0.384 -34.763  1.00  0.00     0.001 A 
HETATM   15  C   UNL     1      -6.849   1.008 -34.861  1.00  0.00     0.020 A 
BRANCH  11  16
HETATM   16  O   UNL     1      -5.657   1.936 -31.504  1.00  0.00    -0.355 OA
HETATM   17  C   UNL     1      -5.945   1.268 -30.274  1.00  0.00     0.210 C 
ENDBRANCH  11  16
ENDBRANCH   7  10
ENDBRANCH   5   6
ENDBRANCH   1   5
BRANCH   2  18
HETATM   18  N   UNL     1      -2.729   6.994 -31.461  1.00  0.00    -0.166 NA
HETATM   19  C   UNL     1      -1.808   6.394 -30.782  1.00  0.00     0.157 A 
HETATM   20  C   UNL     1      -1.230   4.985 -30.951  1.00  0.00     0.277 A 
HETATM   21  C   UNL     1      -1.086   6.988 -29.662  1.00  0.00     0.028 A 
HETATM   22  O   UNL     1      -1.619   4.150 -31.735  1.00  0.00    -0.266 OA
HETATM   23  N   UNL     1      -0.228   4.884 -30.006  1.00  0.00    -0.321 N 
HETATM   24  C   UNL     1      -0.145   6.047 -29.249  1.00  0.00     0.048 A 
HETATM   25  H   UNL     1       0.333   4.053 -29.887  1.00  0.00     0.169 HD
HETATM   26  C   UNL     1       0.722   6.312 -28.209  1.00  0.00     0.032 A 
HETATM   27  C   UNL     1       0.615   7.562 -27.585  1.00  0.00     0.021 A 
HETATM   28  C   UNL     1      -0.345   8.504 -28.013  1.00  0.00     0.012 A 
HETATM   29 BR   UNL     1      -0.453  10.177 -27.136  1.00  0.00    -0.051 Br
HETATM   30  C   UNL     1      -1.214   8.227 -29.068  1.00  0.00     0.035 A 
ENDBRANCH   2  18
TORSDOF 5
ENDMDL
MODEL 10
REMARK VINA RESULT:      -7.9      3.192      4.774
REMARK  5 active torsions:
REMARK  status: ('A' for Active; 'I' for Inactive)
REMARK    1  A    between atoms: O_2  and  C_3 
REMARK    2  A    between atoms: C_4  and  C_5 
REMARK       I    between atoms: C_5  and  N_6 
REMARK    3  A    between atoms: N_6  and  C_7 
REMARK    4  A    between atoms: C_7  and  C_8 
REMARK       I    between atoms: C_8  and  N_9 
REMARK    5  A    between atoms: N_9  and  N_10 
ROOT
HETATM    1  C   UNL     1      -2.641   4.690 -31.628  1.00  0.00     0.255 C 
HETATM    2  N   UNL     1      -3.618   3.920 -31.017  1.00  0.00    -0.245 N 
HETATM    3  O   UNL     1      -1.694   4.231 -32.271  1.00  0.00    -0.270 OA
HETATM    4  H   UNL     1      -4.455   4.370 -30.631  1.00  0.00     0.192 HD
ENDROOT
BRANCH   1   5
HETATM    5  C   UNL     1      -2.898   6.198 -31.604  1.00  0.00     0.227 C 
BRANCH   5   6
HETATM    6  N   UNL     1      -2.314   6.941 -30.497  1.00  0.00    -0.348 N 
HETATM    7  C   UNL     1      -1.000   7.360 -30.537  1.00  0.00     0.254 C 
HETATM    8  O   UNL     1      -0.344   7.347 -31.572  1.00  0.00    -0.268 OA
HETATM    9  H   UNL     1      -2.761   6.844 -29.595  1.00  0.00     0.163 HD
BRANCH   7  10
HETATM   10  C   UNL     1      -0.440   7.842 -29.246  1.00  0.00     0.065 A 
HETATM   11  C   UNL     1      -1.078   8.855 -28.520  1.00  0.00     0.084 A 
HETATM   12  C   UNL     1      -0.514   9.326 -27.330  1.00  0.00     0.038 A 
HETATM   13  C   UNL     1       0.664   8.761 -26.842  1.00  0.00     0.003 A 
HETATM   14  C   UNL     1       1.288   7.730 -27.545  1.00  0.00     0.001 A 
HETATM   15  C   UNL     1       0.739   7.268 -28.743  1.00  0.00     0.020 A 
BRANCH  11  16
HETATM   16  O   UNL     1      -2.194   9.477 -29.014  1.00  0.00    -0.355 OA
HETATM   17  C   UNL     1      -2.098  10.891 -28.840  1.00  0.00     0.210 C 
ENDBRANCH  11  16
ENDBRANCH   7  10
ENDBRANCH   5   6
ENDBRANCH   1   5
BRANCH   2  18
HETATM   18  N   UNL     1      -3.581   2.562 -31.169  1.00  0.00    -0.166 NA
HETATM   19  C   UNL     1      -4.410   2.025 -32.002  1.00  0.00     0.157 A 
HETATM   20  C   UNL     1      -5.521   2.676 -32.831  1.00  0.00     0.277 A 
HETATM   21  C   UNL     1      -4.437   0.607 -32.344  1.00  0.00     0.028 A 
HETATM   22  O   UNL     1      -5.859   3.836 -32.774  1.00  0.00    -0.266 OA
HETATM   23  N   UNL     1      -6.051   1.657 -33.599  1.00  0.00    -0.321 N 
HETATM   24  C   UNL     1      -5.426   0.448 -33.313  1.00  0.00     0.048 A 
HETATM   25  H   UNL     1      -6.809   1.797 -34.250  1.00  0.00     0.169 HD
HETATM   26  C   UNL     1      -5.692  -0.787 -33.866  1.00  0.00     0.032 A 
HETATM   27  C   UNL     1      -4.932  -1.873 -33.413  1.00  0.00     0.021 A 
HETATM   28  C   UNL     1      -3.935  -1.697 -32.429  1.00  0.00     0.012 A 
HETATM   29 BR   UNL     1      -2.937  -3.195 -31.848  1.00  0.00    -0.051 Br
HETATM   30  C   UNL     1      -3.672  -0.443 -31.879  1.00  0.00     0.035 A 
ENDBRANCH   2  18
TORSDOF 5
ENDMDL
