MODEL 1
REMARK VINA RESULT:      -9.2      0.000      0.000
REMARK  6 active torsions:
REMARK  status: ('A' for Active; 'I' for Inactive)
REMARK    1  A    between atoms: C_8  and  C_9 
REMARK    2  A    between atoms: C_9  and  C_10 
REMARK       I    between atoms: C_10  and  N_11 
REMARK    3  A    between atoms: N_11  and  C_12 
REMARK    4  A    between atoms: C_12  and  C_13 
REMARK    5  A    between atoms: C_16  and  N_17 
REMARK       I    between atoms: N_17  and  C_18 
REMARK    6  A    between atoms: C_18  and  C_19 
ROOT
HETATM    1  C   UNL     1      -8.412   1.946 -31.791  1.00  0.00     0.161 C 
ENDROOT
BRANCH   1   2
HETATM    2  N   UNL     1      -8.282   0.752 -32.587  1.00  0.00    -0.357 N 
HETATM    3  C   UNL     1      -8.157   0.833 -33.957  1.00  0.00     0.222 C 
HETATM    4  O   UNL     1      -8.202   1.901 -34.565  1.00  0.00    -0.273 OA
HETATM    5  H   UNL     1      -8.296  -0.152 -32.132  1.00  0.00     0.162 HD
BRANCH   3   6
HETATM    6  C   UNL     1      -7.920  -0.489 -34.652  1.00  0.00     0.143 C 
BRANCH   6   7
HETATM    7  C   UNL     1      -6.605  -1.162 -34.390  1.00  0.00    -0.022 A 
HETATM    8  C   UNL     1      -6.204  -2.537 -34.522  1.00  0.00    -0.001 A 
HETATM    9  C   UNL     1      -6.830  -3.732 -34.942  1.00  0.00     0.014 A 
HETATM   10  C   UNL     1      -4.865  -2.620 -34.121  1.00  0.00     0.042 A 
HETATM   11  C   UNL     1      -6.123  -4.941 -34.925  1.00  0.00     0.001 A 
HETATM   12  C   UNL     1      -4.798  -4.982 -34.508  1.00  0.00     0.002 A 
HETATM   13  C   UNL     1      -4.142  -3.820 -34.103  1.00  0.00     0.030 A 
HETATM   14  N   UNL     1      -4.459  -1.353 -33.786  1.00  0.00    -0.365 N 
HETATM   15  H   UNL     1      -3.528  -1.114 -33.475  1.00  0.00     0.165 HD
HETATM   16  C   UNL     1      -5.491  -0.472 -33.938  1.00  0.00     0.097 A 
ENDBRANCH   6   7
ENDBRANCH   3   6
ENDBRANCH   1   2
BRANCH   1  17
HETATM   17  C   UNL     1      -7.077   2.576 -31.501  1.00  0.00    -0.040 A 
HETATM   18  C   UNL     1      -6.112   1.895 -30.750  1.00  0.00     0.011 A 
HETATM   19  C   UNL     1      -4.853   2.465 -30.518  1.00  0.00     0.030 A 
HETATM   20  C   UNL     1      -4.541   3.724 -31.031  1.00  0.00     0.035 A 
HETATM   21  C   UNL     1      -5.520   4.421 -31.750  1.00  0.00     0.030 A 
HETATM   22  C   UNL     1      -6.778   3.856 -31.978  1.00  0.00     0.011 A 
BRANCH  20  23
HETATM   23  N   UNL     1      -3.283   4.340 -30.902  1.00  0.00    -0.321 N 
HETATM   24  C   UNL     1      -2.269   4.435 -31.838  1.00  0.00     0.279 C 
HETATM   25  O   UNL     1      -2.270   3.911 -32.947  1.00  0.00    -0.265 OA
HETATM   26  H   UNL     1      -3.093   4.820 -30.028  1.00  0.00     0.169 HD
BRANCH  24  27
HETATM   27  C   UNL     1      -1.161   5.254 -31.375  1.00  0.00     0.142 A 
HETATM   28  O   UNL     1      -0.209   4.701 -30.554  1.00  0.00    -0.317 OA
HETATM   29  C   UNL     1       0.684   5.681 -30.261  1.00  0.00     0.143 A 
HETATM   30  C   UNL     1       0.331   6.857 -30.878  1.00  0.00     0.027 A 
HETATM   31  C   UNL     1      -0.857   6.583 -31.598  1.00  0.00     0.045 A 
ENDBRANCH  24  27
ENDBRANCH  20  23
ENDBRANCH   1  17
TORSDOF 6
ENDMDL
MODEL 2
REMARK VINA RESULT:      -9.0      1.359      1.861
REMARK  6 active torsions:
REMARK  status: ('A' for Active; 'I' for Inactive)
REMARK    1  A    between atoms: C_8  and  C_9 
REMARK    2  A    between atoms: C_9  and  C_10 
REMARK       I    between atoms: C_10  and  N_11 
REMARK    3  A    between atoms: N_11  and  C_12 
REMARK    4  A    between atoms: C_12  and  C_13 
REMARK    5  A    between atoms: C_16  and  N_17 
REMARK       I    between atoms: N_17  and  C_18 
REMARK    6  A    between atoms: C_18  and  C_19 
ROOT
HETATM    1  C   UNL     1      -7.218   3.625 -33.524  1.00  0.00     0.161 C 
ENDROOT
BRANCH   1   2
HETATM    2  N   UNL     1      -6.982   2.393 -34.233  1.00  0.00    -0.357 N 
HETATM    3  C   UNL     1      -7.407   1.191 -33.712  1.00  0.00     0.222 C 
HETATM    4  O   UNL     1      -7.951   1.100 -32.613  1.00  0.00    -0.273 OA
HETATM    5  H   UNL     1      -6.488   2.416 -35.117  1.00  0.00     0.162 HD
BRANCH   3   6
HETATM    6  C   UNL     1      -7.189  -0.004 -34.612  1.00  0.00     0.143 C 
BRANCH   6   7
HETATM    7  C   UNL     1      -6.040  -0.905 -34.269  1.00  0.00    -0.022 A 
HETATM    8  C   UNL     1      -5.866  -2.323 -34.443  1.00  0.00    -0.001 A 
HETATM    9  C   UNL     1      -6.639  -3.373 -34.986  1.00  0.00     0.014 A 
HETATM   10  C   UNL     1      -4.608  -2.654 -33.924  1.00  0.00     0.042 A 
HETATM   11  C   UNL     1      -6.152  -4.686 -34.974  1.00  0.00     0.001 A 
HETATM   12  C   UNL     1      -4.903  -4.974 -34.439  1.00  0.00     0.002 A 
HETATM   13  C   UNL     1      -4.104  -3.962 -33.908  1.00  0.00     0.030 A 
HETATM   14  N   UNL     1      -4.030  -1.492 -33.481  1.00  0.00    -0.365 N 
HETATM   15  H   UNL     1      -3.108  -1.431 -33.071  1.00  0.00     0.165 HD
HETATM   16  C   UNL     1      -4.877  -0.440 -33.676  1.00  0.00     0.097 A 
ENDBRANCH   6   7
ENDBRANCH   3   6
ENDBRANCH   1   2
BRANCH   1  17
HETATM   17  C   UNL     1      -5.983   4.111 -32.816  1.00  0.00    -0.040 A 
HETATM   18  C   UNL     1      -5.107   5.008 -33.437  1.00  0.00     0.011 A 
HETATM   19  C   UNL     1      -3.981   5.494 -32.760  1.00  0.00     0.030 A 
HETATM   20  C   UNL     1      -3.712   5.089 -31.452  1.00  0.00     0.035 A 
HETATM   21  C   UNL     1      -4.567   4.161 -30.845  1.00  0.00     0.030 A 
HETATM   22  C   UNL     1      -5.688   3.672 -31.521  1.00  0.00     0.011 A 
BRANCH  20  23
HETATM   23  N   UNL     1      -2.643   5.576 -30.679  1.00  0.00    -0.321 N 
HETATM   24  C   UNL     1      -1.287   5.365 -30.852  1.00  0.00     0.279 C 
HETATM   25  O   UNL     1      -0.781   4.628 -31.693  1.00  0.00    -0.265 OA
HETATM   26  H   UNL     1      -2.875   6.202 -29.914  1.00  0.00     0.169 HD
BRANCH  24  27
HETATM   27  C   UNL     1      -0.482   6.135 -29.919  1.00  0.00     0.142 A 
HETATM   28  O   UNL     1       0.108   5.501 -28.854  1.00  0.00    -0.317 OA
HETATM   29  C   UNL     1       0.773   6.448 -28.143  1.00  0.00     0.143 A 
HETATM   30  C   UNL     1       0.628   7.683 -28.730  1.00  0.00     0.027 A 
HETATM   31  C   UNL     1      -0.178   7.483 -29.876  1.00  0.00     0.045 A 
ENDBRANCH  24  27
ENDBRANCH  20  23
ENDBRANCH   1  17
TORSDOF 6
ENDMDL
MODEL 3
REMARK VINA RESULT:      -8.8      1.600      2.193
REMARK  6 active torsions:
REMARK  status: ('A' for Active; 'I' for Inactive)
REMARK    1  A    between atoms: C_8  and  C_9 
REMARK    2  A    between atoms: C_9  and  C_10 
REMARK       I    between atoms: C_10  and  N_11 
REMARK    3  A    between atoms: N_11  and  C_12 
REMARK    4  A    between atoms: C_12  and  C_13 
REMARK    5  A    between atoms: C_16  and  N_17 
REMARK       I    between atoms: N_17  and  C_18 
REMARK    6  A    between atoms: C_18  and  C_19 
ROOT
HETATM    1  C   UNL     1      -9.098   2.787 -30.893  1.00  0.00     0.161 C 
ENDROOT
BRANCH   1   2
HETATM    2  N   UNL     1      -9.121   1.444 -31.415  1.00  0.00    -0.357 N 
HETATM    3  C   UNL     1      -9.153   1.221 -32.775  1.00  0.00     0.222 C 
HETATM    4  O   UNL     1      -9.216   2.134 -33.595  1.00  0.00    -0.273 OA
HETATM    5  H   UNL     1      -9.127   0.662 -30.773  1.00  0.00     0.162 HD
BRANCH   3   6
HETATM    6  C   UNL     1      -9.065  -0.233 -33.181  1.00  0.00     0.143 C 
BRANCH   6   7
HETATM    7  C   UNL     1      -7.702  -0.754 -33.528  1.00  0.00    -0.022 A 
HETATM    8  C   UNL     1      -6.460  -0.711 -32.802  1.00  0.00    -0.001 A 
HETATM    9  C   UNL     1      -6.045  -0.214 -31.546  1.00  0.00     0.014 A 
HETATM   10  C   UNL     1      -5.490  -1.328 -33.601  1.00  0.00     0.042 A 
HETATM   11  C   UNL     1      -4.706  -0.327 -31.151  1.00  0.00     0.001 A 
HETATM   12  C   UNL     1      -3.772  -0.937 -31.979  1.00  0.00     0.002 A 
HETATM   13  C   UNL     1      -4.148  -1.455 -33.219  1.00  0.00     0.030 A 
HETATM   14  N   UNL     1      -6.114  -1.753 -34.747  1.00  0.00    -0.365 N 
HETATM   15  H   UNL     1      -5.654  -2.248 -35.498  1.00  0.00     0.165 HD
HETATM   16  C   UNL     1      -7.435  -1.412 -34.718  1.00  0.00     0.097 A 
ENDBRANCH   6   7
ENDBRANCH   3   6
ENDBRANCH   1   2
BRANCH   1  17
HETATM   17  C   UNL     1      -7.699   3.332 -30.807  1.00  0.00    -0.040 A 
HETATM   18  C   UNL     1      -6.810   2.871 -29.828  1.00  0.00     0.011 A 
HETATM   19  C   UNL     1      -5.493   3.347 -29.777  1.00  0.00     0.030 A 
HETATM   20  C   UNL     1      -5.046   4.292 -30.700  1.00  0.00     0.035 A 
HETATM   21  C   UNL     1      -5.946   4.782 -31.655  1.00  0.00     0.030 A 
HETATM   22  C   UNL     1      -7.261   4.311 -31.704  1.00  0.00     0.011 A 
BRANCH  20  23
HETATM   23  N   UNL     1      -3.726   4.774 -30.760  1.00  0.00    -0.321 N 
HETATM   24  C   UNL     1      -2.668   4.300 -31.516  1.00  0.00     0.279 C 
HETATM   25  O   UNL     1      -2.689   3.298 -32.224  1.00  0.00    -0.265 OA
HETATM   26  H   UNL     1      -3.513   5.605 -30.217  1.00  0.00     0.169 HD
BRANCH  24  27
HETATM   27  C   UNL     1      -1.485   5.136 -31.401  1.00  0.00     0.142 A 
HETATM   28  O   UNL     1      -0.359   4.633 -30.798  1.00  0.00    -0.317 OA
HETATM   29  C   UNL     1       0.574   5.620 -30.807  1.00  0.00     0.143 A 
HETATM   30  C   UNL     1       0.076   6.751 -31.408  1.00  0.00     0.027 A 
HETATM   31  C   UNL     1      -1.251   6.440 -31.794  1.00  0.00     0.045 A 
ENDBRANCH  24  27
ENDBRANCH  20  23
ENDBRANCH   1  17
TORSDOF 6
ENDMDL
MODEL 4
REMARK VINA RESULT:      -8.4      3.332      7.778
REMARK  6 active torsions:
REMARK  status: ('A' for Active; 'I' for Inactive)
REMARK    1  A    between atoms: C_8  and  C_9 
REMARK    2  A    between atoms: C_9  and  C_10 
REMARK       I    between atoms: C_10  and  N_11 
REMARK    3  A    between atoms: N_11  and  C_12 
REMARK    4  A    between atoms: C_12  and  C_13 
REMARK    5  A    between atoms: C_16  and  N_17 
REMARK       I    between atoms: N_17  and  C_18 
REMARK    6  A    between atoms: C_18  and  C_19 
ROOT
HETATM    1  C   UNL     1      -5.971   4.075 -30.780  1.00  0.00     0.161 C 
ENDROOT
BRANCH   1   2
HETATM    2  N   UNL     1      -4.922   3.336 -31.435  1.00  0.00    -0.357 N 
HETATM    3  C   UNL     1      -4.599   2.062 -31.020  1.00  0.00     0.222 C 
HETATM    4  O   UNL     1      -5.139   1.521 -30.058  1.00  0.00    -0.273 OA
HETATM    5  H   UNL     1      -4.414   3.765 -32.198  1.00  0.00     0.162 HD
BRANCH   3   6
HETATM    6  C   UNL     1      -3.556   1.366 -31.866  1.00  0.00     0.143 C 
BRANCH   6   7
HETATM    7  C   UNL     1      -3.939   0.038 -32.449  1.00  0.00    -0.022 A 
HETATM    8  C   UNL     1      -5.019  -0.335 -33.324  1.00  0.00    -0.001 A 
HETATM    9  C   UNL     1      -6.076   0.349 -33.965  1.00  0.00     0.014 A 
HETATM   10  C   UNL     1      -4.923  -1.714 -33.539  1.00  0.00     0.042 A 
HETATM   11  C   UNL     1      -6.991  -0.354 -34.759  1.00  0.00     0.001 A 
HETATM   12  C   UNL     1      -6.867  -1.726 -34.938  1.00  0.00     0.002 A 
HETATM   13  C   UNL     1      -5.826  -2.433 -34.334  1.00  0.00     0.030 A 
HETATM   14  N   UNL     1      -3.822  -2.160 -32.851  1.00  0.00    -0.365 N 
HETATM   15  H   UNL     1      -3.503  -3.119 -32.842  1.00  0.00     0.165 HD
HETATM   16  C   UNL     1      -3.228  -1.123 -32.192  1.00  0.00     0.097 A 
ENDBRANCH   6   7
ENDBRANCH   3   6
ENDBRANCH   1   2
BRANCH   1  17
HETATM   17  C   UNL     1      -7.334   3.678 -31.277  1.00  0.00    -0.040 A 
HETATM   18  C   UNL     1      -7.566   3.469 -32.642  1.00  0.00     0.011 A 
HETATM   19  C   UNL     1      -8.824   3.056 -33.099  1.00  0.00     0.030 A 
HETATM   20  C   UNL     1      -9.870   2.847 -32.199  1.00  0.00     0.035 A 
HETATM   21  C   UNL     1      -9.649   3.092 -30.839  1.00  0.00     0.030 A 
HETATM   22  C   UNL     1      -8.395   3.509 -30.382  1.00  0.00     0.011 A 
BRANCH  20  23
HETATM   23  N   UNL     1     -11.142   2.370 -32.565  1.00  0.00    -0.321 N 
HETATM   24  C   UNL     1     -12.178   3.057 -33.172  1.00  0.00     0.279 C 
HETATM   25  O   UNL     1     -12.186   4.257 -33.429  1.00  0.00    -0.265 OA
HETATM   26  H   UNL     1     -11.327   1.384 -32.410  1.00  0.00     0.169 HD
BRANCH  24  27
HETATM   27  C   UNL     1     -13.298   2.192 -33.502  1.00  0.00     0.142 A 
HETATM   28  O   UNL     1     -14.470   2.306 -32.795  1.00  0.00    -0.317 OA
HETATM   29  C   UNL     1     -15.328   1.377 -33.291  1.00  0.00     0.143 A 
HETATM   30  C   UNL     1     -14.736   0.666 -34.307  1.00  0.00     0.027 A 
HETATM   31  C   UNL     1     -13.429   1.192 -34.447  1.00  0.00     0.045 A 
ENDBRANCH  24  27
ENDBRANCH  20  23
ENDBRANCH   1  17
TORSDOF 6
ENDMDL
MODEL 5
REMARK VINA RESULT:      -8.2      4.177      8.063
REMARK  6 active torsions:
REMARK  status: ('A' for Active; 'I' for Inactive)
REMARK    1  A    between atoms: C_8  and  C_9 
REMARK    2  A    between atoms: C_9  and  C_10 
REMARK       I    between atoms: C_10  and  N_11 
REMARK    3  A    between atoms: N_11  and  C_12 
REMARK    4  A    between atoms: C_12  and  C_13 
REMARK    5  A    between atoms: C_16  and  N_17 
REMARK       I    between atoms: N_17  and  C_18 
REMARK    6  A    between atoms: C_18  and  C_19 
ROOT
HETATM    1  C   UNL     1      -8.793   4.181 -30.330  1.00  0.00     0.161 C 
ENDROOT
BRANCH   1   2
HETATM    2  N   UNL     1     -10.189   4.465 -30.544  1.00  0.00    -0.357 N 
HETATM    3  C   UNL     1     -10.585   5.313 -31.555  1.00  0.00     0.222 C 
HETATM    4  O   UNL     1      -9.784   5.901 -32.279  1.00  0.00    -0.273 OA
HETATM    5  H   UNL     1     -10.880   4.045 -29.935  1.00  0.00     0.162 HD
BRANCH   3   6
HETATM    6  C   UNL     1     -12.082   5.434 -31.732  1.00  0.00     0.143 C 
BRANCH   6   7
HETATM    7  C   UNL     1     -12.837   4.160 -31.971  1.00  0.00    -0.022 A 
HETATM    8  C   UNL     1     -12.709   3.165 -33.003  1.00  0.00    -0.001 A 
HETATM    9  C   UNL     1     -11.867   2.978 -34.122  1.00  0.00     0.014 A 
HETATM   10  C   UNL     1     -13.685   2.190 -32.763  1.00  0.00     0.042 A 
HETATM   11  C   UNL     1     -12.039   1.865 -34.955  1.00  0.00     0.001 A 
HETATM   12  C   UNL     1     -13.028   0.926 -34.688  1.00  0.00     0.002 A 
HETATM   13  C   UNL     1     -13.867   1.068 -33.583  1.00  0.00     0.030 A 
HETATM   14  N   UNL     1     -14.359   2.557 -31.625  1.00  0.00    -0.365 N 
HETATM   15  H   UNL     1     -15.110   2.024 -31.209  1.00  0.00     0.165 HD
HETATM   16  C   UNL     1     -13.865   3.735 -31.145  1.00  0.00     0.097 A 
ENDBRANCH   6   7
ENDBRANCH   3   6
ENDBRANCH   1   2
BRANCH   1  17
HETATM   17  C   UNL     1      -8.387   2.867 -30.938  1.00  0.00    -0.040 A 
HETATM   18  C   UNL     1      -9.341   2.018 -31.513  1.00  0.00     0.011 A 
HETATM   19  C   UNL     1      -8.957   0.815 -32.119  1.00  0.00     0.030 A 
HETATM   20  C   UNL     1      -7.613   0.440 -32.158  1.00  0.00     0.035 A 
HETATM   21  C   UNL     1      -6.664   1.270 -31.550  1.00  0.00     0.030 A 
HETATM   22  C   UNL     1      -7.046   2.469 -30.940  1.00  0.00     0.011 A 
BRANCH  20  23
HETATM   23  N   UNL     1      -7.134  -0.715 -32.801  1.00  0.00    -0.321 N 
HETATM   24  C   UNL     1      -6.640  -0.844 -34.087  1.00  0.00     0.279 C 
HETATM   25  O   UNL     1      -6.610   0.045 -34.933  1.00  0.00    -0.265 OA
HETATM   26  H   UNL     1      -7.099  -1.567 -32.252  1.00  0.00     0.169 HD
BRANCH  24  27
HETATM   27  C   UNL     1      -6.127  -2.177 -34.353  1.00  0.00     0.142 A 
HETATM   28  O   UNL     1      -4.779  -2.417 -34.241  1.00  0.00    -0.317 OA
HETATM   29  C   UNL     1      -4.578  -3.721 -34.562  1.00  0.00     0.143 A 
HETATM   30  C   UNL     1      -5.768  -4.332 -34.877  1.00  0.00     0.027 A 
HETATM   31  C   UNL     1      -6.768  -3.339 -34.740  1.00  0.00     0.045 A 
ENDBRANCH  24  27
ENDBRANCH  20  23
ENDBRANCH   1  17
TORSDOF 6
ENDMDL
MODEL 6
REMARK VINA RESULT:      -8.2      2.474      8.442
REMARK  6 active torsions:
REMARK  status: ('A' for Active; 'I' for Inactive)
REMARK    1  A    between atoms: C_8  and  C_9 
REMARK    2  A    between atoms: C_9  and  C_10 
REMARK       I    between atoms: C_10  and  N_11 
REMARK    3  A    between atoms: N_11  and  C_12 
REMARK    4  A    between atoms: C_12  and  C_13 
REMARK    5  A    between atoms: C_16  and  N_17 
REMARK       I    between atoms: N_17  and  C_18 
REMARK    6  A    between atoms: C_18  and  C_19 
ROOT
HETATM    1  C   UNL     1      -6.540   4.004 -29.575  1.00  0.00     0.161 C 
ENDROOT
BRANCH   1   2
HETATM    2  N   UNL     1      -5.294   4.719 -29.470  1.00  0.00    -0.357 N 
HETATM    3  C   UNL     1      -5.141   5.953 -30.064  1.00  0.00     0.222 C 
HETATM    4  O   UNL     1      -6.022   6.475 -30.744  1.00  0.00    -0.273 OA
HETATM    5  H   UNL     1      -4.522   4.300 -28.965  1.00  0.00     0.162 HD
BRANCH   3   6
HETATM    6  C   UNL     1      -3.821   6.634 -29.781  1.00  0.00     0.143 C 
BRANCH   6   7
HETATM    7  C   UNL     1      -2.991   7.014 -30.972  1.00  0.00    -0.022 A 
HETATM    8  C   UNL     1      -2.569   6.248 -32.114  1.00  0.00    -0.001 A 
HETATM    9  C   UNL     1      -2.764   4.923 -32.565  1.00  0.00     0.014 A 
HETATM   10  C   UNL     1      -1.787   7.089 -32.913  1.00  0.00     0.042 A 
HETATM   11  C   UNL     1      -2.169   4.490 -33.756  1.00  0.00     0.001 A 
HETATM   12  C   UNL     1      -1.390   5.354 -34.515  1.00  0.00     0.002 A 
HETATM   13  C   UNL     1      -1.188   6.674 -34.111  1.00  0.00     0.030 A 
HETATM   14  N   UNL     1      -1.755   8.319 -32.305  1.00  0.00    -0.365 N 
HETATM   15  H   UNL     1      -1.273   9.127 -32.673  1.00  0.00     0.165 HD
HETATM   16  C   UNL     1      -2.467   8.286 -31.140  1.00  0.00     0.097 A 
ENDBRANCH   6   7
ENDBRANCH   3   6
ENDBRANCH   1   2
BRANCH   1  17
HETATM   17  C   UNL     1      -6.405   2.759 -30.409  1.00  0.00    -0.040 A 
HETATM   18  C   UNL     1      -5.144   2.270 -30.767  1.00  0.00     0.011 A 
HETATM   19  C   UNL     1      -5.018   1.086 -31.506  1.00  0.00     0.030 A 
HETATM   20  C   UNL     1      -6.152   0.374 -31.899  1.00  0.00     0.035 A 
HETATM   21  C   UNL     1      -7.415   0.884 -31.574  1.00  0.00     0.030 A 
HETATM   22  C   UNL     1      -7.541   2.067 -30.841  1.00  0.00     0.011 A 
BRANCH  20  23
HETATM   23  N   UNL     1      -6.115  -0.853 -32.585  1.00  0.00    -0.321 N 
HETATM   24  C   UNL     1      -6.148  -1.081 -33.949  1.00  0.00     0.279 C 
HETATM   25  O   UNL     1      -6.299  -0.222 -34.812  1.00  0.00    -0.265 OA
HETATM   26  H   UNL     1      -6.006  -1.692 -32.023  1.00  0.00     0.169 HD
BRANCH  24  27
HETATM   27  C   UNL     1      -5.968  -2.484 -34.282  1.00  0.00     0.142 A 
HETATM   28  O   UNL     1      -4.730  -3.060 -34.131  1.00  0.00    -0.317 OA
HETATM   29  C   UNL     1      -4.841  -4.354 -34.530  1.00  0.00     0.143 A 
HETATM   30  C   UNL     1      -6.126  -4.628 -34.933  1.00  0.00     0.027 A 
HETATM   31  C   UNL     1      -6.854  -3.424 -34.772  1.00  0.00     0.045 A 
ENDBRANCH  24  27
ENDBRANCH  20  23
ENDBRANCH   1  17
TORSDOF 6
ENDMDL
MODEL 7
REMARK VINA RESULT:      -8.1      5.006      8.288
REMARK  6 active torsions:
REMARK  status: ('A' for Active; 'I' for Inactive)
REMARK    1  A    between atoms: C_8  and  C_9 
REMARK    2  A    between atoms: C_9  and  C_10 
REMARK       I    between atoms: C_10  and  N_11 
REMARK    3  A    between atoms: N_11  and  C_12 
REMARK    4  A    between atoms: C_12  and  C_13 
REMARK    5  A    between atoms: C_16  and  N_17 
REMARK       I    between atoms: N_17  and  C_18 
REMARK    6  A    between atoms: C_18  and  C_19 
ROOT
HETATM    1  C   UNL     1      -9.973   0.342 -33.200  1.00  0.00     0.161 C 
ENDROOT
BRANCH   1   2
HETATM    2  N   UNL     1      -8.682   0.448 -33.831  1.00  0.00    -0.357 N 
HETATM    3  C   UNL     1      -7.532   0.474 -33.073  1.00  0.00     0.222 C 
HETATM    4  O   UNL     1      -7.547   0.462 -31.844  1.00  0.00    -0.273 OA
HETATM    5  H   UNL     1      -8.626   0.517 -34.840  1.00  0.00     0.162 HD
BRANCH   3   6
HETATM    6  C   UNL     1      -6.247   0.480 -33.870  1.00  0.00     0.143 C 
BRANCH   6   7
HETATM    7  C   UNL     1      -5.401  -0.757 -33.794  1.00  0.00    -0.022 A 
HETATM    8  C   UNL     1      -5.666  -2.111 -34.205  1.00  0.00    -0.001 A 
HETATM    9  C   UNL     1      -6.744  -2.781 -34.825  1.00  0.00     0.014 A 
HETATM   10  C   UNL     1      -4.539  -2.873 -33.878  1.00  0.00     0.042 A 
HETATM   11  C   UNL     1      -6.670  -4.158 -35.070  1.00  0.00     0.001 A 
HETATM   12  C   UNL     1      -5.536  -4.881 -34.719  1.00  0.00     0.002 A 
HETATM   13  C   UNL     1      -4.446  -4.250 -34.120  1.00  0.00     0.030 A 
HETATM   14  N   UNL     1      -3.618  -2.023 -33.318  1.00  0.00    -0.365 N 
HETATM   15  H   UNL     1      -2.700  -2.301 -33.001  1.00  0.00     0.165 HD
HETATM   16  C   UNL     1      -4.124  -0.756 -33.258  1.00  0.00     0.097 A 
ENDBRANCH   6   7
ENDBRANCH   3   6
ENDBRANCH   1   2
BRANCH   1  17
HETATM   17  C   UNL     1     -10.884   1.474 -33.589  1.00  0.00    -0.040 A 
HETATM   18  C   UNL     1     -10.846   2.693 -32.901  1.00  0.00     0.011 A 
HETATM   19  C   UNL     1     -11.663   3.761 -33.293  1.00  0.00     0.030 A 
HETATM   20  C   UNL     1     -12.532   3.628 -34.376  1.00  0.00     0.035 A 
HETATM   21  C   UNL     1     -12.598   2.396 -35.040  1.00  0.00     0.030 A 
HETATM   22  C   UNL     1     -11.787   1.328 -34.648  1.00  0.00     0.011 A 
BRANCH  20  23
HETATM   23  N   UNL     1     -13.337   4.667 -34.875  1.00  0.00    -0.321 N 
HETATM   24  C   UNL     1     -12.944   5.852 -35.471  1.00  0.00     0.279 C 
HETATM   25  O   UNL     1     -11.786   6.239 -35.596  1.00  0.00    -0.265 OA
HETATM   26  H   UNL     1     -14.342   4.529 -34.841  1.00  0.00     0.169 HD
BRANCH  24  27
HETATM   27  C   UNL     1     -14.071   6.624 -35.968  1.00  0.00     0.142 A 
HETATM   28  O   UNL     1     -15.050   7.028 -35.093  1.00  0.00    -0.317 OA
HETATM   29  C   UNL     1     -15.979   7.703 -35.818  1.00  0.00     0.143 A 
HETATM   30  C   UNL     1     -15.620   7.747 -37.144  1.00  0.00     0.027 A 
HETATM   31  C   UNL     1     -14.389   7.054 -37.242  1.00  0.00     0.045 A 
ENDBRANCH  24  27
ENDBRANCH  20  23
ENDBRANCH   1  17
TORSDOF 6
ENDMDL
MODEL 8
REMARK VINA RESULT:      -8.1      2.214      9.326
REMARK  6 active torsions:
REMARK  status: ('A' for Active; 'I' for Inactive)
REMARK    1  A    between atoms: C_8  and  C_9 
REMARK    2  A    between atoms: C_9  and  C_10 
REMARK       I    between atoms: C_10  and  N_11 
REMARK    3  A    between atoms: N_11  and  C_12 
REMARK    4  A    between atoms: C_12  and  C_13 
REMARK    5  A    between atoms: C_16  and  N_17 
REMARK       I    between atoms: N_17  and  C_18 
REMARK    6  A    between atoms: C_18  and  C_19 
ROOT
HETATM    1  C   UNL     1      -5.012   4.826 -31.074  1.00  0.00     0.161 C 
ENDROOT
BRANCH   1   2
HETATM    2  N   UNL     1      -3.752   5.374 -31.510  1.00  0.00    -0.357 N 
HETATM    3  C   UNL     1      -3.671   6.103 -32.676  1.00  0.00     0.222 C 
HETATM    4  O   UNL     1      -4.636   6.277 -33.419  1.00  0.00    -0.273 OA
HETATM    5  H   UNL     1      -2.921   5.208 -30.957  1.00  0.00     0.162 HD
BRANCH   3   6
HETATM    6  C   UNL     1      -2.313   6.707 -32.953  1.00  0.00     0.143 C 
BRANCH   6   7
HETATM    7  C   UNL     1      -1.283   6.574 -31.870  1.00  0.00    -0.022 A 
HETATM    8  C   UNL     1      -1.078   7.329 -30.662  1.00  0.00    -0.001 A 
HETATM    9  C   UNL     1      -1.726   8.415 -30.032  1.00  0.00     0.014 A 
HETATM   10  C   UNL     1       0.047   6.795 -30.025  1.00  0.00     0.042 A 
HETATM   11  C   UNL     1      -1.228   8.930 -28.829  1.00  0.00     0.001 A 
HETATM   12  C   UNL     1      -0.101   8.378 -28.233  1.00  0.00     0.002 A 
HETATM   13  C   UNL     1       0.556   7.295 -28.818  1.00  0.00     0.030 A 
HETATM   14  N   UNL     1       0.493   5.747 -30.790  1.00  0.00    -0.365 N 
HETATM   15  H   UNL     1       1.286   5.166 -30.558  1.00  0.00     0.165 HD
HETATM   16  C   UNL     1      -0.291   5.608 -31.899  1.00  0.00     0.097 A 
ENDBRANCH   6   7
ENDBRANCH   3   6
ENDBRANCH   1   2
BRANCH   1  17
HETATM   17  C   UNL     1      -5.179   3.393 -31.500  1.00  0.00    -0.040 A 
HETATM   18  C   UNL     1      -6.440   2.786 -31.494  1.00  0.00     0.011 A 
HETATM   19  C   UNL     1      -6.601   1.466 -31.933  1.00  0.00     0.030 A 
HETATM   20  C   UNL     1      -5.503   0.731 -32.382  1.00  0.00     0.035 A 
HETATM   21  C   UNL     1      -4.236   1.325 -32.352  1.00  0.00     0.030 A 
HETATM   22  C   UNL     1      -4.073   2.641 -31.910  1.00  0.00     0.011 A 
BRANCH  20  23
HETATM   23  N   UNL     1      -5.585  -0.574 -32.900  1.00  0.00    -0.321 N 
HETATM   24  C   UNL     1      -6.029  -0.982 -34.145  1.00  0.00     0.279 C 
HETATM   25  O   UNL     1      -6.515  -0.253 -35.004  1.00  0.00    -0.265 OA
HETATM   26  H   UNL     1      -5.237  -1.326 -32.312  1.00  0.00     0.169 HD
BRANCH  24  27
HETATM   27  C   UNL     1      -5.851  -2.409 -34.358  1.00  0.00     0.142 A 
HETATM   28  O   UNL     1      -4.638  -2.987 -34.074  1.00  0.00    -0.317 OA
HETATM   29  C   UNL     1      -4.743  -4.306 -34.381  1.00  0.00     0.143 A 
HETATM   30  C   UNL     1      -6.000  -4.594 -34.856  1.00  0.00     0.027 A 
HETATM   31  C   UNL     1      -6.716  -3.373 -34.839  1.00  0.00     0.045 A 
ENDBRANCH  24  27
ENDBRANCH  20  23
ENDBRANCH   1  17
TORSDOF 6
ENDMDL
MODEL 9
REMARK VINA RESULT:      -8.0      2.864      4.677
REMARK  6 active torsions:
REMARK  status: ('A' for Active; 'I' for Inactive)
REMARK    1  A    between atoms: C_8  and  C_9 
REMARK    2  A    between atoms: C_9  and  C_10 
REMARK       I    between atoms: C_10  and  N_11 
REMARK    3  A    between atoms: N_11  and  C_12 
REMARK    4  A    between atoms: C_12  and  C_13 
REMARK    5  A    between atoms: C_16  and  N_17 
REMARK       I    between atoms: N_17  and  C_18 
REMARK    6  A    between atoms: C_18  and  C_19 
ROOT
HETATM    1  C   UNL     1      -3.433   4.254 -33.025  1.00  0.00     0.161 C 
ENDROOT
BRANCH   1   2
HETATM    2  N   UNL     1      -4.420   3.388 -32.432  1.00  0.00    -0.357 N 
HETATM    3  C   UNL     1      -4.082   2.118 -32.019  1.00  0.00     0.222 C 
HETATM    4  O   UNL     1      -2.958   1.646 -32.181  1.00  0.00    -0.273 OA
HETATM    5  H   UNL     1      -5.373   3.717 -32.330  1.00  0.00     0.162 HD
BRANCH   3   6
HETATM    6  C   UNL     1      -5.188   1.363 -31.318  1.00  0.00     0.143 C 
BRANCH   6   7
HETATM    7  C   UNL     1      -6.032   0.460 -32.168  1.00  0.00    -0.022 A 
HETATM    8  C   UNL     1      -5.679  -0.669 -32.988  1.00  0.00    -0.001 A 
HETATM    9  C   UNL     1      -4.482  -1.356 -33.293  1.00  0.00     0.014 A 
HETATM   10  C   UNL     1      -6.856  -1.133 -33.586  1.00  0.00     0.042 A 
HETATM   11  C   UNL     1      -4.499  -2.441 -34.179  1.00  0.00     0.001 A 
HETATM   12  C   UNL     1      -5.689  -2.863 -34.760  1.00  0.00     0.002 A 
HETATM   13  C   UNL     1      -6.892  -2.220 -34.470  1.00  0.00     0.030 A 
HETATM   14  N   UNL     1      -7.884  -0.345 -33.132  1.00  0.00    -0.365 N 
HETATM   15  H   UNL     1      -8.853  -0.465 -33.389  1.00  0.00     0.165 HD
HETATM   16  C   UNL     1      -7.403   0.614 -32.288  1.00  0.00     0.097 A 
ENDBRANCH   6   7
ENDBRANCH   3   6
ENDBRANCH   1   2
BRANCH   1  17
HETATM   17  C   UNL     1      -2.697   5.059 -31.990  1.00  0.00    -0.040 A 
HETATM   18  C   UNL     1      -3.361   6.032 -31.232  1.00  0.00     0.011 A 
HETATM   19  C   UNL     1      -2.684   6.750 -30.238  1.00  0.00     0.030 A 
HETATM   20  C   UNL     1      -1.333   6.509 -29.987  1.00  0.00     0.035 A 
HETATM   21  C   UNL     1      -0.660   5.564 -30.770  1.00  0.00     0.030 A 
HETATM   22  C   UNL     1      -1.332   4.850 -31.766  1.00  0.00     0.011 A 
BRANCH  20  23
HETATM   23  N   UNL     1      -0.596   7.136 -28.966  1.00  0.00    -0.321 N 
HETATM   24  C   UNL     1      -0.853   7.161 -27.607  1.00  0.00     0.279 C 
HETATM   25  O   UNL     1      -1.844   6.688 -27.059  1.00  0.00    -0.265 OA
HETATM   26  H   UNL     1       0.264   7.601 -29.238  1.00  0.00     0.169 HD
BRANCH  24  27
HETATM   27  C   UNL     1       0.205   7.813 -26.854  1.00  0.00     0.142 A 
HETATM   28  O   UNL     1      -0.073   8.961 -26.154  1.00  0.00    -0.317 OA
HETATM   29  C   UNL     1       1.085   9.362 -25.569  1.00  0.00     0.143 A 
HETATM   30  C   UNL     1       2.107   8.496 -25.874  1.00  0.00     0.027 A 
HETATM   31  C   UNL     1       1.541   7.495 -26.700  1.00  0.00     0.045 A 
ENDBRANCH  24  27
ENDBRANCH  20  23
ENDBRANCH   1  17
TORSDOF 6
ENDMDL
MODEL 10
REMARK VINA RESULT:      -8.0      3.279     10.395
REMARK  6 active torsions:
REMARK  status: ('A' for Active; 'I' for Inactive)
REMARK    1  A    between atoms: C_8  and  C_9 
REMARK    2  A    between atoms: C_9  and  C_10 
REMARK       I    between atoms: C_10  and  N_11 
REMARK    3  A    between atoms: N_11  and  C_12 
REMARK    4  A    between atoms: C_12  and  C_13 
REMARK    5  A    between atoms: C_16  and  N_17 
REMARK       I    between atoms: N_17  and  C_18 
REMARK    6  A    between atoms: C_18  and  C_19 
ROOT
HETATM    1  C   UNL     1      -1.519   4.941 -33.674  1.00  0.00     0.161 C 
ENDROOT
BRANCH   1   2
HETATM    2  N   UNL     1      -1.322   6.092 -32.829  1.00  0.00    -0.357 N 
HETATM    3  C   UNL     1      -0.511   6.016 -31.718  1.00  0.00     0.222 C 
HETATM    4  O   UNL     1       0.033   4.971 -31.365  1.00  0.00    -0.273 OA
HETATM    5  H   UNL     1      -1.795   6.959 -33.053  1.00  0.00     0.162 HD
BRANCH   3   6
HETATM    6  C   UNL     1      -0.309   7.325 -30.989  1.00  0.00     0.143 C 
BRANCH   6   7
HETATM    7  C   UNL     1      -0.637   7.338 -29.525  1.00  0.00    -0.022 A 
HETATM    8  C   UNL     1       0.113   7.811 -28.392  1.00  0.00    -0.001 A 
HETATM    9  C   UNL     1       1.368   8.431 -28.204  1.00  0.00     0.014 A 
HETATM   10  C   UNL     1      -0.656   7.558 -27.250  1.00  0.00     0.042 A 
HETATM   11  C   UNL     1       1.811   8.749 -26.913  1.00  0.00     0.001 A 
HETATM   12  C   UNL     1       1.022   8.470 -25.804  1.00  0.00     0.002 A 
HETATM   13  C   UNL     1      -0.230   7.873 -25.952  1.00  0.00     0.030 A 
HETATM   14  N   UNL     1      -1.831   6.984 -27.666  1.00  0.00    -0.365 N 
HETATM   15  H   UNL     1      -2.583   6.710 -27.050  1.00  0.00     0.165 HD
HETATM   16  C   UNL     1      -1.830   6.842 -29.023  1.00  0.00     0.097 A 
ENDBRANCH   6   7
ENDBRANCH   3   6
ENDBRANCH   1   2
BRANCH   1  17
HETATM   17  C   UNL     1      -2.927   4.419 -33.590  1.00  0.00    -0.040 A 
HETATM   18  C   UNL     1      -3.948   4.982 -34.365  1.00  0.00     0.011 A 
HETATM   19  C   UNL     1      -5.249   4.466 -34.320  1.00  0.00     0.030 A 
HETATM   20  C   UNL     1      -5.551   3.380 -33.497  1.00  0.00     0.035 A 
HETATM   21  C   UNL     1      -4.539   2.842 -32.693  1.00  0.00     0.030 A 
HETATM   22  C   UNL     1      -3.242   3.359 -32.734  1.00  0.00     0.011 A 
BRANCH  20  23
HETATM   23  N   UNL     1      -6.812   2.760 -33.440  1.00  0.00    -0.321 N 
HETATM   24  C   UNL     1      -7.273   1.674 -34.162  1.00  0.00     0.279 C 
HETATM   25  O   UNL     1      -6.662   1.103 -35.060  1.00  0.00    -0.265 OA
HETATM   26  H   UNL     1      -7.469   3.115 -32.752  1.00  0.00     0.169 HD
BRANCH  24  27
HETATM   27  C   UNL     1      -8.595   1.245 -33.738  1.00  0.00     0.142 A 
HETATM   28  O   UNL     1      -9.652   2.116 -33.841  1.00  0.00    -0.317 OA
HETATM   29  C   UNL     1     -10.747   1.472 -33.360  1.00  0.00     0.143 A 
HETATM   30  C   UNL     1     -10.421   0.202 -32.952  1.00  0.00     0.027 A 
HETATM   31  C   UNL     1      -9.035   0.052 -33.196  1.00  0.00     0.045 A 
ENDBRANCH  24  27
ENDBRANCH  20  23
ENDBRANCH   1  17
TORSDOF 6
ENDMDL
