MODEL 1
REMARK VINA RESULT:      -8.9      0.000      0.000
REMARK  2 active torsions:
REMARK  status: ('A' for Active; 'I' for Inactive)
REMARK    1  A    between atoms: C_9  and  O_10 
REMARK    2  A    between atoms: C_9  and  C_11 
ROOT
HETATM    1  C   UNL     1      -5.860  -4.551 -35.469  1.00  0.00     0.048 C 
HETATM    2  C   UNL     1      -5.030  -3.872 -34.418  1.00  0.00    -0.061 A 
HETATM    3  C   UNL     1      -5.163  -2.495 -34.185  1.00  0.00     0.020 A 
HETATM    4  C   UNL     1      -4.388  -1.910 -33.193  1.00  0.00     0.018 A 
HETATM    5  C   UNL     1      -3.483  -2.680 -32.462  1.00  0.00     0.045 A 
HETATM    6  N   UNL     1      -2.798  -1.891 -31.551  1.00  0.00    -0.323 N 
HETATM    7  C   UNL     1      -3.210  -0.558 -31.618  1.00  0.00     0.266 A 
HETATM    8  O   UNL     1      -2.740   0.336 -30.930  1.00  0.00    -0.269 OA
HETATM    9  C   UNL     1      -4.300  -0.464 -32.747  1.00  0.00     0.199 A 
HETATM   10  C   UNL     1      -3.328  -4.034 -32.666  1.00  0.00     0.031 A 
HETATM   11  C   UNL     1      -4.114  -4.631 -33.654  1.00  0.00     0.009 A 
HETATM   12  H   UNL     1      -2.090  -2.207 -30.906  1.00  0.00     0.169 HD
ENDROOT
BRANCH   9  13
HETATM   13  O   UNL     1      -3.827   0.338 -33.825  1.00  0.00    -0.371 OA
HETATM   14  H   UNL     1      -3.027  -0.097 -34.160  1.00  0.00     0.212 HD
ENDBRANCH   9  13
BRANCH   9  15
HETATM   15  C   UNL     1      -5.680  -0.085 -32.248  1.00  0.00     0.025 A 
HETATM   16  C   UNL     1      -6.830   0.194 -33.082  1.00  0.00     0.003 A 
HETATM   17  C   UNL     1      -7.910   0.470 -32.244  1.00  0.00     0.043 A 
HETATM   18  C   UNL     1      -7.059   0.226 -34.476  1.00  0.00     0.014 A 
HETATM   19  C   UNL     1      -9.193   0.771 -32.721  1.00  0.00     0.030 A 
HETATM   20  N   UNL     1      -7.451   0.386 -30.958  1.00  0.00    -0.359 N 
HETATM   21  C   UNL     1      -9.386   0.791 -34.104  1.00  0.00     0.002 A 
HETATM   22  C   UNL     1      -8.335   0.523 -34.972  1.00  0.00     0.001 A 
HETATM   23  H   UNL     1      -8.025   0.548 -30.141  1.00  0.00     0.166 HD
HETATM   24  C   UNL     1      -6.125   0.036 -30.930  1.00  0.00     0.016 A 
HETATM   25  C   UNL     1      -5.433  -0.148 -29.624  1.00  0.00     0.069 C 
ENDBRANCH   9  15
TORSDOF 2
ENDMDL
MODEL 2
REMARK VINA RESULT:      -8.8      2.795      5.351
REMARK  2 active torsions:
REMARK  status: ('A' for Active; 'I' for Inactive)
REMARK    1  A    between atoms: C_9  and  O_10 
REMARK    2  A    between atoms: C_9  and  C_11 
ROOT
HETATM    1  C   UNL     1      -4.855   4.750 -34.599  1.00  0.00     0.048 C 
HETATM    2  C   UNL     1      -5.005   4.105 -33.251  1.00  0.00    -0.061 A 
HETATM    3  C   UNL     1      -5.491   2.794 -33.139  1.00  0.00     0.020 A 
HETATM    4  C   UNL     1      -5.599   2.231 -31.875  1.00  0.00     0.018 A 
HETATM    5  C   UNL     1      -5.247   2.967 -30.744  1.00  0.00     0.045 A 
HETATM    6  N   UNL     1      -5.461   2.223 -29.594  1.00  0.00    -0.323 N 
HETATM    7  C   UNL     1      -5.958   0.952 -29.891  1.00  0.00     0.266 A 
HETATM    8  O   UNL     1      -6.246   0.119 -29.046  1.00  0.00    -0.269 OA
HETATM    9  C   UNL     1      -6.110   0.866 -31.454  1.00  0.00     0.199 A 
HETATM   10  C   UNL     1      -4.766   4.256 -30.819  1.00  0.00     0.031 A 
HETATM   11  C   UNL     1      -4.644   4.825 -32.090  1.00  0.00     0.009 A 
HETATM   12  H   UNL     1      -5.286   2.529 -28.649  1.00  0.00     0.169 HD
ENDROOT
BRANCH   9  13
HETATM   13  O   UNL     1      -7.483   0.743 -31.810  1.00  0.00    -0.371 OA
HETATM   14  H   UNL     1      -7.505   0.279 -32.663  1.00  0.00     0.212 HD
ENDBRANCH   9  13
BRANCH   9  15
HETATM   15  C   UNL     1      -5.203  -0.153 -32.111  1.00  0.00     0.025 A 
HETATM   16  C   UNL     1      -5.603  -1.111 -33.120  1.00  0.00     0.003 A 
HETATM   17  C   UNL     1      -4.475  -1.843 -33.488  1.00  0.00     0.043 A 
HETATM   18  C   UNL     1      -6.821  -1.417 -33.769  1.00  0.00     0.014 A 
HETATM   19  C   UNL     1      -4.498  -2.852 -34.460  1.00  0.00     0.030 A 
HETATM   20  N   UNL     1      -3.432  -1.378 -32.734  1.00  0.00    -0.359 N 
HETATM   21  C   UNL     1      -5.718  -3.128 -35.083  1.00  0.00     0.002 A 
HETATM   22  C   UNL     1      -6.865  -2.421 -34.744  1.00  0.00     0.001 A 
HETATM   23  H   UNL     1      -2.489  -1.739 -32.790  1.00  0.00     0.166 HD
HETATM   24  C   UNL     1      -3.834  -0.353 -31.915  1.00  0.00     0.016 A 
HETATM   25  C   UNL     1      -2.845   0.324 -31.033  1.00  0.00     0.069 C 
ENDBRANCH   9  15
TORSDOF 2
ENDMDL
MODEL 3
REMARK VINA RESULT:      -8.6     13.283     14.656
REMARK  2 active torsions:
REMARK  status: ('A' for Active; 'I' for Inactive)
REMARK    1  A    between atoms: C_9  and  O_10 
REMARK    2  A    between atoms: C_9  and  C_11 
ROOT
HETATM    1  C   UNL     1      -4.520 -15.253 -44.212  1.00  0.00     0.048 C 
HETATM    2  C   UNL     1      -3.999 -14.744 -42.899  1.00  0.00    -0.061 A 
HETATM    3  C   UNL     1      -4.818 -13.976 -42.057  1.00  0.00     0.020 A 
HETATM    4  C   UNL     1      -4.301 -13.539 -40.845  1.00  0.00     0.018 A 
HETATM    5  C   UNL     1      -2.987 -13.845 -40.488  1.00  0.00     0.045 A 
HETATM    6  N   UNL     1      -2.675 -13.286 -39.259  1.00  0.00    -0.323 N 
HETATM    7  C   UNL     1      -3.758 -12.585 -38.724  1.00  0.00     0.266 A 
HETATM    8  O   UNL     1      -3.725 -11.987 -37.660  1.00  0.00    -0.269 OA
HETATM    9  C   UNL     1      -4.934 -12.683 -39.765  1.00  0.00     0.199 A 
HETATM   10  C   UNL     1      -2.157 -14.597 -41.292  1.00  0.00     0.031 A 
HETATM   11  C   UNL     1      -2.676 -15.050 -42.507  1.00  0.00     0.009 A 
HETATM   12  H   UNL     1      -1.790 -13.361 -38.781  1.00  0.00     0.169 HD
ENDROOT
BRANCH   9  13
HETATM   13  O   UNL     1      -5.234 -11.396 -40.293  1.00  0.00    -0.371 OA
HETATM   14  H   UNL     1      -5.960 -11.521 -40.926  1.00  0.00     0.212 HD
ENDBRANCH   9  13
BRANCH   9  15
HETATM   15  C   UNL     1      -6.142 -13.448 -39.265  1.00  0.00     0.025 A 
HETATM   16  C   UNL     1      -7.524 -13.106 -39.528  1.00  0.00     0.003 A 
HETATM   17  C   UNL     1      -8.328 -14.070 -38.923  1.00  0.00     0.043 A 
HETATM   18  C   UNL     1      -8.170 -12.068 -40.238  1.00  0.00     0.014 A 
HETATM   19  C   UNL     1      -9.728 -14.055 -38.990  1.00  0.00     0.030 A 
HETATM   20  N   UNL     1      -7.491 -14.957 -38.301  1.00  0.00    -0.359 N 
HETATM   21  C   UNL     1     -10.334 -13.017 -39.701  1.00  0.00     0.002 A 
HETATM   22  C   UNL     1      -9.568 -12.035 -40.318  1.00  0.00     0.001 A 
HETATM   23  H   UNL     1      -7.808 -15.759 -37.774  1.00  0.00     0.166 HD
HETATM   24  C   UNL     1      -6.177 -14.620 -38.506  1.00  0.00     0.016 A 
HETATM   25  C   UNL     1      -5.095 -15.475 -37.945  1.00  0.00     0.069 C 
ENDBRANCH   9  15
TORSDOF 2
ENDMDL
MODEL 4
REMARK VINA RESULT:      -8.5      3.128      5.398
REMARK  2 active torsions:
REMARK  status: ('A' for Active; 'I' for Inactive)
REMARK    1  A    between atoms: C_9  and  O_10 
REMARK    2  A    between atoms: C_9  and  C_11 
ROOT
HETATM    1  C   UNL     1      -3.826   5.295 -35.003  1.00  0.00     0.048 C 
HETATM    2  C   UNL     1      -3.971   4.383 -33.819  1.00  0.00    -0.061 A 
HETATM    3  C   UNL     1      -5.176   3.701 -33.589  1.00  0.00     0.020 A 
HETATM    4  C   UNL     1      -5.262   2.857 -32.490  1.00  0.00     0.018 A 
HETATM    5  C   UNL     1      -4.175   2.710 -31.629  1.00  0.00     0.045 A 
HETATM    6  N   UNL     1      -4.491   1.847 -30.590  1.00  0.00    -0.323 N 
HETATM    7  C   UNL     1      -5.797   1.365 -30.705  1.00  0.00     0.266 A 
HETATM    8  O   UNL     1      -6.316   0.606 -29.901  1.00  0.00    -0.269 OA
HETATM    9  C   UNL     1      -6.426   2.027 -31.985  1.00  0.00     0.199 A 
HETATM   10  C   UNL     1      -2.979   3.364 -31.826  1.00  0.00     0.031 A 
HETATM   11  C   UNL     1      -2.882   4.207 -32.936  1.00  0.00     0.009 A 
HETATM   12  H   UNL     1      -3.879   1.576 -29.836  1.00  0.00     0.169 HD
ENDROOT
BRANCH   9  13
HETATM   13  O   UNL     1      -7.500   2.888 -31.619  1.00  0.00    -0.371 OA
HETATM   14  H   UNL     1      -7.122   3.779 -31.537  1.00  0.00     0.212 HD
ENDBRANCH   9  13
BRANCH   9  15
HETATM   15  C   UNL     1      -6.765   1.046 -33.089  1.00  0.00     0.025 A 
HETATM   16  C   UNL     1      -6.022  -0.156 -33.405  1.00  0.00     0.003 A 
HETATM   17  C   UNL     1      -6.671  -0.798 -34.458  1.00  0.00     0.043 A 
HETATM   18  C   UNL     1      -4.859  -0.768 -32.884  1.00  0.00     0.014 A 
HETATM   19  C   UNL     1      -6.227  -2.006 -35.012  1.00  0.00     0.030 A 
HETATM   20  N   UNL     1      -7.752  -0.026 -34.792  1.00  0.00    -0.359 N 
HETATM   21  C   UNL     1      -5.077  -2.586 -34.472  1.00  0.00     0.002 A 
HETATM   22  C   UNL     1      -4.400  -1.977 -33.422  1.00  0.00     0.001 A 
HETATM   23  H   UNL     1      -8.399  -0.252 -35.535  1.00  0.00     0.166 HD
HETATM   24  C   UNL     1      -7.843   1.073 -33.976  1.00  0.00     0.016 A 
HETATM   25  C   UNL     1      -8.971   2.030 -34.143  1.00  0.00     0.069 C 
ENDBRANCH   9  15
TORSDOF 2
ENDMDL
MODEL 5
REMARK VINA RESULT:      -8.4      3.972      5.795
REMARK  2 active torsions:
REMARK  status: ('A' for Active; 'I' for Inactive)
REMARK    1  A    between atoms: C_9  and  O_10 
REMARK    2  A    between atoms: C_9  and  C_11 
ROOT
HETATM    1  C   UNL     1      -1.557   5.178 -34.909  1.00  0.00     0.048 C 
HETATM    2  C   UNL     1      -2.321   4.981 -33.631  1.00  0.00    -0.061 A 
HETATM    3  C   UNL     1      -3.512   4.240 -33.619  1.00  0.00     0.020 A 
HETATM    4  C   UNL     1      -4.178   4.070 -32.413  1.00  0.00     0.018 A 
HETATM    5  C   UNL     1      -3.676   4.645 -31.245  1.00  0.00     0.045 A 
HETATM    6  N   UNL     1      -4.511   4.374 -30.172  1.00  0.00    -0.323 N 
HETATM    7  C   UNL     1      -5.608   3.601 -30.560  1.00  0.00     0.266 A 
HETATM    8  O   UNL     1      -6.497   3.250 -29.800  1.00  0.00    -0.269 OA
HETATM    9  C   UNL     1      -5.479   3.355 -32.108  1.00  0.00     0.199 A 
HETATM   10  C   UNL     1      -2.509   5.378 -31.222  1.00  0.00     0.031 A 
HETATM   11  C   UNL     1      -1.828   5.542 -32.431  1.00  0.00     0.009 A 
HETATM   12  H   UNL     1      -4.372   4.677 -29.221  1.00  0.00     0.169 HD
ENDROOT
BRANCH   9  13
HETATM   13  O   UNL     1      -6.547   3.994 -32.801  1.00  0.00    -0.371 OA
HETATM   14  H   UNL     1      -7.213   4.219 -32.131  1.00  0.00     0.212 HD
ENDBRANCH   9  13
BRANCH   9  15
HETATM   15  C   UNL     1      -5.270   1.903 -32.490  1.00  0.00     0.025 A 
HETATM   16  C   UNL     1      -6.064   1.161 -33.447  1.00  0.00     0.003 A 
HETATM   17  C   UNL     1      -5.534  -0.125 -33.539  1.00  0.00     0.043 A 
HETATM   18  C   UNL     1      -7.181   1.467 -34.257  1.00  0.00     0.014 A 
HETATM   19  C   UNL     1      -6.053  -1.110 -34.389  1.00  0.00     0.030 A 
HETATM   20  N   UNL     1      -4.477  -0.185 -32.671  1.00  0.00    -0.359 N 
HETATM   21  C   UNL     1      -7.156  -0.775 -35.177  1.00  0.00     0.002 A 
HETATM   22  C   UNL     1      -7.715   0.496 -35.114  1.00  0.00     0.001 A 
HETATM   23  H   UNL     1      -3.910  -1.010 -32.528  1.00  0.00     0.166 HD
HETATM   24  C   UNL     1      -4.284   1.020 -32.045  1.00  0.00     0.016 A 
HETATM   25  C   UNL     1      -3.160   1.186 -31.083  1.00  0.00     0.069 C 
ENDBRANCH   9  15
TORSDOF 2
ENDMDL
MODEL 6
REMARK VINA RESULT:      -8.4      4.190      5.855
REMARK  2 active torsions:
REMARK  status: ('A' for Active; 'I' for Inactive)
REMARK    1  A    between atoms: C_9  and  O_10 
REMARK    2  A    between atoms: C_9  and  C_11 
ROOT
HETATM    1  C   UNL     1      -4.172  -1.422 -33.739  1.00  0.00     0.048 C 
HETATM    2  C   UNL     1      -5.079  -0.471 -33.012  1.00  0.00    -0.061 A 
HETATM    3  C   UNL     1      -4.617   0.795 -32.620  1.00  0.00     0.020 A 
HETATM    4  C   UNL     1      -5.493   1.648 -31.964  1.00  0.00     0.018 A 
HETATM    5  C   UNL     1      -6.798   1.240 -31.687  1.00  0.00     0.045 A 
HETATM    6  N   UNL     1      -7.484   2.233 -31.004  1.00  0.00    -0.323 N 
HETATM    7  C   UNL     1      -6.681   3.357 -30.794  1.00  0.00     0.266 A 
HETATM    8  O   UNL     1      -7.051   4.356 -30.197  1.00  0.00    -0.269 OA
HETATM    9  C   UNL     1      -5.268   3.041 -31.407  1.00  0.00     0.199 A 
HETATM   10  C   UNL     1      -7.283   0.005 -32.058  1.00  0.00     0.031 A 
HETATM   11  C   UNL     1      -6.409  -0.854 -32.729  1.00  0.00     0.009 A 
HETATM   12  H   UNL     1      -8.440   2.185 -30.688  1.00  0.00     0.169 HD
ENDROOT
BRANCH   9  13
HETATM   13  O   UNL     1      -4.284   2.988 -30.380  1.00  0.00    -0.371 OA
HETATM   14  H   UNL     1      -3.589   2.388 -30.695  1.00  0.00     0.212 HD
ENDBRANCH   9  13
BRANCH   9  15
HETATM   15  C   UNL     1      -4.892   3.917 -32.584  1.00  0.00     0.025 A 
HETATM   16  C   UNL     1      -3.569   4.439 -32.858  1.00  0.00     0.003 A 
HETATM   17  C   UNL     1      -3.632   5.168 -34.044  1.00  0.00     0.043 A 
HETATM   18  C   UNL     1      -2.315   4.348 -32.213  1.00  0.00     0.014 A 
HETATM   19  C   UNL     1      -2.521   5.804 -34.615  1.00  0.00     0.030 A 
HETATM   20  N   UNL     1      -4.930   5.119 -34.476  1.00  0.00    -0.359 N 
HETATM   21  C   UNL     1      -1.297   5.692 -33.953  1.00  0.00     0.002 A 
HETATM   22  C   UNL     1      -1.192   4.975 -32.767  1.00  0.00     0.001 A 
HETATM   23  H   UNL     1      -5.264   5.573 -35.316  1.00  0.00     0.166 HD
HETATM   24  C   UNL     1      -5.702   4.360 -33.633  1.00  0.00     0.016 A 
HETATM   25  C   UNL     1      -7.143   4.144 -33.937  1.00  0.00     0.069 C 
ENDBRANCH   9  15
TORSDOF 2
ENDMDL
MODEL 7
REMARK VINA RESULT:      -8.1      3.570      5.272
REMARK  2 active torsions:
REMARK  status: ('A' for Active; 'I' for Inactive)
REMARK    1  A    between atoms: C_9  and  O_10 
REMARK    2  A    between atoms: C_9  and  C_11 
ROOT
HETATM    1  C   UNL     1      -4.503  -1.167 -31.967  1.00  0.00     0.048 C 
HETATM    2  C   UNL     1      -5.648  -0.685 -32.811  1.00  0.00    -0.061 A 
HETATM    3  C   UNL     1      -6.638   0.145 -32.263  1.00  0.00     0.020 A 
HETATM    4  C   UNL     1      -7.670   0.580 -33.083  1.00  0.00     0.018 A 
HETATM    5  C   UNL     1      -7.723   0.180 -34.418  1.00  0.00     0.045 A 
HETATM    6  N   UNL     1      -8.847   0.705 -35.038  1.00  0.00    -0.323 N 
HETATM    7  C   UNL     1      -9.599   1.487 -34.157  1.00  0.00     0.266 A 
HETATM    8  O   UNL     1     -10.645   2.040 -34.461  1.00  0.00    -0.269 OA
HETATM    9  C   UNL     1      -8.873   1.445 -32.763  1.00  0.00     0.199 A 
HETATM   10  C   UNL     1      -6.768  -0.633 -34.988  1.00  0.00     0.031 A 
HETATM   11  C   UNL     1      -5.720  -1.065 -34.170  1.00  0.00     0.009 A 
HETATM   12  H   UNL     1      -9.115   0.564 -36.000  1.00  0.00     0.169 HD
ENDROOT
BRANCH   9  13
HETATM   13  O   UNL     1      -9.690   0.786 -31.801  1.00  0.00    -0.371 OA
HETATM   14  H   UNL     1     -10.149   0.073 -32.272  1.00  0.00     0.212 HD
ENDBRANCH   9  13
BRANCH   9  15
HETATM   15  C   UNL     1      -8.330   2.783 -32.306  1.00  0.00     0.025 A 
HETATM   16  C   UNL     1      -7.238   3.506 -32.924  1.00  0.00     0.003 A 
HETATM   17  C   UNL     1      -7.067   4.702 -32.229  1.00  0.00     0.043 A 
HETATM   18  C   UNL     1      -6.384   3.260 -34.023  1.00  0.00     0.014 A 
HETATM   19  C   UNL     1      -6.099   5.656 -32.571  1.00  0.00     0.030 A 
HETATM   20  N   UNL     1      -7.991   4.715 -31.219  1.00  0.00    -0.359 N 
HETATM   21  C   UNL     1      -5.273   5.383 -33.664  1.00  0.00     0.002 A 
HETATM   22  C   UNL     1      -5.412   4.201 -34.382  1.00  0.00     0.001 A 
HETATM   23  H   UNL     1      -8.086   5.467 -30.550  1.00  0.00     0.166 HD
HETATM   24  C   UNL     1      -8.773   3.589 -31.254  1.00  0.00     0.016 A 
HETATM   25  C   UNL     1      -9.870   3.416 -30.262  1.00  0.00     0.069 C 
ENDBRANCH   9  15
TORSDOF 2
ENDMDL
MODEL 8
REMARK VINA RESULT:      -8.1      3.344      4.796
REMARK  2 active torsions:
REMARK  status: ('A' for Active; 'I' for Inactive)
REMARK    1  A    between atoms: C_9  and  O_10 
REMARK    2  A    between atoms: C_9  and  C_11 
ROOT
HETATM    1  C   UNL     1      -4.873  -2.597 -33.990  1.00  0.00     0.048 C 
HETATM    2  C   UNL     1      -5.902  -1.504 -34.049  1.00  0.00    -0.061 A 
HETATM    3  C   UNL     1      -6.146  -0.695 -32.929  1.00  0.00     0.020 A 
HETATM    4  C   UNL     1      -7.095   0.313 -33.032  1.00  0.00     0.018 A 
HETATM    5  C   UNL     1      -7.800   0.498 -34.222  1.00  0.00     0.045 A 
HETATM    6  N   UNL     1      -8.711   1.534 -34.091  1.00  0.00    -0.323 N 
HETATM    7  C   UNL     1      -8.661   2.103 -32.816  1.00  0.00     0.266 A 
HETATM    8  O   UNL     1      -9.381   3.018 -32.449  1.00  0.00    -0.269 OA
HETATM    9  C   UNL     1      -7.580   1.308 -31.995  1.00  0.00     0.199 A 
HETATM   10  C   UNL     1      -7.584  -0.280 -35.339  1.00  0.00     0.031 A 
HETATM   11  C   UNL     1      -6.622  -1.288 -35.245  1.00  0.00     0.009 A 
HETATM   12  H   UNL     1      -9.341   1.864 -34.806  1.00  0.00     0.169 HD
ENDROOT
BRANCH   9  13
HETATM   13  O   UNL     1      -8.195   0.608 -30.918  1.00  0.00    -0.371 OA
HETATM   14  H   UNL     1      -7.482   0.142 -30.451  1.00  0.00     0.212 HD
ENDBRANCH   9  13
BRANCH   9  15
HETATM   15  C   UNL     1      -6.374   2.133 -31.594  1.00  0.00     0.025 A 
HETATM   16  C   UNL     1      -5.853   3.272 -32.320  1.00  0.00     0.003 A 
HETATM   17  C   UNL     1      -4.762   3.770 -31.611  1.00  0.00     0.043 A 
HETATM   18  C   UNL     1      -6.217   3.937 -33.513  1.00  0.00     0.014 A 
HETATM   19  C   UNL     1      -4.023   4.887 -32.024  1.00  0.00     0.030 A 
HETATM   20  N   UNL     1      -4.601   2.972 -30.511  1.00  0.00    -0.359 N 
HETATM   21  C   UNL     1      -4.410   5.523 -33.206  1.00  0.00     0.002 A 
HETATM   22  C   UNL     1      -5.493   5.056 -33.943  1.00  0.00     0.001 A 
HETATM   23  H   UNL     1      -3.873   3.101 -29.821  1.00  0.00     0.166 HD
HETATM   24  C   UNL     1      -5.564   1.996 -30.465  1.00  0.00     0.016 A 
HETATM   25  C   UNL     1      -5.596   1.037 -29.327  1.00  0.00     0.069 C 
ENDBRANCH   9  15
TORSDOF 2
ENDMDL
MODEL 9
REMARK VINA RESULT:      -8.1      5.601      7.648
REMARK  2 active torsions:
REMARK  status: ('A' for Active; 'I' for Inactive)
REMARK    1  A    between atoms: C_9  and  O_10 
REMARK    2  A    between atoms: C_9  and  C_11 
ROOT
HETATM    1  C   UNL     1       1.126   4.831 -29.342  1.00  0.00     0.048 C 
HETATM    2  C   UNL     1       0.171   5.432 -30.333  1.00  0.00    -0.061 A 
HETATM    3  C   UNL     1      -0.846   4.653 -30.905  1.00  0.00     0.020 A 
HETATM    4  C   UNL     1      -1.716   5.253 -31.805  1.00  0.00     0.018 A 
HETATM    5  C   UNL     1      -1.563   6.598 -32.142  1.00  0.00     0.045 A 
HETATM    6  N   UNL     1      -2.517   6.977 -33.074  1.00  0.00    -0.323 N 
HETATM    7  C   UNL     1      -3.361   5.914 -33.404  1.00  0.00     0.266 A 
HETATM    8  O   UNL     1      -4.267   5.992 -34.219  1.00  0.00    -0.269 OA
HETATM    9  C   UNL     1      -2.871   4.662 -32.589  1.00  0.00     0.199 A 
HETATM   10  C   UNL     1      -0.576   7.391 -31.598  1.00  0.00     0.031 A 
HETATM   11  C   UNL     1       0.296   6.795 -30.682  1.00  0.00     0.009 A 
HETATM   12  H   UNL     1      -2.619   7.895 -33.478  1.00  0.00     0.169 HD
ENDROOT
BRANCH   9  13
HETATM   13  O   UNL     1      -2.382   3.658 -33.472  1.00  0.00    -0.371 OA
HETATM   14  H   UNL     1      -3.061   3.537 -34.155  1.00  0.00     0.212 HD
ENDBRANCH   9  13
BRANCH   9  15
HETATM   15  C   UNL     1      -3.870   4.157 -31.567  1.00  0.00     0.025 A 
HETATM   16  C   UNL     1      -4.230   2.771 -31.353  1.00  0.00     0.003 A 
HETATM   17  C   UNL     1      -5.150   2.724 -30.307  1.00  0.00     0.043 A 
HETATM   18  C   UNL     1      -3.847   1.546 -31.943  1.00  0.00     0.014 A 
HETATM   19  C   UNL     1      -5.703   1.530 -29.825  1.00  0.00     0.030 A 
HETATM   20  N   UNL     1      -5.366   4.014 -29.904  1.00  0.00    -0.359 N 
HETATM   21  C   UNL     1      -5.302   0.336 -30.429  1.00  0.00     0.002 A 
HETATM   22  C   UNL     1      -4.386   0.341 -31.475  1.00  0.00     0.001 A 
HETATM   23  H   UNL     1      -6.000   4.275 -29.161  1.00  0.00     0.166 HD
HETATM   24  C   UNL     1      -4.598   4.891 -30.627  1.00  0.00     0.016 A 
HETATM   25  C   UNL     1      -4.651   6.348 -30.326  1.00  0.00     0.069 C 
ENDBRANCH   9  15
TORSDOF 2
ENDMDL
MODEL 10
REMARK VINA RESULT:      -8.0     13.125     14.488
REMARK  2 active torsions:
REMARK  status: ('A' for Active; 'I' for Inactive)
REMARK    1  A    between atoms: C_9  and  O_10 
REMARK    2  A    between atoms: C_9  and  C_11 
ROOT
HETATM    1  C   UNL     1      -9.087 -12.212 -39.642  1.00  0.00     0.048 C 
HETATM    2  C   UNL     1      -7.606 -12.451 -39.688  1.00  0.00    -0.061 A 
HETATM    3  C   UNL     1      -6.893 -12.740 -38.514  1.00  0.00     0.020 A 
HETATM    4  C   UNL     1      -5.528 -12.969 -38.605  1.00  0.00     0.018 A 
HETATM    5  C   UNL     1      -4.882 -12.894 -39.839  1.00  0.00     0.045 A 
HETATM    6  N   UNL     1      -3.523 -13.128 -39.692  1.00  0.00    -0.323 N 
HETATM    7  C   UNL     1      -3.188 -13.379 -38.359  1.00  0.00     0.266 A 
HETATM    8  O   UNL     1      -2.050 -13.593 -37.971  1.00  0.00    -0.269 OA
HETATM    9  C   UNL     1      -4.513 -13.270 -37.519  1.00  0.00     0.199 A 
HETATM   10  C   UNL     1      -5.551 -12.613 -41.010  1.00  0.00     0.031 A 
HETATM   11  C   UNL     1      -6.928 -12.393 -40.927  1.00  0.00     0.009 A 
HETATM   12  H   UNL     1      -2.837 -13.128 -40.431  1.00  0.00     0.169 HD
ENDROOT
BRANCH   9  13
HETATM   13  O   UNL     1      -4.439 -12.168 -36.620  1.00  0.00    -0.371 OA
HETATM   14  H   UNL     1      -3.576 -12.229 -36.180  1.00  0.00     0.212 HD
ENDBRANCH   9  13
BRANCH   9  15
HETATM   15  C   UNL     1      -4.948 -14.570 -36.874  1.00  0.00     0.025 A 
HETATM   16  C   UNL     1      -5.731 -14.690 -35.662  1.00  0.00     0.003 A 
HETATM   17  C   UNL     1      -5.945 -16.046 -35.421  1.00  0.00     0.043 A 
HETATM   18  C   UNL     1      -6.292 -13.767 -34.750  1.00  0.00     0.014 A 
HETATM   19  C   UNL     1      -6.684 -16.524 -34.331  1.00  0.00     0.030 A 
HETATM   20  N   UNL     1      -5.313 -16.735 -36.421  1.00  0.00    -0.359 N 
HETATM   21  C   UNL     1      -7.226 -15.586 -33.450  1.00  0.00     0.002 A 
HETATM   22  C   UNL     1      -7.034 -14.225 -33.654  1.00  0.00     0.001 A 
HETATM   23  H   UNL     1      -5.299 -17.743 -36.490  1.00  0.00     0.166 HD
HETATM   24  C   UNL     1      -4.725 -15.877 -37.315  1.00  0.00     0.016 A 
HETATM   25  C   UNL     1      -4.011 -16.418 -38.504  1.00  0.00     0.069 C 
ENDBRANCH   9  15
TORSDOF 2
ENDMDL
