MODEL 1
REMARK VINA RESULT:      -9.2      0.000      0.000
REMARK  7 active torsions:
REMARK  status: ('A' for Active; 'I' for Inactive)
REMARK    1  A    between atoms: C_2  and  O_3 
REMARK    2  A    between atoms: O_3  and  C_4 
REMARK    3  A    between atoms: C_7  and  N_8 
REMARK    4  A    between atoms: C_9  and  C_11 
REMARK    5  A    between atoms: C_9  and  O_10 
REMARK       I    between atoms: C_11  and  N_12 
REMARK    6  A    between atoms: N_12  and  C_13 
REMARK    7  A    between atoms: C_13  and  C_14 
ROOT
HETATM    1  N   UNL     1      -6.169   3.427 -32.714  1.00  0.00    -0.254 N 
HETATM    2  C   UNL     1      -6.686   2.266 -31.961  1.00  0.00     0.256 C 
HETATM    3  C   UNL     1      -8.001   1.739 -32.504  1.00  0.00     0.034 A 
HETATM    4  C   UNL     1      -8.798   2.605 -33.246  1.00  0.00     0.048 A 
HETATM    5  N   UNL     1      -8.330   3.884 -33.516  1.00  0.00    -0.308 N 
HETATM    6  C   UNL     1      -7.062   4.327 -33.279  1.00  0.00     0.330 C 
HETATM    7  O   UNL     1      -6.781   5.468 -33.647  1.00  0.00    -0.246 OA
HETATM    8  C   UNL     1      -8.502   0.456 -32.220  1.00  0.00     0.015 A 
HETATM    9  C   UNL     1      -9.750   0.053 -32.703  1.00  0.00     0.001 A 
HETATM   10  C   UNL     1     -10.526   0.934 -33.452  1.00  0.00     0.002 A 
HETATM   11  C   UNL     1     -10.054   2.217 -33.717  1.00  0.00     0.030 A 
HETATM   12  H   UNL     1      -8.914   4.541 -34.015  1.00  0.00     0.170 HD
ENDROOT
BRANCH   2  13
HETATM   13  C   UNL     1      -5.649   1.072 -31.815  1.00  0.00     0.279 C 
HETATM   14  N   UNL     1      -5.335   0.460 -33.019  1.00  0.00    -0.352 N 
HETATM   15  H   UNL     1      -5.560   0.982 -33.861  1.00  0.00     0.162 HD
HETATM   16  O   UNL     1      -5.171   0.692 -30.747  1.00  0.00    -0.268 OA
BRANCH  14  17
HETATM   17  C   UNL     1      -4.362  -0.600 -33.089  1.00  0.00     0.161 C 
BRANCH  17  18
HETATM   18  C   UNL     1      -4.961  -1.828 -33.718  1.00  0.00    -0.040 A 
HETATM   19  C   UNL     1      -4.197  -2.995 -33.880  1.00  0.00     0.012 A 
HETATM   20  C   UNL     1      -4.753  -4.124 -34.486  1.00  0.00     0.043 A 
HETATM   21  C   UNL     1      -6.068  -4.084 -34.934  1.00  0.00     0.116 A 
HETATM   22  F   UNL     1      -6.599  -5.168 -35.515  1.00  0.00    -0.206 F 
HETATM   23  C   UNL     1      -6.837  -2.936 -34.794  1.00  0.00     0.043 A 
HETATM   24  C   UNL     1      -6.285  -1.805 -34.190  1.00  0.00     0.012 A 
ENDBRANCH  17  18
ENDBRANCH  14  17
ENDBRANCH   2  13
BRANCH   2  25
HETATM   25  O   UNL     1      -6.992   2.751 -30.638  1.00  0.00    -0.359 OA
HETATM   26  H   UNL     1      -7.219   3.685 -30.778  1.00  0.00     0.213 HD
ENDBRANCH   2  25
BRANCH   1  27
HETATM   27  C   UNL     1      -4.822   3.855 -32.490  1.00  0.00     0.043 A 
HETATM   28  C   UNL     1      -4.462   4.524 -31.312  1.00  0.00     0.032 A 
HETATM   29  C   UNL     1      -3.145   4.955 -31.104  1.00  0.00     0.039 A 
HETATM   30  C   UNL     1      -2.175   4.743 -32.082  1.00  0.00     0.068 A 
HETATM   31  C   UNL     1      -2.534   4.090 -33.262  1.00  0.00     0.039 A 
HETATM   32  C   UNL     1      -3.847   3.662 -33.472  1.00  0.00     0.032 A 
BRANCH  30  33
HETATM   33  O   UNL     1      -0.864   5.121 -32.015  1.00  0.00    -0.352 OA
BRANCH  33  34
HETATM   34  C   UNL     1      -0.332   5.385 -30.719  1.00  0.00     0.171 C 
HETATM   35  C   UNL     1       0.408   6.709 -30.781  1.00  0.00     0.034 C 
ENDBRANCH  33  34
ENDBRANCH  30  33
ENDBRANCH   1  27
TORSDOF 7
ENDMDL
MODEL 2
REMARK VINA RESULT:      -9.2      2.810      6.720
REMARK  7 active torsions:
REMARK  status: ('A' for Active; 'I' for Inactive)
REMARK    1  A    between atoms: C_2  and  O_3 
REMARK    2  A    between atoms: O_3  and  C_4 
REMARK    3  A    between atoms: C_7  and  N_8 
REMARK    4  A    between atoms: C_9  and  C_11 
REMARK    5  A    between atoms: C_9  and  O_10 
REMARK       I    between atoms: C_11  and  N_12 
REMARK    6  A    between atoms: N_12  and  C_13 
REMARK    7  A    between atoms: C_13  and  C_14 
ROOT
HETATM    1  N   UNL     1      -8.492   1.932 -32.601  1.00  0.00    -0.254 N 
HETATM    2  C   UNL     1      -7.260   1.847 -33.411  1.00  0.00     0.256 C 
HETATM    3  C   UNL     1      -5.998   1.761 -32.573  1.00  0.00     0.034 A 
HETATM    4  C   UNL     1      -6.042   2.247 -31.271  1.00  0.00     0.048 A 
HETATM    5  N   UNL     1      -7.247   2.723 -30.771  1.00  0.00    -0.308 N 
HETATM    6  C   UNL     1      -8.461   2.589 -31.378  1.00  0.00     0.330 C 
HETATM    7  O   UNL     1      -9.450   2.998 -30.769  1.00  0.00    -0.246 OA
HETATM    8  C   UNL     1      -4.763   1.307 -33.070  1.00  0.00     0.015 A 
HETATM    9  C   UNL     1      -3.623   1.309 -32.261  1.00  0.00     0.001 A 
HETATM   10  C   UNL     1      -3.694   1.791 -30.957  1.00  0.00     0.002 A 
HETATM   11  C   UNL     1      -4.904   2.271 -30.461  1.00  0.00     0.030 A 
HETATM   12  H   UNL     1      -7.288   3.120 -29.842  1.00  0.00     0.170 HD
ENDROOT
BRANCH   2  13
HETATM   13  C   UNL     1      -7.270   0.679 -34.487  1.00  0.00     0.279 C 
HETATM   14  N   UNL     1      -7.310  -0.590 -33.928  1.00  0.00    -0.352 N 
HETATM   15  H   UNL     1      -7.602  -0.643 -32.956  1.00  0.00     0.162 HD
HETATM   16  O   UNL     1      -7.224   0.853 -35.704  1.00  0.00    -0.268 OA
BRANCH  14  17
HETATM   17  C   UNL     1      -7.390  -1.769 -34.751  1.00  0.00     0.161 C 
BRANCH  17  18
HETATM   18  C   UNL     1      -6.207  -2.666 -34.508  1.00  0.00    -0.040 A 
HETATM   19  C   UNL     1      -6.253  -4.023 -34.862  1.00  0.00     0.012 A 
HETATM   20  C   UNL     1      -5.160  -4.856 -34.611  1.00  0.00     0.043 A 
HETATM   21  C   UNL     1      -4.025  -4.332 -34.002  1.00  0.00     0.116 A 
HETATM   22  F   UNL     1      -2.978  -5.132 -33.762  1.00  0.00    -0.206 F 
HETATM   23  C   UNL     1      -3.964  -2.994 -33.633  1.00  0.00     0.043 A 
HETATM   24  C   UNL     1      -5.054  -2.160 -33.881  1.00  0.00     0.012 A 
ENDBRANCH  17  18
ENDBRANCH  14  17
ENDBRANCH   2  13
BRANCH   2  25
HETATM   25  O   UNL     1      -7.158   3.100 -34.118  1.00  0.00    -0.359 OA
HETATM   26  H   UNL     1      -8.062   3.266 -34.431  1.00  0.00     0.213 HD
ENDBRANCH   2  25
BRANCH   1  27
HETATM   27  C   UNL     1      -9.758   1.746 -33.242  1.00  0.00     0.043 A 
HETATM   28  C   UNL     1     -10.318   2.751 -34.041  1.00  0.00     0.032 A 
HETATM   29  C   UNL     1     -11.566   2.570 -34.654  1.00  0.00     0.039 A 
HETATM   30  C   UNL     1     -12.279   1.390 -34.456  1.00  0.00     0.068 A 
HETATM   31  C   UNL     1     -11.731   0.393 -33.648  1.00  0.00     0.039 A 
HETATM   32  C   UNL     1     -10.488   0.573 -33.035  1.00  0.00     0.032 A 
BRANCH  30  33
HETATM   33  O   UNL     1     -13.505   1.090 -34.980  1.00  0.00    -0.352 OA
BRANCH  33  34
HETATM   34  C   UNL     1     -14.474   0.544 -34.088  1.00  0.00     0.171 C 
HETATM   35  C   UNL     1     -14.933   1.657 -33.163  1.00  0.00     0.034 C 
ENDBRANCH  33  34
ENDBRANCH  30  33
ENDBRANCH   1  27
TORSDOF 7
ENDMDL
MODEL 3
REMARK VINA RESULT:      -8.6      1.375      1.939
REMARK  7 active torsions:
REMARK  status: ('A' for Active; 'I' for Inactive)
REMARK    1  A    between atoms: C_2  and  O_3 
REMARK    2  A    between atoms: O_3  and  C_4 
REMARK    3  A    between atoms: C_7  and  N_8 
REMARK    4  A    between atoms: C_9  and  C_11 
REMARK    5  A    between atoms: C_9  and  O_10 
REMARK       I    between atoms: C_11  and  N_12 
REMARK    6  A    between atoms: N_12  and  C_13 
REMARK    7  A    between atoms: C_13  and  C_14 
ROOT
HETATM    1  N   UNL     1      -7.633   3.733 -32.014  1.00  0.00    -0.254 N 
HETATM    2  C   UNL     1      -7.933   2.397 -31.461  1.00  0.00     0.256 C 
HETATM    3  C   UNL     1      -9.059   1.687 -32.191  1.00  0.00     0.034 A 
HETATM    4  C   UNL     1      -9.973   2.463 -32.897  1.00  0.00     0.048 A 
HETATM    5  N   UNL     1      -9.780   3.836 -32.963  1.00  0.00    -0.308 N 
HETATM    6  C   UNL     1      -8.660   4.496 -32.551  1.00  0.00     0.330 C 
HETATM    7  O   UNL     1      -8.612   5.711 -32.748  1.00  0.00    -0.246 OA
HETATM    8  C   UNL     1      -9.285   0.301 -32.114  1.00  0.00     0.015 A 
HETATM    9  C   UNL     1     -10.376  -0.282 -32.763  1.00  0.00     0.001 A 
HETATM   10  C   UNL     1     -11.272   0.513 -33.473  1.00  0.00     0.002 A 
HETATM   11  C   UNL     1     -11.077   1.891 -33.532  1.00  0.00     0.030 A 
HETATM   12  H   UNL     1     -10.458   4.419 -33.434  1.00  0.00     0.170 HD
ENDROOT
BRANCH   2  13
HETATM   13  C   UNL     1      -6.672   1.437 -31.359  1.00  0.00     0.279 C 
HETATM   14  N   UNL     1      -6.203   1.005 -32.591  1.00  0.00    -0.352 N 
HETATM   15  H   UNL     1      -6.510   1.537 -33.400  1.00  0.00     0.162 HD
HETATM   16  O   UNL     1      -6.154   1.078 -30.303  1.00  0.00    -0.268 OA
BRANCH  14  17
HETATM   17  C   UNL     1      -5.027   0.181 -32.697  1.00  0.00     0.161 C 
BRANCH  17  18
HETATM   18  C   UNL     1      -5.320  -1.061 -33.493  1.00  0.00    -0.040 A 
HETATM   19  C   UNL     1      -6.638  -1.389 -33.849  1.00  0.00     0.012 A 
HETATM   20  C   UNL     1      -6.906  -2.556 -34.567  1.00  0.00     0.043 A 
HETATM   21  C   UNL     1      -5.859  -3.397 -34.924  1.00  0.00     0.116 A 
HETATM   22  F   UNL     1      -6.118  -4.516 -35.613  1.00  0.00    -0.206 F 
HETATM   23  C   UNL     1      -4.548  -3.097 -34.572  1.00  0.00     0.043 A 
HETATM   24  C   UNL     1      -4.277  -1.932 -33.854  1.00  0.00     0.012 A 
ENDBRANCH  17  18
ENDBRANCH  14  17
ENDBRANCH   2  13
BRANCH   2  25
HETATM   25  O   UNL     1      -8.431   2.617 -30.125  1.00  0.00    -0.359 OA
HETATM   26  H   UNL     1      -8.516   1.723 -29.758  1.00  0.00     0.213 HD
ENDBRANCH   2  25
BRANCH   1  27
HETATM   27  C   UNL     1      -6.432   4.397 -31.608  1.00  0.00     0.043 A 
HETATM   28  C   UNL     1      -5.331   4.493 -32.469  1.00  0.00     0.032 A 
HETATM   29  C   UNL     1      -4.152   5.131 -32.060  1.00  0.00     0.039 A 
HETATM   30  C   UNL     1      -4.051   5.660 -30.775  1.00  0.00     0.068 A 
HETATM   31  C   UNL     1      -5.140   5.552 -29.910  1.00  0.00     0.039 A 
HETATM   32  C   UNL     1      -6.315   4.915 -30.315  1.00  0.00     0.032 A 
BRANCH  30  33
HETATM   33  O   UNL     1      -2.961   6.292 -30.245  1.00  0.00    -0.352 OA
BRANCH  33  34
HETATM   34  C   UNL     1      -1.793   6.361 -31.060  1.00  0.00     0.171 C 
HETATM   35  C   UNL     1      -0.812   7.304 -30.387  1.00  0.00     0.034 C 
ENDBRANCH  33  34
ENDBRANCH  30  33
ENDBRANCH   1  27
TORSDOF 7
ENDMDL
MODEL 4
REMARK VINA RESULT:      -8.5      3.139      6.349
REMARK  7 active torsions:
REMARK  status: ('A' for Active; 'I' for Inactive)
REMARK    1  A    between atoms: C_2  and  O_3 
REMARK    2  A    between atoms: O_3  and  C_4 
REMARK    3  A    between atoms: C_7  and  N_8 
REMARK    4  A    between atoms: C_9  and  C_11 
REMARK    5  A    between atoms: C_9  and  O_10 
REMARK       I    between atoms: C_11  and  N_12 
REMARK    6  A    between atoms: N_12  and  C_13 
REMARK    7  A    between atoms: C_13  and  C_14 
ROOT
HETATM    1  N   UNL     1      -9.890   1.646 -33.347  1.00  0.00    -0.254 N 
HETATM    2  C   UNL     1      -9.721   3.084 -33.638  1.00  0.00     0.256 C 
HETATM    3  C   UNL     1     -10.825   3.946 -33.053  1.00  0.00     0.034 A 
HETATM    4  C   UNL     1     -12.048   3.345 -32.777  1.00  0.00     0.048 A 
HETATM    5  N   UNL     1     -12.187   1.979 -32.981  1.00  0.00    -0.308 N 
HETATM    6  C   UNL     1     -11.169   1.114 -33.256  1.00  0.00     0.330 C 
HETATM    7  O   UNL     1     -11.445  -0.083 -33.333  1.00  0.00    -0.246 OA
HETATM    8  C   UNL     1     -10.711   5.335 -32.864  1.00  0.00     0.015 A 
HETATM    9  C   UNL     1     -11.788   6.080 -32.375  1.00  0.00     0.001 A 
HETATM   10  C   UNL     1     -13.000   5.455 -32.097  1.00  0.00     0.002 A 
HETATM   11  C   UNL     1     -13.136   4.085 -32.307  1.00  0.00     0.030 A 
HETATM   12  H   UNL     1     -13.082   1.533 -32.828  1.00  0.00     0.170 HD
ENDROOT
BRANCH   2  13
HETATM   13  C   UNL     1      -8.305   3.670 -33.218  1.00  0.00     0.279 C 
HETATM   14  N   UNL     1      -8.006   3.488 -31.876  1.00  0.00    -0.352 N 
HETATM   15  H   UNL     1      -8.555   2.790 -31.384  1.00  0.00     0.162 HD
HETATM   16  O   UNL     1      -7.538   4.252 -33.984  1.00  0.00    -0.268 OA
BRANCH  14  17
HETATM   17  C   UNL     1      -6.737   3.897 -31.330  1.00  0.00     0.161 C 
BRANCH  17  18
HETATM   18  C   UNL     1      -5.809   2.718 -31.209  1.00  0.00    -0.040 A 
HETATM   19  C   UNL     1      -4.838   2.467 -32.191  1.00  0.00     0.012 A 
HETATM   20  C   UNL     1      -3.996   1.358 -32.084  1.00  0.00     0.043 A 
HETATM   21  C   UNL     1      -4.129   0.499 -31.000  1.00  0.00     0.116 A 
HETATM   22  F   UNL     1      -3.320  -0.564 -30.899  1.00  0.00    -0.206 F 
HETATM   23  C   UNL     1      -5.090   0.724 -30.022  1.00  0.00     0.043 A 
HETATM   24  C   UNL     1      -5.934   1.830 -30.126  1.00  0.00     0.012 A 
ENDBRANCH  17  18
ENDBRANCH  14  17
ENDBRANCH   2  13
BRANCH   2  25
HETATM   25  O   UNL     1      -9.852   3.224 -35.067  1.00  0.00    -0.359 OA
HETATM   26  H   UNL     1     -10.804   3.362 -35.201  1.00  0.00     0.213 HD
ENDBRANCH   2  25
BRANCH   1  27
HETATM   27  C   UNL     1      -8.798   0.756 -33.598  1.00  0.00     0.043 A 
HETATM   28  C   UNL     1      -8.389   0.463 -34.906  1.00  0.00     0.032 A 
HETATM   29  C   UNL     1      -7.330  -0.423 -35.147  1.00  0.00     0.039 A 
HETATM   30  C   UNL     1      -6.681  -1.045 -34.083  1.00  0.00     0.068 A 
HETATM   31  C   UNL     1      -7.096  -0.767 -32.780  1.00  0.00     0.039 A 
HETATM   32  C   UNL     1      -8.153   0.113 -32.539  1.00  0.00     0.032 A 
BRANCH  30  33
HETATM   33  O   UNL     1      -5.648  -1.934 -34.175  1.00  0.00    -0.352 OA
BRANCH  33  34
HETATM   34  C   UNL     1      -5.720  -2.904 -35.218  1.00  0.00     0.171 C 
HETATM   35  C   UNL     1      -6.688  -3.987 -34.780  1.00  0.00     0.034 C 
ENDBRANCH  33  34
ENDBRANCH  30  33
ENDBRANCH   1  27
TORSDOF 7
ENDMDL
MODEL 5
REMARK VINA RESULT:      -8.5      3.390      6.293
REMARK  7 active torsions:
REMARK  status: ('A' for Active; 'I' for Inactive)
REMARK    1  A    between atoms: C_2  and  O_3 
REMARK    2  A    between atoms: O_3  and  C_4 
REMARK    3  A    between atoms: C_7  and  N_8 
REMARK    4  A    between atoms: C_9  and  C_11 
REMARK    5  A    between atoms: C_9  and  O_10 
REMARK       I    between atoms: C_11  and  N_12 
REMARK    6  A    between atoms: N_12  and  C_13 
REMARK    7  A    between atoms: C_13  and  C_14 
ROOT
HETATM    1  N   UNL     1      -5.477   0.799 -32.624  1.00  0.00    -0.254 N 
HETATM    2  C   UNL     1      -6.500   0.169 -33.482  1.00  0.00     0.256 C 
HETATM    3  C   UNL     1      -6.158  -1.258 -33.869  1.00  0.00     0.034 A 
HETATM    4  C   UNL     1      -4.822  -1.643 -33.838  1.00  0.00     0.048 A 
HETATM    5  N   UNL     1      -3.871  -0.736 -33.390  1.00  0.00    -0.308 N 
HETATM    6  C   UNL     1      -4.142   0.459 -32.791  1.00  0.00     0.330 C 
HETATM    7  O   UNL     1      -3.186   1.118 -32.380  1.00  0.00    -0.246 OA
HETATM    8  C   UNL     1      -7.103  -2.183 -34.349  1.00  0.00     0.015 A 
HETATM    9  C   UNL     1      -6.712  -3.464 -34.746  1.00  0.00     0.001 A 
HETATM   10  C   UNL     1      -5.369  -3.830 -34.696  1.00  0.00     0.002 A 
HETATM   11  C   UNL     1      -4.419  -2.915 -34.250  1.00  0.00     0.030 A 
HETATM   12  H   UNL     1      -2.891  -0.983 -33.402  1.00  0.00     0.170 HD
ENDROOT
BRANCH   2  13
HETATM   13  C   UNL     1      -7.971   0.224 -32.886  1.00  0.00     0.279 C 
HETATM   14  N   UNL     1      -8.925   0.641 -33.803  1.00  0.00    -0.352 N 
HETATM   15  H   UNL     1      -8.657   0.598 -34.782  1.00  0.00     0.162 HD
HETATM   16  O   UNL     1      -8.262  -0.050 -31.723  1.00  0.00    -0.268 OA
BRANCH  14  17
HETATM   17  C   UNL     1     -10.323   0.689 -33.459  1.00  0.00     0.161 C 
BRANCH  17  18
HETATM   18  C   UNL     1     -11.005   1.825 -34.172  1.00  0.00    -0.040 A 
HETATM   19  C   UNL     1     -12.342   1.711 -34.586  1.00  0.00     0.012 A 
HETATM   20  C   UNL     1     -12.961   2.759 -35.270  1.00  0.00     0.043 A 
HETATM   21  C   UNL     1     -12.243   3.917 -35.543  1.00  0.00     0.116 A 
HETATM   22  F   UNL     1     -12.839   4.922 -36.199  1.00  0.00    -0.206 F 
HETATM   23  C   UNL     1     -10.916   4.046 -35.152  1.00  0.00     0.043 A 
HETATM   24  C   UNL     1     -10.294   3.000 -34.471  1.00  0.00     0.012 A 
ENDBRANCH  17  18
ENDBRANCH  14  17
ENDBRANCH   2  13
BRANCH   2  25
HETATM   25  O   UNL     1      -6.496   0.906 -34.721  1.00  0.00    -0.359 OA
HETATM   26  H   UNL     1      -6.658   1.824 -34.447  1.00  0.00     0.213 HD
ENDBRANCH   2  25
BRANCH   1  27
HETATM   27  C   UNL     1      -5.788   2.031 -31.966  1.00  0.00     0.043 A 
HETATM   28  C   UNL     1      -6.001   3.208 -32.695  1.00  0.00     0.032 A 
HETATM   29  C   UNL     1      -6.290   4.416 -32.045  1.00  0.00     0.039 A 
HETATM   30  C   UNL     1      -6.347   4.466 -30.653  1.00  0.00     0.068 A 
HETATM   31  C   UNL     1      -6.120   3.299 -29.923  1.00  0.00     0.039 A 
HETATM   32  C   UNL     1      -5.830   2.095 -30.571  1.00  0.00     0.032 A 
BRANCH  30  33
HETATM   33  O   UNL     1      -6.604   5.573 -29.895  1.00  0.00    -0.352 OA
BRANCH  33  34
HETATM   34  C   UNL     1      -7.669   5.479 -28.952  1.00  0.00     0.171 C 
HETATM   35  C   UNL     1      -8.974   5.657 -29.706  1.00  0.00     0.034 C 
ENDBRANCH  33  34
ENDBRANCH  30  33
ENDBRANCH   1  27
TORSDOF 7
ENDMDL
MODEL 6
REMARK VINA RESULT:      -8.5      3.536      7.061
REMARK  7 active torsions:
REMARK  status: ('A' for Active; 'I' for Inactive)
REMARK    1  A    between atoms: C_2  and  O_3 
REMARK    2  A    between atoms: O_3  and  C_4 
REMARK    3  A    between atoms: C_7  and  N_8 
REMARK    4  A    between atoms: C_9  and  C_11 
REMARK    5  A    between atoms: C_9  and  O_10 
REMARK       I    between atoms: C_11  and  N_12 
REMARK    6  A    between atoms: N_12  and  C_13 
REMARK    7  A    between atoms: C_13  and  C_14 
ROOT
HETATM    1  N   UNL     1      -6.909   1.784 -32.499  1.00  0.00    -0.254 N 
HETATM    2  C   UNL     1      -8.200   1.727 -31.785  1.00  0.00     0.256 C 
HETATM    3  C   UNL     1      -8.670   3.083 -31.290  1.00  0.00     0.034 A 
HETATM    4  C   UNL     1      -7.715   4.076 -31.098  1.00  0.00     0.048 A 
HETATM    5  N   UNL     1      -6.393   3.812 -31.430  1.00  0.00    -0.308 N 
HETATM    6  C   UNL     1      -5.955   2.715 -32.113  1.00  0.00     0.330 C 
HETATM    7  O   UNL     1      -4.758   2.664 -32.398  1.00  0.00    -0.246 OA
HETATM    8  C   UNL     1      -9.999   3.361 -30.924  1.00  0.00     0.015 A 
HETATM    9  C   UNL     1     -10.354   4.615 -30.419  1.00  0.00     0.001 A 
HETATM   10  C   UNL     1      -9.382   5.597 -30.244  1.00  0.00     0.002 A 
HETATM   11  C   UNL     1      -8.057   5.325 -30.575  1.00  0.00     0.030 A 
HETATM   12  H   UNL     1      -5.679   4.506 -31.256  1.00  0.00     0.170 HD
ENDROOT
BRANCH   2  13
HETATM   13  C   UNL     1      -9.365   1.023 -32.604  1.00  0.00     0.279 C 
HETATM   14  N   UNL     1      -9.911   1.826 -33.594  1.00  0.00    -0.352 N 
HETATM   15  H   UNL     1      -9.358   2.631 -33.875  1.00  0.00     0.162 HD
HETATM   16  O   UNL     1      -9.778  -0.115 -32.387  1.00  0.00    -0.268 OA
BRANCH  14  17
HETATM   17  C   UNL     1     -10.934   1.332 -34.480  1.00  0.00     0.161 C 
BRANCH  17  18
HETATM   18  C   UNL     1     -12.294   1.489 -33.857  1.00  0.00    -0.040 A 
HETATM   19  C   UNL     1     -13.257   0.474 -33.976  1.00  0.00     0.012 A 
HETATM   20  C   UNL     1     -14.526   0.636 -33.416  1.00  0.00     0.043 A 
HETATM   21  C   UNL     1     -14.834   1.814 -32.745  1.00  0.00     0.116 A 
HETATM   22  F   UNL     1     -16.051   1.967 -32.208  1.00  0.00    -0.206 F 
HETATM   23  C   UNL     1     -13.899   2.835 -32.626  1.00  0.00     0.043 A 
HETATM   24  C   UNL     1     -12.631   2.677 -33.185  1.00  0.00     0.012 A 
ENDBRANCH  17  18
ENDBRANCH  14  17
ENDBRANCH   2  13
BRANCH   2  25
HETATM   25  O   UNL     1      -7.966   0.951 -30.592  1.00  0.00    -0.359 OA
HETATM   26  H   UNL     1      -7.423   1.535 -30.037  1.00  0.00     0.213 HD
ENDBRANCH   2  25
BRANCH   1  27
HETATM   27  C   UNL     1      -6.481   0.643 -33.249  1.00  0.00     0.043 A 
HETATM   28  C   UNL     1      -6.884   0.456 -34.578  1.00  0.00     0.032 A 
HETATM   29  C   UNL     1      -6.475  -0.672 -35.302  1.00  0.00     0.039 A 
HETATM   30  C   UNL     1      -5.676  -1.640 -34.698  1.00  0.00     0.068 A 
HETATM   31  C   UNL     1      -5.286  -1.466 -33.370  1.00  0.00     0.039 A 
HETATM   32  C   UNL     1      -5.695  -0.343 -32.647  1.00  0.00     0.032 A 
BRANCH  30  33
HETATM   33  O   UNL     1      -5.219  -2.788 -35.281  1.00  0.00    -0.352 OA
BRANCH  33  34
HETATM   34  C   UNL     1      -5.504  -4.013 -34.610  1.00  0.00     0.171 C 
HETATM   35  C   UNL     1      -6.853  -4.509 -35.098  1.00  0.00     0.034 C 
ENDBRANCH  33  34
ENDBRANCH  30  33
ENDBRANCH   1  27
TORSDOF 7
ENDMDL
MODEL 7
REMARK VINA RESULT:      -8.5      2.466      3.604
REMARK  7 active torsions:
REMARK  status: ('A' for Active; 'I' for Inactive)
REMARK    1  A    between atoms: C_2  and  O_3 
REMARK    2  A    between atoms: O_3  and  C_4 
REMARK    3  A    between atoms: C_7  and  N_8 
REMARK    4  A    between atoms: C_9  and  C_11 
REMARK    5  A    between atoms: C_9  and  O_10 
REMARK       I    between atoms: C_11  and  N_12 
REMARK    6  A    between atoms: N_12  and  C_13 
REMARK    7  A    between atoms: C_13  and  C_14 
ROOT
HETATM    1  N   UNL     1      -9.154   3.204 -32.549  1.00  0.00    -0.254 N 
HETATM    2  C   UNL     1      -9.709   1.851 -32.756  1.00  0.00     0.256 C 
HETATM    3  C   UNL     1     -11.139   1.863 -33.264  1.00  0.00     0.034 A 
HETATM    4  C   UNL     1     -11.912   2.993 -33.018  1.00  0.00     0.048 A 
HETATM    5  N   UNL     1     -11.328   4.083 -32.386  1.00  0.00    -0.308 N 
HETATM    6  C   UNL     1      -9.994   4.231 -32.141  1.00  0.00     0.330 C 
HETATM    7  O   UNL     1      -9.624   5.293 -31.640  1.00  0.00    -0.246 OA
HETATM    8  C   UNL     1     -11.755   0.760 -33.882  1.00  0.00     0.015 A 
HETATM    9  C   UNL     1     -13.096   0.816 -34.272  1.00  0.00     0.001 A 
HETATM   10  C   UNL     1     -13.847   1.962 -34.025  1.00  0.00     0.002 A 
HETATM   11  C   UNL     1     -13.257   3.051 -33.387  1.00  0.00     0.030 A 
HETATM   12  H   UNL     1     -11.886   4.895 -32.161  1.00  0.00     0.170 HD
ENDROOT
BRANCH   2  13
HETATM   13  C   UNL     1      -8.819   0.920 -33.685  1.00  0.00     0.279 C 
HETATM   14  N   UNL     1      -8.254  -0.155 -33.015  1.00  0.00    -0.352 N 
HETATM   15  H   UNL     1      -8.668  -0.393 -32.118  1.00  0.00     0.162 HD
HETATM   16  O   UNL     1      -8.615   1.121 -34.882  1.00  0.00    -0.268 OA
BRANCH  14  17
HETATM   17  C   UNL     1      -7.470  -1.143 -33.710  1.00  0.00     0.161 C 
BRANCH  17  18
HETATM   18  C   UNL     1      -6.056  -1.156 -33.194  1.00  0.00    -0.040 A 
HETATM   19  C   UNL     1      -5.090  -1.992 -33.775  1.00  0.00     0.012 A 
HETATM   20  C   UNL     1      -3.786  -2.016 -33.275  1.00  0.00     0.043 A 
HETATM   21  C   UNL     1      -3.451  -1.210 -32.193  1.00  0.00     0.116 A 
HETATM   22  F   UNL     1      -2.200  -1.235 -31.715  1.00  0.00    -0.206 F 
HETATM   23  C   UNL     1      -4.396  -0.384 -31.597  1.00  0.00     0.043 A 
HETATM   24  C   UNL     1      -5.700  -0.358 -32.092  1.00  0.00     0.012 A 
ENDBRANCH  17  18
ENDBRANCH  14  17
ENDBRANCH   2  13
BRANCH   2  25
HETATM   25  O   UNL     1      -9.777   1.240 -31.452  1.00  0.00    -0.359 OA
HETATM   26  H   UNL     1      -9.002   1.596 -30.987  1.00  0.00     0.213 HD
ENDBRANCH   2  25
BRANCH   1  27
HETATM   27  C   UNL     1      -7.747   3.351 -32.337  1.00  0.00     0.043 A 
HETATM   28  C   UNL     1      -6.899   3.776 -33.368  1.00  0.00     0.032 A 
HETATM   29  C   UNL     1      -5.519   3.902 -33.159  1.00  0.00     0.039 A 
HETATM   30  C   UNL     1      -4.966   3.583 -31.921  1.00  0.00     0.068 A 
HETATM   31  C   UNL     1      -5.805   3.145 -30.896  1.00  0.00     0.039 A 
HETATM   32  C   UNL     1      -7.180   3.017 -31.104  1.00  0.00     0.032 A 
BRANCH  30  33
HETATM   33  O   UNL     1      -3.643   3.648 -31.586  1.00  0.00    -0.352 OA
BRANCH  33  34
HETATM   34  C   UNL     1      -2.702   3.624 -32.658  1.00  0.00     0.171 C 
HETATM   35  C   UNL     1      -1.845   4.873 -32.551  1.00  0.00     0.034 C 
ENDBRANCH  33  34
ENDBRANCH  30  33
ENDBRANCH   1  27
TORSDOF 7
ENDMDL
MODEL 8
REMARK VINA RESULT:      -8.5      1.634      6.101
REMARK  7 active torsions:
REMARK  status: ('A' for Active; 'I' for Inactive)
REMARK    1  A    between atoms: C_2  and  O_3 
REMARK    2  A    between atoms: O_3  and  C_4 
REMARK    3  A    between atoms: C_7  and  N_8 
REMARK    4  A    between atoms: C_9  and  C_11 
REMARK    5  A    between atoms: C_9  and  O_10 
REMARK       I    between atoms: C_11  and  N_12 
REMARK    6  A    between atoms: N_12  and  C_13 
REMARK    7  A    between atoms: C_13  and  C_14 
ROOT
HETATM    1  N   UNL     1      -6.564   3.874 -32.415  1.00  0.00    -0.254 N 
HETATM    2  C   UNL     1      -5.165   3.415 -32.524  1.00  0.00     0.256 C 
HETATM    3  C   UNL     1      -4.163   4.414 -31.976  1.00  0.00     0.034 A 
HETATM    4  C   UNL     1      -4.542   5.751 -31.908  1.00  0.00     0.048 A 
HETATM    5  N   UNL     1      -5.834   6.103 -32.276  1.00  0.00    -0.308 N 
HETATM    6  C   UNL     1      -6.849   5.228 -32.527  1.00  0.00     0.330 C 
HETATM    7  O   UNL     1      -7.960   5.701 -32.767  1.00  0.00    -0.246 OA
HETATM    8  C   UNL     1      -2.843   4.081 -31.624  1.00  0.00     0.015 A 
HETATM    9  C   UNL     1      -1.952   5.062 -31.181  1.00  0.00     0.001 A 
HETATM   10  C   UNL     1      -2.357   6.392 -31.112  1.00  0.00     0.002 A 
HETATM   11  C   UNL     1      -3.652   6.742 -31.486  1.00  0.00     0.030 A 
HETATM   12  H   UNL     1      -6.112   7.075 -32.275  1.00  0.00     0.170 HD
ENDROOT
BRANCH   2  13
HETATM   13  C   UNL     1      -4.899   1.985 -31.885  1.00  0.00     0.279 C 
HETATM   14  N   UNL     1      -4.608   1.005 -32.822  1.00  0.00    -0.352 N 
HETATM   15  H   UNL     1      -4.327   1.331 -33.742  1.00  0.00     0.162 HD
HETATM   16  O   UNL     1      -4.959   1.739 -30.682  1.00  0.00    -0.268 OA
BRANCH  14  17
HETATM   17  C   UNL     1      -4.275  -0.338 -32.421  1.00  0.00     0.161 C 
BRANCH  17  18
HETATM   18  C   UNL     1      -5.019  -1.341 -33.261  1.00  0.00    -0.040 A 
HETATM   19  C   UNL     1      -6.394  -1.194 -33.501  1.00  0.00     0.012 A 
HETATM   20  C   UNL     1      -7.083  -2.142 -34.261  1.00  0.00     0.043 A 
HETATM   21  C   UNL     1      -6.399  -3.238 -34.774  1.00  0.00     0.116 A 
HETATM   22  F   UNL     1      -7.062  -4.145 -35.503  1.00  0.00    -0.206 F 
HETATM   23  C   UNL     1      -5.041  -3.408 -34.538  1.00  0.00     0.043 A 
HETATM   24  C   UNL     1      -4.349  -2.464 -33.779  1.00  0.00     0.012 A 
ENDBRANCH  17  18
ENDBRANCH  14  17
ENDBRANCH   2  13
BRANCH   2  25
HETATM   25  O   UNL     1      -4.879   3.330 -33.935  1.00  0.00    -0.359 OA
HETATM   26  H   UNL     1      -5.747   3.436 -34.356  1.00  0.00     0.213 HD
ENDBRANCH   2  25
BRANCH   1  27
HETATM   27  C   UNL     1      -7.621   2.936 -32.638  1.00  0.00     0.043 A 
HETATM   28  C   UNL     1      -7.976   2.539 -33.934  1.00  0.00     0.032 A 
HETATM   29  C   UNL     1      -9.022   1.631 -34.147  1.00  0.00     0.039 A 
HETATM   30  C   UNL     1      -9.743   1.127 -33.067  1.00  0.00     0.068 A 
HETATM   31  C   UNL     1      -9.403   1.532 -31.776  1.00  0.00     0.039 A 
HETATM   32  C   UNL     1      -8.361   2.438 -31.562  1.00  0.00     0.032 A 
BRANCH  30  33
HETATM   33  O   UNL     1     -10.790   0.251 -33.133  1.00  0.00    -0.352 OA
BRANCH  33  34
HETATM   34  C   UNL     1     -12.007   0.737 -33.694  1.00  0.00     0.171 C 
HETATM   35  C   UNL     1     -13.050  -0.358 -33.562  1.00  0.00     0.034 C 
ENDBRANCH  33  34
ENDBRANCH  30  33
ENDBRANCH   1  27
TORSDOF 7
ENDMDL
MODEL 9
REMARK VINA RESULT:      -8.3      3.135      7.765
REMARK  7 active torsions:
REMARK  status: ('A' for Active; 'I' for Inactive)
REMARK    1  A    between atoms: C_2  and  O_3 
REMARK    2  A    between atoms: O_3  and  C_4 
REMARK    3  A    between atoms: C_7  and  N_8 
REMARK    4  A    between atoms: C_9  and  C_11 
REMARK    5  A    between atoms: C_9  and  O_10 
REMARK       I    between atoms: C_11  and  N_12 
REMARK    6  A    between atoms: N_12  and  C_13 
REMARK    7  A    between atoms: C_13  and  C_14 
ROOT
HETATM    1  N   UNL     1      -7.223  -0.160 -33.056  1.00  0.00    -0.254 N 
HETATM    2  C   UNL     1      -6.459   0.341 -31.895  1.00  0.00     0.256 C 
HETATM    3  C   UNL     1      -5.023  -0.148 -31.869  1.00  0.00     0.034 A 
HETATM    4  C   UNL     1      -4.716  -1.316 -32.559  1.00  0.00     0.048 A 
HETATM    5  N   UNL     1      -5.712  -1.944 -33.295  1.00  0.00    -0.308 N 
HETATM    6  C   UNL     1      -6.942  -1.420 -33.566  1.00  0.00     0.330 C 
HETATM    7  O   UNL     1      -7.687  -2.070 -34.300  1.00  0.00    -0.246 OA
HETATM    8  C   UNL     1      -4.007   0.459 -31.109  1.00  0.00     0.015 A 
HETATM    9  C   UNL     1      -2.717  -0.078 -31.081  1.00  0.00     0.001 A 
HETATM   10  C   UNL     1      -2.431  -1.242 -31.788  1.00  0.00     0.002 A 
HETATM   11  C   UNL     1      -3.435  -1.871 -32.522  1.00  0.00     0.030 A 
HETATM   12  H   UNL     1      -5.518  -2.817 -33.767  1.00  0.00     0.170 HD
ENDROOT
BRANCH   2  13
HETATM   13  C   UNL     1      -6.490   1.920 -31.730  1.00  0.00     0.279 C 
HETATM   14  N   UNL     1      -5.638   2.586 -32.598  1.00  0.00    -0.352 N 
HETATM   15  H   UNL     1      -5.310   2.056 -33.400  1.00  0.00     0.162 HD
HETATM   16  O   UNL     1      -7.178   2.520 -30.905  1.00  0.00    -0.268 OA
BRANCH  14  17
HETATM   17  C   UNL     1      -5.581   4.024 -32.636  1.00  0.00     0.161 C 
BRANCH  17  18
HETATM   18  C   UNL     1      -4.298   4.488 -33.269  1.00  0.00    -0.040 A 
HETATM   19  C   UNL     1      -3.079   4.373 -32.582  1.00  0.00     0.012 A 
HETATM   20  C   UNL     1      -1.894   4.828 -33.166  1.00  0.00     0.043 A 
HETATM   21  C   UNL     1      -1.930   5.400 -34.432  1.00  0.00     0.116 A 
HETATM   22  F   UNL     1      -0.793   5.835 -34.990  1.00  0.00    -0.206 F 
HETATM   23  C   UNL     1      -3.127   5.533 -35.124  1.00  0.00     0.043 A 
HETATM   24  C   UNL     1      -4.313   5.082 -34.543  1.00  0.00     0.012 A 
ENDBRANCH  17  18
ENDBRANCH  14  17
ENDBRANCH   2  13
BRANCH   2  25
HETATM   25  O   UNL     1      -7.076  -0.239 -30.728  1.00  0.00    -0.359 OA
HETATM   26  H   UNL     1      -6.364  -0.759 -30.321  1.00  0.00     0.213 HD
ENDBRANCH   2  25
BRANCH   1  27
HETATM   27  C   UNL     1      -8.493   0.428 -33.356  1.00  0.00     0.043 A 
HETATM   28  C   UNL     1      -9.672  -0.063 -32.780  1.00  0.00     0.032 A 
HETATM   29  C   UNL     1     -10.915   0.507 -33.090  1.00  0.00     0.039 A 
HETATM   30  C   UNL     1     -10.996   1.560 -33.998  1.00  0.00     0.068 A 
HETATM   31  C   UNL     1      -9.825   2.041 -34.585  1.00  0.00     0.039 A 
HETATM   32  C   UNL     1      -8.586   1.473 -34.279  1.00  0.00     0.032 A 
BRANCH  30  33
HETATM   33  O   UNL     1     -12.137   2.195 -34.398  1.00  0.00    -0.352 OA
BRANCH  33  34
HETATM   34  C   UNL     1     -12.903   2.849 -33.388  1.00  0.00     0.171 C 
HETATM   35  C   UNL     1     -14.205   2.087 -33.225  1.00  0.00     0.034 C 
ENDBRANCH  33  34
ENDBRANCH  30  33
ENDBRANCH   1  27
TORSDOF 7
ENDMDL
MODEL 10
REMARK VINA RESULT:      -8.3      3.163      6.734
REMARK  7 active torsions:
REMARK  status: ('A' for Active; 'I' for Inactive)
REMARK    1  A    between atoms: C_2  and  O_3 
REMARK    2  A    between atoms: O_3  and  C_4 
REMARK    3  A    between atoms: C_7  and  N_8 
REMARK    4  A    between atoms: C_9  and  C_11 
REMARK    5  A    between atoms: C_9  and  O_10 
REMARK       I    between atoms: C_11  and  N_12 
REMARK    6  A    between atoms: N_12  and  C_13 
REMARK    7  A    between atoms: C_13  and  C_14 
ROOT
HETATM    1  N   UNL     1      -6.292   0.909 -33.574  1.00  0.00    -0.254 N 
HETATM    2  C   UNL     1      -5.756   0.283 -32.349  1.00  0.00     0.256 C 
HETATM    3  C   UNL     1      -4.904  -0.942 -32.627  1.00  0.00     0.034 A 
HETATM    4  C   UNL     1      -5.101  -1.618 -33.826  1.00  0.00     0.048 A 
HETATM    5  N   UNL     1      -6.012  -1.111 -34.742  1.00  0.00    -0.308 N 
HETATM    6  C   UNL     1      -6.612   0.111 -34.664  1.00  0.00     0.330 C 
HETATM    7  O   UNL     1      -7.340   0.448 -35.599  1.00  0.00    -0.246 OA
HETATM    8  C   UNL     1      -3.995  -1.485 -31.701  1.00  0.00     0.015 A 
HETATM    9  C   UNL     1      -3.284  -2.651 -31.997  1.00  0.00     0.001 A 
HETATM   10  C   UNL     1      -3.491  -3.305 -33.208  1.00  0.00     0.002 A 
HETATM   11  C   UNL     1      -4.409  -2.795 -34.122  1.00  0.00     0.030 A 
HETATM   12  H   UNL     1      -6.200  -1.613 -35.599  1.00  0.00     0.170 HD
ENDROOT
BRANCH   2  13
HETATM   13  C   UNL     1      -4.965   1.282 -31.401  1.00  0.00     0.279 C 
HETATM   14  N   UNL     1      -3.837   1.831 -31.993  1.00  0.00    -0.352 N 
HETATM   15  H   UNL     1      -3.786   1.771 -33.006  1.00  0.00     0.162 HD
HETATM   16  O   UNL     1      -5.287   1.545 -30.244  1.00  0.00    -0.268 OA
BRANCH  14  17
HETATM   17  C   UNL     1      -3.032   2.809 -31.306  1.00  0.00     0.161 C 
BRANCH  17  18
HETATM   18  C   UNL     1      -2.838   4.031 -32.163  1.00  0.00    -0.040 A 
HETATM   19  C   UNL     1      -2.412   3.910 -33.495  1.00  0.00     0.012 A 
HETATM   20  C   UNL     1      -2.210   5.049 -34.278  1.00  0.00     0.043 A 
HETATM   21  C   UNL     1      -2.429   6.307 -33.727  1.00  0.00     0.116 A 
HETATM   22  F   UNL     1      -2.235   7.398 -34.479  1.00  0.00    -0.206 F 
HETATM   23  C   UNL     1      -2.840   6.448 -32.407  1.00  0.00     0.043 A 
HETATM   24  C   UNL     1      -3.041   5.313 -31.622  1.00  0.00     0.012 A 
ENDBRANCH  17  18
ENDBRANCH  14  17
ENDBRANCH   2  13
BRANCH   2  25
HETATM   25  O   UNL     1      -6.897  -0.211 -31.618  1.00  0.00    -0.359 OA
HETATM   26  H   UNL     1      -6.583  -0.257 -30.700  1.00  0.00     0.213 HD
ENDBRANCH   2  25
BRANCH   1  27
HETATM   27  C   UNL     1      -6.880   2.210 -33.487  1.00  0.00     0.043 A 
HETATM   28  C   UNL     1      -8.175   2.388 -32.982  1.00  0.00     0.032 A 
HETATM   29  C   UNL     1      -8.752   3.663 -32.914  1.00  0.00     0.039 A 
HETATM   30  C   UNL     1      -8.049   4.775 -33.372  1.00  0.00     0.068 A 
HETATM   31  C   UNL     1      -6.766   4.601 -33.889  1.00  0.00     0.039 A 
HETATM   32  C   UNL     1      -6.190   3.330 -33.960  1.00  0.00     0.032 A 
BRANCH  30  33
HETATM   33  O   UNL     1      -8.496   6.067 -33.376  1.00  0.00    -0.352 OA
BRANCH  33  34
HETATM   34  C   UNL     1      -9.878   6.273 -33.655  1.00  0.00     0.171 C 
HETATM   35  C   UNL     1     -10.054   6.274 -35.163  1.00  0.00     0.034 C 
ENDBRANCH  33  34
ENDBRANCH  30  33
ENDBRANCH   1  27
TORSDOF 7
ENDMDL
