MODEL 1
REMARK VINA RESULT:      -9.2      0.000      0.000
REMARK  7 active torsions:
REMARK  status: ('A' for Active; 'I' for Inactive)
REMARK    1  A    between atoms: C_4  and  N_5 
REMARK    2  A    between atoms: C_6  and  S_7 
REMARK    3  A    between atoms: S_7  and  C_8 
REMARK    4  A    between atoms: C_8  and  C_9 
REMARK       I    between atoms: C_9  and  N_10 
REMARK    5  A    between atoms: N_10  and  C_11 
REMARK    6  A    between atoms: C_24  and  C_25 
REMARK    7  A    between atoms: C_26  and  O_27 
ROOT
HETATM    1  N   UNL     1      -4.723   0.267 -32.264  1.00  0.00    -0.271 N 
HETATM    2  C   UNL     1      -3.993   1.268 -31.635  1.00  0.00     0.197 A 
HETATM    3  N   UNL     1      -2.845   0.793 -31.209  1.00  0.00    -0.122 NA
HETATM    4  N   UNL     1      -2.767  -0.514 -31.573  1.00  0.00    -0.128 NA
HETATM    5  C   UNL     1      -3.850  -0.825 -32.267  1.00  0.00     0.172 A 
ENDROOT
BRANCH   2   6
HETATM    6  S   UNL     1      -4.535   2.880 -31.268  1.00  0.00    -0.080 SA
BRANCH   6   7
HETATM    7  C   UNL     1      -4.544   3.587 -32.948  1.00  0.00     0.185 C 
BRANCH   7   8
HETATM    8  C   UNL     1      -5.899   4.150 -33.344  1.00  0.00     0.231 C 
HETATM    9  N   UNL     1      -6.948   3.700 -32.560  1.00  0.00    -0.326 N 
HETATM   10  H   UNL     1      -6.688   3.276 -31.677  1.00  0.00     0.169 HD
HETATM   11  O   UNL     1      -6.003   4.865 -34.338  1.00  0.00    -0.272 OA
BRANCH   9  12
HETATM   12  C   UNL     1      -8.327   3.839 -32.815  1.00  0.00     0.037 A 
HETATM   13  C   UNL     1      -8.871   3.968 -34.097  1.00  0.00     0.069 A 
HETATM   14  C   UNL     1     -10.255   4.042 -34.271  1.00  0.00     0.104 A 
HETATM   15  C   UNL     1     -11.106   4.030 -33.164  1.00  0.00     0.102 A 
HETATM   16  O   UNL     1     -10.710   4.120 -35.564  1.00  0.00    -0.346 OA
HETATM   17  O   UNL     1     -12.471   4.131 -33.261  1.00  0.00    -0.346 OA
HETATM   18  C   UNL     1     -10.577   3.894 -31.886  1.00  0.00     0.042 A 
HETATM   19  C   UNL     1     -12.871   4.572 -34.565  1.00  0.00     0.202 C 
HETATM   20  C   UNL     1     -12.107   3.823 -35.644  1.00  0.00     0.202 C 
HETATM   21  C   UNL     1      -9.192   3.792 -31.712  1.00  0.00     0.032 A 
ENDBRANCH   9  12
ENDBRANCH   7   8
ENDBRANCH   6   7
ENDBRANCH   2   6
BRANCH   1  22
HETATM   22  C   UNL     1      -6.063   0.300 -32.746  1.00  0.00     0.043 A 
HETATM   23  C   UNL     1      -6.336   0.492 -34.107  1.00  0.00     0.030 A 
HETATM   24  C   UNL     1      -7.657   0.498 -34.561  1.00  0.00     0.002 A 
HETATM   25  C   UNL     1      -8.710   0.315 -33.666  1.00  0.00     0.000 A 
HETATM   26  C   UNL     1      -8.446   0.127 -32.312  1.00  0.00     0.002 A 
HETATM   27  C   UNL     1      -7.128   0.119 -31.850  1.00  0.00     0.030 A 
ENDBRANCH   1  22
BRANCH   5  28
HETATM   28  C   UNL     1      -4.003  -2.118 -32.942  1.00  0.00     0.045 A 
HETATM   29  C   UNL     1      -3.354  -3.259 -32.441  1.00  0.00     0.079 A 
HETATM   30  C   UNL     1      -3.486  -4.498 -33.067  1.00  0.00     0.037 A 
HETATM   31  C   UNL     1      -4.244  -4.609 -34.230  1.00  0.00     0.003 A 
HETATM   32  C   UNL     1      -4.865  -3.483 -34.765  1.00  0.00     0.001 A 
HETATM   33  C   UNL     1      -4.741  -2.243 -34.129  1.00  0.00     0.018 A 
BRANCH  29  34
HETATM   34  O   UNL     1      -2.558  -3.225 -31.325  1.00  0.00    -0.360 OA
HETATM   35  H   UNL     1      -2.725  -2.381 -30.859  1.00  0.00     0.217 HD
ENDBRANCH  29  34
ENDBRANCH   5  28
TORSDOF 7
ENDMDL
MODEL 2
REMARK VINA RESULT:      -9.2      3.960      6.685
REMARK  7 active torsions:
REMARK  status: ('A' for Active; 'I' for Inactive)
REMARK    1  A    between atoms: C_4  and  N_5 
REMARK    2  A    between atoms: C_6  and  S_7 
REMARK    3  A    between atoms: S_7  and  C_8 
REMARK    4  A    between atoms: C_8  and  C_9 
REMARK       I    between atoms: C_9  and  N_10 
REMARK    5  A    between atoms: N_10  and  C_11 
REMARK    6  A    between atoms: C_24  and  C_25 
REMARK    7  A    between atoms: C_26  and  O_27 
ROOT
HETATM    1  N   UNL     1      -5.281   0.861 -32.855  1.00  0.00    -0.271 N 
HETATM    2  C   UNL     1      -4.623   2.043 -32.542  1.00  0.00     0.197 A 
HETATM    3  N   UNL     1      -3.363   1.801 -32.259  1.00  0.00    -0.122 NA
HETATM    4  N   UNL     1      -3.144   0.469 -32.412  1.00  0.00    -0.128 NA
HETATM    5  C   UNL     1      -4.262  -0.097 -32.836  1.00  0.00     0.172 A 
ENDROOT
BRANCH   2   6
HETATM    6  S   UNL     1      -5.341   3.617 -32.352  1.00  0.00    -0.080 SA
BRANCH   6   7
HETATM    7  C   UNL     1      -4.490   4.503 -33.699  1.00  0.00     0.185 C 
BRANCH   7   8
HETATM    8  C   UNL     1      -3.445   5.483 -33.192  1.00  0.00     0.231 C 
HETATM    9  N   UNL     1      -2.691   5.007 -32.132  1.00  0.00    -0.326 N 
HETATM   10  H   UNL     1      -2.723   4.006 -31.984  1.00  0.00     0.169 HD
HETATM   11  O   UNL     1      -3.385   6.617 -33.662  1.00  0.00    -0.272 OA
BRANCH   9  12
HETATM   12  C   UNL     1      -1.828   5.745 -31.297  1.00  0.00     0.037 A 
HETATM   13  C   UNL     1      -2.236   6.360 -30.109  1.00  0.00     0.069 A 
HETATM   14  C   UNL     1      -1.306   7.024 -29.305  1.00  0.00     0.104 A 
HETATM   15  C   UNL     1       0.029   7.118 -29.701  1.00  0.00     0.102 A 
HETATM   16  O   UNL     1      -1.778   7.560 -28.132  1.00  0.00    -0.346 OA
HETATM   17  O   UNL     1       0.987   7.781 -28.977  1.00  0.00    -0.346 OA
HETATM   18  C   UNL     1       0.447   6.503 -30.877  1.00  0.00     0.042 A 
HETATM   19  C   UNL     1       0.396   8.619 -27.975  1.00  0.00     0.202 C 
HETATM   20  C   UNL     1      -0.708   7.880 -27.238  1.00  0.00     0.202 C 
HETATM   21  C   UNL     1      -0.478   5.814 -31.669  1.00  0.00     0.032 A 
ENDBRANCH   9  12
ENDBRANCH   7   8
ENDBRANCH   6   7
ENDBRANCH   2   6
BRANCH   1  22
HETATM   22  C   UNL     1      -6.669   0.637 -33.084  1.00  0.00     0.043 A 
HETATM   23  C   UNL     1      -7.530   0.305 -32.030  1.00  0.00     0.030 A 
HETATM   24  C   UNL     1      -8.892   0.111 -32.274  1.00  0.00     0.002 A 
HETATM   25  C   UNL     1      -9.401   0.245 -33.564  1.00  0.00     0.000 A 
HETATM   26  C   UNL     1      -8.550   0.573 -34.617  1.00  0.00     0.002 A 
HETATM   27  C   UNL     1      -7.188   0.768 -34.381  1.00  0.00     0.030 A 
ENDBRANCH   1  22
BRANCH   5  28
HETATM   28  C   UNL     1      -4.319  -1.503 -33.251  1.00  0.00     0.045 A 
HETATM   29  C   UNL     1      -3.545  -2.469 -32.586  1.00  0.00     0.079 A 
HETATM   30  C   UNL     1      -3.584  -3.810 -32.963  1.00  0.00     0.037 A 
HETATM   31  C   UNL     1      -4.375  -4.204 -34.040  1.00  0.00     0.003 A 
HETATM   32  C   UNL     1      -5.122  -3.257 -34.737  1.00  0.00     0.001 A 
HETATM   33  C   UNL     1      -5.089  -1.913 -34.350  1.00  0.00     0.018 A 
BRANCH  29  34
HETATM   34  O   UNL     1      -2.712  -2.156 -31.544  1.00  0.00    -0.360 OA
HETATM   35  H   UNL     1      -2.107  -1.445 -31.841  1.00  0.00     0.217 HD
ENDBRANCH  29  34
ENDBRANCH   5  28
TORSDOF 7
ENDMDL
MODEL 3
REMARK VINA RESULT:      -9.1      3.501      7.960
REMARK  7 active torsions:
REMARK  status: ('A' for Active; 'I' for Inactive)
REMARK    1  A    between atoms: C_4  and  N_5 
REMARK    2  A    between atoms: C_6  and  S_7 
REMARK    3  A    between atoms: S_7  and  C_8 
REMARK    4  A    between atoms: C_8  and  C_9 
REMARK       I    between atoms: C_9  and  N_10 
REMARK    5  A    between atoms: N_10  and  C_11 
REMARK    6  A    between atoms: C_24  and  C_25 
REMARK    7  A    between atoms: C_26  and  O_27 
ROOT
HETATM    1  N   UNL     1      -4.648   5.520 -32.690  1.00  0.00    -0.271 N 
HETATM    2  C   UNL     1      -5.403   5.081 -33.770  1.00  0.00     0.197 A 
HETATM    3  N   UNL     1      -4.652   5.002 -34.846  1.00  0.00    -0.122 NA
HETATM    4  N   UNL     1      -3.383   5.348 -34.503  1.00  0.00    -0.128 NA
HETATM    5  C   UNL     1      -3.349   5.590 -33.203  1.00  0.00     0.172 A 
ENDROOT
BRANCH   2   6
HETATM    6  S   UNL     1      -7.125   4.834 -33.808  1.00  0.00    -0.080 SA
BRANCH   6   7
HETATM    7  C   UNL     1      -7.234   3.312 -32.811  1.00  0.00     0.185 C 
BRANCH   7   8
HETATM    8  C   UNL     1      -6.869   2.064 -33.598  1.00  0.00     0.231 C 
HETATM    9  N   UNL     1      -6.697   0.934 -32.817  1.00  0.00    -0.326 N 
HETATM   10  H   UNL     1      -7.077   0.985 -31.879  1.00  0.00     0.169 HD
HETATM   11  O   UNL     1      -6.669   2.135 -34.809  1.00  0.00    -0.272 OA
BRANCH   9  12
HETATM   12  C   UNL     1      -6.129  -0.296 -33.205  1.00  0.00     0.037 A 
HETATM   13  C   UNL     1      -6.867  -1.359 -33.735  1.00  0.00     0.069 A 
HETATM   14  C   UNL     1      -6.221  -2.526 -34.151  1.00  0.00     0.104 A 
HETATM   15  C   UNL     1      -4.839  -2.659 -34.003  1.00  0.00     0.102 A 
HETATM   16  O   UNL     1      -7.012  -3.504 -34.703  1.00  0.00    -0.346 OA
HETATM   17  O   UNL     1      -4.147  -3.787 -34.362  1.00  0.00    -0.346 OA
HETATM   18  C   UNL     1      -4.095  -1.604 -33.486  1.00  0.00     0.042 A 
HETATM   19  C   UNL     1      -5.030  -4.894 -34.583  1.00  0.00     0.202 C 
HETATM   20  C   UNL     1      -6.229  -4.467 -35.414  1.00  0.00     0.202 C 
HETATM   21  C   UNL     1      -4.737  -0.424 -33.094  1.00  0.00     0.032 A 
ENDBRANCH   9  12
ENDBRANCH   7   8
ENDBRANCH   6   7
ENDBRANCH   2   6
BRANCH   1  22
HETATM   22  C   UNL     1      -5.077   5.878 -31.379  1.00  0.00     0.043 A 
HETATM   23  C   UNL     1      -5.210   4.910 -30.375  1.00  0.00     0.030 A 
HETATM   24  C   UNL     1      -5.611   5.287 -29.090  1.00  0.00     0.002 A 
HETATM   25  C   UNL     1      -5.883   6.623 -28.801  1.00  0.00     0.000 A 
HETATM   26  C   UNL     1      -5.755   7.589 -29.796  1.00  0.00     0.002 A 
HETATM   27  C   UNL     1      -5.355   7.221 -31.082  1.00  0.00     0.030 A 
ENDBRANCH   1  22
BRANCH   5  28
HETATM   28  C   UNL     1      -2.093   5.835 -32.486  1.00  0.00     0.045 A 
HETATM   29  C   UNL     1      -1.298   6.947 -32.810  1.00  0.00     0.079 A 
HETATM   30  C   UNL     1      -0.101   7.199 -32.141  1.00  0.00     0.037 A 
HETATM   31  C   UNL     1       0.341   6.318 -31.156  1.00  0.00     0.003 A 
HETATM   32  C   UNL     1      -0.414   5.189 -30.845  1.00  0.00     0.001 A 
HETATM   33  C   UNL     1      -1.620   4.944 -31.510  1.00  0.00     0.018 A 
BRANCH  29  34
HETATM   34  O   UNL     1      -1.642   7.838 -33.793  1.00  0.00    -0.360 OA
HETATM   35  H   UNL     1      -2.468   8.287 -33.520  1.00  0.00     0.217 HD
ENDBRANCH  29  34
ENDBRANCH   5  28
TORSDOF 7
ENDMDL
MODEL 4
REMARK VINA RESULT:      -9.0      5.583      9.127
REMARK  7 active torsions:
REMARK  status: ('A' for Active; 'I' for Inactive)
REMARK    1  A    between atoms: C_4  and  N_5 
REMARK    2  A    between atoms: C_6  and  S_7 
REMARK    3  A    between atoms: S_7  and  C_8 
REMARK    4  A    between atoms: C_8  and  C_9 
REMARK       I    between atoms: C_9  and  N_10 
REMARK    5  A    between atoms: N_10  and  C_11 
REMARK    6  A    between atoms: C_24  and  C_25 
REMARK    7  A    between atoms: C_26  and  O_27 
ROOT
HETATM    1  N   UNL     1      -1.172   6.268 -30.198  1.00  0.00    -0.271 N 
HETATM    2  C   UNL     1      -1.199   5.118 -30.977  1.00  0.00     0.197 A 
HETATM    3  N   UNL     1      -0.099   4.423 -30.798  1.00  0.00    -0.122 NA
HETATM    4  N   UNL     1       0.665   5.067 -29.877  1.00  0.00    -0.128 NA
HETATM    5  C   UNL     1       0.005   6.134 -29.455  1.00  0.00     0.172 A 
ENDROOT
BRANCH   2   6
HETATM    6  S   UNL     1      -2.392   4.695 -32.171  1.00  0.00    -0.080 SA
BRANCH   6   7
HETATM    7  C   UNL     1      -3.513   3.696 -31.137  1.00  0.00     0.185 C 
BRANCH   7   8
HETATM    8  C   UNL     1      -3.646   2.263 -31.626  1.00  0.00     0.231 C 
HETATM    9  N   UNL     1      -4.668   2.072 -32.541  1.00  0.00    -0.326 N 
HETATM   10  H   UNL     1      -5.032   2.911 -32.977  1.00  0.00     0.169 HD
HETATM   11  O   UNL     1      -2.939   1.380 -31.147  1.00  0.00    -0.272 OA
BRANCH   9  12
HETATM   12  C   UNL     1      -5.197   0.844 -32.989  1.00  0.00     0.037 A 
HETATM   13  C   UNL     1      -4.416  -0.199 -33.495  1.00  0.00     0.069 A 
HETATM   14  C   UNL     1      -5.010  -1.409 -33.863  1.00  0.00     0.104 A 
HETATM   15  C   UNL     1      -6.393  -1.573 -33.770  1.00  0.00     0.102 A 
HETATM   16  O   UNL     1      -4.167  -2.398 -34.307  1.00  0.00    -0.346 OA
HETATM   17  O   UNL     1      -7.044  -2.721 -34.143  1.00  0.00    -0.346 OA
HETATM   18  C   UNL     1      -7.178  -0.545 -33.260  1.00  0.00     0.042 A 
HETATM   19  C   UNL     1      -6.196  -3.571 -34.926  1.00  0.00     0.202 C 
HETATM   20  C   UNL     1      -4.814  -3.675 -34.302  1.00  0.00     0.202 C 
HETATM   21  C   UNL     1      -6.581   0.658 -32.865  1.00  0.00     0.032 A 
ENDBRANCH   9  12
ENDBRANCH   7   8
ENDBRANCH   6   7
ENDBRANCH   2   6
BRANCH   1  22
HETATM   22  C   UNL     1      -2.080   7.365 -30.182  1.00  0.00     0.043 A 
HETATM   23  C   UNL     1      -3.141   7.410 -29.269  1.00  0.00     0.030 A 
HETATM   24  C   UNL     1      -4.008   8.507 -29.257  1.00  0.00     0.002 A 
HETATM   25  C   UNL     1      -3.823   9.559 -30.151  1.00  0.00     0.000 A 
HETATM   26  C   UNL     1      -2.771   9.519 -31.064  1.00  0.00     0.002 A 
HETATM   27  C   UNL     1      -1.902   8.427 -31.082  1.00  0.00     0.030 A 
ENDBRANCH   1  22
BRANCH   5  28
HETATM   28  C   UNL     1       0.485   6.960 -28.341  1.00  0.00     0.045 A 
HETATM   29  C   UNL     1       0.173   6.613 -27.017  1.00  0.00     0.079 A 
HETATM   30  C   UNL     1       0.618   7.384 -25.944  1.00  0.00     0.037 A 
HETATM   31  C   UNL     1       1.357   8.541 -26.182  1.00  0.00     0.003 A 
HETATM   32  C   UNL     1       1.646   8.924 -27.490  1.00  0.00     0.001 A 
HETATM   33  C   UNL     1       1.207   8.143 -28.564  1.00  0.00     0.018 A 
BRANCH  29  34
HETATM   34  O   UNL     1      -0.582   5.514 -26.701  1.00  0.00    -0.360 OA
HETATM   35  H   UNL     1      -0.749   5.527 -25.736  1.00  0.00     0.217 HD
ENDBRANCH  29  34
ENDBRANCH   5  28
TORSDOF 7
ENDMDL
MODEL 5
REMARK VINA RESULT:      -9.0      2.918      7.674
REMARK  7 active torsions:
REMARK  status: ('A' for Active; 'I' for Inactive)
REMARK    1  A    between atoms: C_4  and  N_5 
REMARK    2  A    between atoms: C_6  and  S_7 
REMARK    3  A    between atoms: S_7  and  C_8 
REMARK    4  A    between atoms: C_8  and  C_9 
REMARK       I    between atoms: C_9  and  N_10 
REMARK    5  A    between atoms: N_10  and  C_11 
REMARK    6  A    between atoms: C_24  and  C_25 
REMARK    7  A    between atoms: C_26  and  O_27 
ROOT
HETATM    1  N   UNL     1      -5.754   3.234 -32.858  1.00  0.00    -0.271 N 
HETATM    2  C   UNL     1      -7.106   3.345 -33.153  1.00  0.00     0.197 A 
HETATM    3  N   UNL     1      -7.368   4.535 -33.644  1.00  0.00    -0.122 NA
HETATM    4  N   UNL     1      -6.201   5.227 -33.723  1.00  0.00    -0.128 NA
HETATM    5  C   UNL     1      -5.216   4.438 -33.324  1.00  0.00     0.172 A 
ENDROOT
BRANCH   2   6
HETATM    6  S   UNL     1      -8.353   2.190 -32.780  1.00  0.00    -0.080 SA
BRANCH   6   7
HETATM    7  C   UNL     1      -8.734   1.602 -34.463  1.00  0.00     0.185 C 
BRANCH   7   8
HETATM    8  C   UNL     1      -7.788   0.511 -34.934  1.00  0.00     0.231 C 
HETATM    9  N   UNL     1      -7.840  -0.649 -34.178  1.00  0.00    -0.326 N 
HETATM   10  H   UNL     1      -8.655  -0.750 -33.584  1.00  0.00     0.169 HD
HETATM   11  O   UNL     1      -7.004   0.730 -35.855  1.00  0.00    -0.272 OA
BRANCH   9  12
HETATM   12  C   UNL     1      -6.936  -1.729 -34.205  1.00  0.00     0.037 A 
HETATM   13  C   UNL     1      -5.702  -1.725 -33.547  1.00  0.00     0.069 A 
HETATM   14  C   UNL     1      -4.887  -2.860 -33.573  1.00  0.00     0.104 A 
HETATM   15  C   UNL     1      -5.276  -3.992 -34.290  1.00  0.00     0.102 A 
HETATM   16  O   UNL     1      -3.713  -2.790 -32.864  1.00  0.00    -0.346 OA
HETATM   17  O   UNL     1      -4.512  -5.127 -34.384  1.00  0.00    -0.346 OA
HETATM   18  C   UNL     1      -6.505  -4.009 -34.941  1.00  0.00     0.042 A 
HETATM   19  C   UNL     1      -3.166  -4.887 -33.950  1.00  0.00     0.202 C 
HETATM   20  C   UNL     1      -3.153  -4.090 -32.656  1.00  0.00     0.202 C 
HETATM   21  C   UNL     1      -7.335  -2.884 -34.893  1.00  0.00     0.032 A 
ENDBRANCH   9  12
ENDBRANCH   7   8
ENDBRANCH   6   7
ENDBRANCH   2   6
BRANCH   1  22
HETATM   22  C   UNL     1      -5.062   2.184 -32.188  1.00  0.00     0.043 A 
HETATM   23  C   UNL     1      -5.452   1.765 -30.910  1.00  0.00     0.030 A 
HETATM   24  C   UNL     1      -4.773   0.718 -30.280  1.00  0.00     0.002 A 
HETATM   25  C   UNL     1      -3.706   0.087 -30.918  1.00  0.00     0.000 A 
HETATM   26  C   UNL     1      -3.312   0.501 -32.188  1.00  0.00     0.002 A 
HETATM   27  C   UNL     1      -3.985   1.547 -32.823  1.00  0.00     0.030 A 
ENDBRANCH   1  22
BRANCH   5  28
HETATM   28  C   UNL     1      -3.806   4.829 -33.437  1.00  0.00     0.045 A 
HETATM   29  C   UNL     1      -3.279   5.224 -34.677  1.00  0.00     0.079 A 
HETATM   30  C   UNL     1      -1.942   5.599 -34.807  1.00  0.00     0.037 A 
HETATM   31  C   UNL     1      -1.099   5.551 -33.700  1.00  0.00     0.003 A 
HETATM   32  C   UNL     1      -1.592   5.126 -32.468  1.00  0.00     0.001 A 
HETATM   33  C   UNL     1      -2.936   4.760 -32.338  1.00  0.00     0.018 A 
BRANCH  29  34
HETATM   34  O   UNL     1      -4.033   5.261 -35.822  1.00  0.00    -0.360 OA
HETATM   35  H   UNL     1      -3.930   6.147 -36.224  1.00  0.00     0.217 HD
ENDBRANCH  29  34
ENDBRANCH   5  28
TORSDOF 7
ENDMDL
MODEL 6
REMARK VINA RESULT:      -8.7      4.120      8.369
REMARK  7 active torsions:
REMARK  status: ('A' for Active; 'I' for Inactive)
REMARK    1  A    between atoms: C_4  and  N_5 
REMARK    2  A    between atoms: C_6  and  S_7 
REMARK    3  A    between atoms: S_7  and  C_8 
REMARK    4  A    between atoms: C_8  and  C_9 
REMARK       I    between atoms: C_9  and  N_10 
REMARK    5  A    between atoms: N_10  and  C_11 
REMARK    6  A    between atoms: C_24  and  C_25 
REMARK    7  A    between atoms: C_26  and  O_27 
ROOT
HETATM    1  N   UNL     1      -7.402   2.781 -33.890  1.00  0.00    -0.271 N 
HETATM    2  C   UNL     1      -6.536   3.848 -33.687  1.00  0.00     0.197 A 
HETATM    3  N   UNL     1      -7.160   4.986 -33.894  1.00  0.00    -0.122 NA
HETATM    4  N   UNL     1      -8.454   4.708 -34.202  1.00  0.00    -0.128 NA
HETATM    5  C   UNL     1      -8.633   3.399 -34.133  1.00  0.00     0.172 A 
ENDROOT
BRANCH   2   6
HETATM    6  S   UNL     1      -4.824   3.760 -33.384  1.00  0.00    -0.080 SA
BRANCH   6   7
HETATM    7  C   UNL     1      -4.266   5.180 -34.382  1.00  0.00     0.185 C 
BRANCH   7   8
HETATM    8  C   UNL     1      -3.109   5.930 -33.744  1.00  0.00     0.231 C 
HETATM    9  N   UNL     1      -2.744   5.450 -32.497  1.00  0.00    -0.326 N 
HETATM   10  H   UNL     1      -3.086   4.526 -32.263  1.00  0.00     0.169 HD
HETATM   11  O   UNL     1      -2.639   6.922 -34.295  1.00  0.00    -0.272 OA
BRANCH   9  12
HETATM   12  C   UNL     1      -1.890   6.066 -31.559  1.00  0.00     0.037 A 
HETATM   13  C   UNL     1      -2.332   6.625 -30.356  1.00  0.00     0.069 A 
HETATM   14  C   UNL     1      -1.414   7.165 -29.452  1.00  0.00     0.104 A 
HETATM   15  C   UNL     1      -0.053   7.192 -29.760  1.00  0.00     0.102 A 
HETATM   16  O   UNL     1      -1.925   7.651 -28.273  1.00  0.00    -0.346 OA
HETATM   17  O   UNL     1       0.897   7.735 -28.933  1.00  0.00    -0.346 OA
HETATM   18  C   UNL     1       0.398   6.632 -30.950  1.00  0.00     0.042 A 
HETATM   19  C   UNL     1       0.300   8.541 -27.909  1.00  0.00     0.202 C 
HETATM   20  C   UNL     1      -0.896   7.832 -27.296  1.00  0.00     0.202 C 
HETATM   21  C   UNL     1      -0.517   6.065 -31.844  1.00  0.00     0.032 A 
ENDBRANCH   9  12
ENDBRANCH   7   8
ENDBRANCH   6   7
ENDBRANCH   2   6
BRANCH   1  22
HETATM   22  C   UNL     1      -7.119   1.385 -33.911  1.00  0.00     0.043 A 
HETATM   23  C   UNL     1      -7.105   0.671 -35.116  1.00  0.00     0.030 A 
HETATM   24  C   UNL     1      -6.804  -0.694 -35.116  1.00  0.00     0.002 A 
HETATM   25  C   UNL     1      -6.518  -1.351 -33.921  1.00  0.00     0.000 A 
HETATM   26  C   UNL     1      -6.533  -0.647 -32.720  1.00  0.00     0.002 A 
HETATM   27  C   UNL     1      -6.833   0.717 -32.712  1.00  0.00     0.030 A 
ENDBRANCH   1  22
BRANCH   5  28
HETATM   28  C   UNL     1      -9.958   2.783 -34.255  1.00  0.00     0.045 A 
HETATM   29  C   UNL     1     -10.934   3.360 -35.084  1.00  0.00     0.079 A 
HETATM   30  C   UNL     1     -12.200   2.791 -35.214  1.00  0.00     0.037 A 
HETATM   31  C   UNL     1     -12.524   1.648 -34.486  1.00  0.00     0.003 A 
HETATM   32  C   UNL     1     -11.584   1.081 -33.628  1.00  0.00     0.001 A 
HETATM   33  C   UNL     1     -10.311   1.648 -33.508  1.00  0.00     0.018 A 
BRANCH  29  34
HETATM   34  O   UNL     1     -10.707   4.504 -35.803  1.00  0.00    -0.360 OA
HETATM   35  H   UNL     1     -10.689   4.268 -36.753  1.00  0.00     0.217 HD
ENDBRANCH  29  34
ENDBRANCH   5  28
TORSDOF 7
ENDMDL
MODEL 7
REMARK VINA RESULT:      -8.7      1.542      2.106
REMARK  7 active torsions:
REMARK  status: ('A' for Active; 'I' for Inactive)
REMARK    1  A    between atoms: C_4  and  N_5 
REMARK    2  A    between atoms: C_6  and  S_7 
REMARK    3  A    between atoms: S_7  and  C_8 
REMARK    4  A    between atoms: C_8  and  C_9 
REMARK       I    between atoms: C_9  and  N_10 
REMARK    5  A    between atoms: N_10  and  C_11 
REMARK    6  A    between atoms: C_24  and  C_25 
REMARK    7  A    between atoms: C_26  and  O_27 
ROOT
HETATM    1  N   UNL     1      -4.741   0.258 -32.477  1.00  0.00    -0.271 N 
HETATM    2  C   UNL     1      -4.030   1.260 -31.830  1.00  0.00     0.197 A 
HETATM    3  N   UNL     1      -2.938   0.766 -31.292  1.00  0.00    -0.122 NA
HETATM    4  N   UNL     1      -2.876  -0.557 -31.596  1.00  0.00    -0.128 NA
HETATM    5  C   UNL     1      -3.909  -0.861 -32.364  1.00  0.00     0.172 A 
ENDROOT
BRANCH   2   6
HETATM    6  S   UNL     1      -4.542   2.903 -31.572  1.00  0.00    -0.080 SA
BRANCH   6   7
HETATM    7  C   UNL     1      -5.598   2.664 -30.106  1.00  0.00     0.185 C 
BRANCH   7   8
HETATM    8  C   UNL     1      -6.920   3.409 -30.203  1.00  0.00     0.231 C 
HETATM    9  N   UNL     1      -7.880   2.759 -30.960  1.00  0.00    -0.326 N 
HETATM   10  H   UNL     1      -7.709   1.777 -31.139  1.00  0.00     0.169 HD
HETATM   11  O   UNL     1      -7.034   4.528 -29.708  1.00  0.00    -0.272 OA
BRANCH   9  12
HETATM   12  C   UNL     1      -9.097   3.288 -31.435  1.00  0.00     0.037 A 
HETATM   13  C   UNL     1     -10.224   3.485 -30.632  1.00  0.00     0.069 A 
HETATM   14  C   UNL     1     -11.375   4.070 -31.165  1.00  0.00     0.104 A 
HETATM   15  C   UNL     1     -11.426   4.425 -32.514  1.00  0.00     0.102 A 
HETATM   16  O   UNL     1     -12.422   4.271 -30.298  1.00  0.00    -0.346 OA
HETATM   17  O   UNL     1     -12.534   4.974 -33.109  1.00  0.00    -0.346 OA
HETATM   18  C   UNL     1     -10.308   4.241 -33.320  1.00  0.00     0.042 A 
HETATM   19  C   UNL     1     -13.696   4.829 -32.283  1.00  0.00     0.202 C 
HETATM   20  C   UNL     1     -13.379   5.186 -30.840  1.00  0.00     0.202 C 
HETATM   21  C   UNL     1      -9.145   3.681 -32.781  1.00  0.00     0.032 A 
ENDBRANCH   9  12
ENDBRANCH   7   8
ENDBRANCH   6   7
ENDBRANCH   2   6
BRANCH   1  22
HETATM   22  C   UNL     1      -6.035   0.312 -33.070  1.00  0.00     0.043 A 
HETATM   23  C   UNL     1      -6.226   0.887 -34.333  1.00  0.00     0.030 A 
HETATM   24  C   UNL     1      -7.501   0.911 -34.905  1.00  0.00     0.002 A 
HETATM   25  C   UNL     1      -8.588   0.366 -34.224  1.00  0.00     0.000 A 
HETATM   26  C   UNL     1      -8.405  -0.205 -32.966  1.00  0.00     0.002 A 
HETATM   27  C   UNL     1      -7.134  -0.232 -32.388  1.00  0.00     0.030 A 
ENDBRANCH   1  22
BRANCH   5  28
HETATM   28  C   UNL     1      -4.053  -2.176 -32.998  1.00  0.00     0.045 A 
HETATM   29  C   UNL     1      -3.387  -3.294 -32.469  1.00  0.00     0.079 A 
HETATM   30  C   UNL     1      -3.509  -4.552 -33.055  1.00  0.00     0.037 A 
HETATM   31  C   UNL     1      -4.275  -4.708 -34.208  1.00  0.00     0.003 A 
HETATM   32  C   UNL     1      -4.914  -3.606 -34.772  1.00  0.00     0.001 A 
HETATM   33  C   UNL     1      -4.799  -2.346 -34.175  1.00  0.00     0.018 A 
BRANCH  29  34
HETATM   34  O   UNL     1      -2.582  -3.216 -31.361  1.00  0.00    -0.360 OA
HETATM   35  H   UNL     1      -2.067  -4.047 -31.301  1.00  0.00     0.217 HD
ENDBRANCH  29  34
ENDBRANCH   5  28
TORSDOF 7
ENDMDL
MODEL 8
REMARK VINA RESULT:      -8.7      3.330      8.029
REMARK  7 active torsions:
REMARK  status: ('A' for Active; 'I' for Inactive)
REMARK    1  A    between atoms: C_4  and  N_5 
REMARK    2  A    between atoms: C_6  and  S_7 
REMARK    3  A    between atoms: S_7  and  C_8 
REMARK    4  A    between atoms: C_8  and  C_9 
REMARK       I    between atoms: C_9  and  N_10 
REMARK    5  A    between atoms: N_10  and  C_11 
REMARK    6  A    between atoms: C_24  and  C_25 
REMARK    7  A    between atoms: C_26  and  O_27 
ROOT
HETATM    1  N   UNL     1      -5.214   5.193 -32.112  1.00  0.00    -0.271 N 
HETATM    2  C   UNL     1      -6.091   4.479 -32.918  1.00  0.00     0.197 A 
HETATM    3  N   UNL     1      -5.526   4.205 -34.072  1.00  0.00    -0.122 NA
HETATM    4  N   UNL     1      -4.258   4.693 -34.049  1.00  0.00    -0.128 NA
HETATM    5  C   UNL     1      -4.031   5.222 -32.858  1.00  0.00     0.172 A 
ENDROOT
BRANCH   2   6
HETATM    6  S   UNL     1      -7.763   4.129 -32.586  1.00  0.00    -0.080 SA
BRANCH   6   7
HETATM    7  C   UNL     1      -8.041   2.799 -33.802  1.00  0.00     0.185 C 
BRANCH   7   8
HETATM    8  C   UNL     1      -7.495   1.457 -33.343  1.00  0.00     0.231 C 
HETATM    9  N   UNL     1      -6.503   0.942 -34.160  1.00  0.00    -0.326 N 
HETATM   10  H   UNL     1      -6.070   1.601 -34.796  1.00  0.00     0.169 HD
HETATM   11  O   UNL     1      -7.994   0.887 -32.375  1.00  0.00    -0.272 OA
BRANCH   9  12
HETATM   12  C   UNL     1      -5.977  -0.366 -34.146  1.00  0.00     0.037 A 
HETATM   13  C   UNL     1      -4.870  -0.750 -33.383  1.00  0.00     0.069 A 
HETATM   14  C   UNL     1      -4.446  -2.081 -33.378  1.00  0.00     0.104 A 
HETATM   15  C   UNL     1      -5.095  -3.031 -34.169  1.00  0.00     0.102 A 
HETATM   16  O   UNL     1      -3.381  -2.385 -32.566  1.00  0.00    -0.346 OA
HETATM   17  O   UNL     1      -4.712  -4.346 -34.236  1.00  0.00    -0.346 OA
HETATM   18  C   UNL     1      -6.201  -2.661 -34.926  1.00  0.00     0.042 A 
HETATM   19  C   UNL     1      -3.406  -4.539 -33.677  1.00  0.00     0.202 C 
HETATM   20  C   UNL     1      -3.271  -3.796 -32.357  1.00  0.00     0.202 C 
HETATM   21  C   UNL     1      -6.645  -1.334 -34.910  1.00  0.00     0.032 A 
ENDBRANCH   9  12
ENDBRANCH   7   8
ENDBRANCH   6   7
ENDBRANCH   2   6
BRANCH   1  22
HETATM   22  C   UNL     1      -5.451   5.810 -30.850  1.00  0.00     0.043 A 
HETATM   23  C   UNL     1      -5.363   5.076 -29.660  1.00  0.00     0.030 A 
HETATM   24  C   UNL     1      -5.579   5.706 -28.432  1.00  0.00     0.002 A 
HETATM   25  C   UNL     1      -5.884   7.065 -28.383  1.00  0.00     0.000 A 
HETATM   26  C   UNL     1      -5.976   7.800 -29.563  1.00  0.00     0.002 A 
HETATM   27  C   UNL     1      -5.762   7.177 -30.794  1.00  0.00     0.030 A 
ENDBRANCH   1  22
BRANCH   5  28
HETATM   28  C   UNL     1      -2.703   5.696 -32.452  1.00  0.00     0.045 A 
HETATM   29  C   UNL     1      -1.875   4.885 -31.660  1.00  0.00     0.079 A 
HETATM   30  C   UNL     1      -0.609   5.315 -31.263  1.00  0.00     0.037 A 
HETATM   31  C   UNL     1      -0.164   6.585 -31.624  1.00  0.00     0.003 A 
HETATM   32  C   UNL     1      -0.986   7.420 -32.378  1.00  0.00     0.001 A 
HETATM   33  C   UNL     1      -2.250   6.982 -32.785  1.00  0.00     0.018 A 
BRANCH  29  34
HETATM   34  O   UNL     1      -2.254   3.640 -31.229  1.00  0.00    -0.360 OA
HETATM   35  H   UNL     1      -2.653   3.735 -30.340  1.00  0.00     0.217 HD
ENDBRANCH  29  34
ENDBRANCH   5  28
TORSDOF 7
ENDMDL
MODEL 9
REMARK VINA RESULT:      -8.6      4.353      8.640
REMARK  7 active torsions:
REMARK  status: ('A' for Active; 'I' for Inactive)
REMARK    1  A    between atoms: C_4  and  N_5 
REMARK    2  A    between atoms: C_6  and  S_7 
REMARK    3  A    between atoms: S_7  and  C_8 
REMARK    4  A    between atoms: C_8  and  C_9 
REMARK       I    between atoms: C_9  and  N_10 
REMARK    5  A    between atoms: N_10  and  C_11 
REMARK    6  A    between atoms: C_24  and  C_25 
REMARK    7  A    between atoms: C_26  and  O_27 
ROOT
HETATM    1  N   UNL     1      -2.886   5.735 -31.289  1.00  0.00    -0.271 N 
HETATM    2  C   UNL     1      -2.278   4.622 -31.855  1.00  0.00     0.197 A 
HETATM    3  N   UNL     1      -0.973   4.769 -31.858  1.00  0.00    -0.122 NA
HETATM    4  N   UNL     1      -0.680   5.958 -31.267  1.00  0.00    -0.128 NA
HETATM    5  C   UNL     1      -1.808   6.514 -30.856  1.00  0.00     0.172 A 
ENDROOT
BRANCH   2   6
HETATM    6  S   UNL     1      -3.072   3.281 -32.630  1.00  0.00    -0.080 SA
BRANCH   6   7
HETATM    7  C   UNL     1      -3.686   2.400 -31.158  1.00  0.00     0.185 C 
BRANCH   7   8
HETATM    8  C   UNL     1      -4.108   0.971 -31.459  1.00  0.00     0.231 C 
HETATM    9  N   UNL     1      -4.288   0.708 -32.807  1.00  0.00    -0.326 N 
HETATM   10  H   UNL     1      -3.879   1.380 -33.445  1.00  0.00     0.169 HD
HETATM   11  O   UNL     1      -4.341   0.190 -30.539  1.00  0.00    -0.272 OA
BRANCH   9  12
HETATM   12  C   UNL     1      -4.900  -0.424 -33.383  1.00  0.00     0.037 A 
HETATM   13  C   UNL     1      -4.229  -1.622 -33.644  1.00  0.00     0.069 A 
HETATM   14  C   UNL     1      -4.921  -2.719 -34.162  1.00  0.00     0.104 A 
HETATM   15  C   UNL     1      -6.280  -2.616 -34.466  1.00  0.00     0.102 A 
HETATM   16  O   UNL     1      -4.198  -3.872 -34.345  1.00  0.00    -0.346 OA
HETATM   17  O   UNL     1      -7.012  -3.642 -35.006  1.00  0.00    -0.346 OA
HETATM   18  C   UNL     1      -6.959  -1.431 -34.203  1.00  0.00     0.042 A 
HETATM   19  C   UNL     1      -6.163  -4.680 -35.513  1.00  0.00     0.202 C 
HETATM   20  C   UNL     1      -5.058  -5.003 -34.521  1.00  0.00     0.202 C 
HETATM   21  C   UNL     1      -6.273  -0.341 -33.657  1.00  0.00     0.032 A 
ENDBRANCH   9  12
ENDBRANCH   7   8
ENDBRANCH   6   7
ENDBRANCH   2   6
BRANCH   1  22
HETATM   22  C   UNL     1      -4.271   6.060 -31.209  1.00  0.00     0.043 A 
HETATM   23  C   UNL     1      -4.952   6.589 -32.313  1.00  0.00     0.030 A 
HETATM   24  C   UNL     1      -6.316   6.881 -32.218  1.00  0.00     0.002 A 
HETATM   25  C   UNL     1      -7.004   6.649 -31.028  1.00  0.00     0.000 A 
HETATM   26  C   UNL     1      -6.331   6.127 -29.926  1.00  0.00     0.002 A 
HETATM   27  C   UNL     1      -4.969   5.833 -30.013  1.00  0.00     0.030 A 
ENDBRANCH   1  22
BRANCH   5  28
HETATM   28  C   UNL     1      -1.827   7.731 -30.037  1.00  0.00     0.045 A 
HETATM   29  C   UNL     1      -1.498   7.671 -28.673  1.00  0.00     0.079 A 
HETATM   30  C   UNL     1      -1.511   8.815 -27.877  1.00  0.00     0.037 A 
HETATM   31  C   UNL     1      -1.888  10.038 -28.426  1.00  0.00     0.003 A 
HETATM   32  C   UNL     1      -2.255  10.113 -29.768  1.00  0.00     0.001 A 
HETATM   33  C   UNL     1      -2.232   8.966 -30.568  1.00  0.00     0.018 A 
BRANCH  29  34
HETATM   34  O   UNL     1      -1.155   6.501 -28.048  1.00  0.00    -0.360 OA
HETATM   35  H   UNL     1      -0.588   5.986 -28.658  1.00  0.00     0.217 HD
ENDBRANCH  29  34
ENDBRANCH   5  28
TORSDOF 7
ENDMDL
MODEL 10
REMARK VINA RESULT:      -8.4      2.780      4.435
REMARK  7 active torsions:
REMARK  status: ('A' for Active; 'I' for Inactive)
REMARK    1  A    between atoms: C_4  and  N_5 
REMARK    2  A    between atoms: C_6  and  S_7 
REMARK    3  A    between atoms: S_7  and  C_8 
REMARK    4  A    between atoms: C_8  and  C_9 
REMARK       I    between atoms: C_9  and  N_10 
REMARK    5  A    between atoms: N_10  and  C_11 
REMARK    6  A    between atoms: C_24  and  C_25 
REMARK    7  A    between atoms: C_26  and  O_27 
ROOT
HETATM    1  N   UNL     1      -7.046   2.590 -31.990  1.00  0.00    -0.271 N 
HETATM    2  C   UNL     1      -7.953   3.097 -31.067  1.00  0.00     0.197 A 
HETATM    3  N   UNL     1      -8.965   2.272 -30.925  1.00  0.00    -0.122 NA
HETATM    4  N   UNL     1      -8.742   1.188 -31.714  1.00  0.00    -0.128 NA
HETATM    5  C   UNL     1      -7.565   1.330 -32.302  1.00  0.00     0.172 A 
ENDROOT
BRANCH   2   6
HETATM    6  S   UNL     1      -7.909   4.666 -30.316  1.00  0.00    -0.080 SA
BRANCH   6   7
HETATM    7  C   UNL     1      -8.488   5.686 -31.712  1.00  0.00     0.185 C 
BRANCH   7   8
HETATM    8  C   UNL     1      -9.606   5.025 -32.501  1.00  0.00     0.231 C 
HETATM    9  N   UNL     1     -10.744   4.761 -31.756  1.00  0.00    -0.326 N 
HETATM   10  H   UNL     1     -10.817   5.254 -30.874  1.00  0.00     0.169 HD
HETATM   11  O   UNL     1      -9.424   4.695 -33.671  1.00  0.00    -0.272 OA
BRANCH   9  12
HETATM   12  C   UNL     1     -11.838   3.952 -32.123  1.00  0.00     0.037 A 
HETATM   13  C   UNL     1     -11.757   2.911 -33.053  1.00  0.00     0.069 A 
HETATM   14  C   UNL     1     -12.875   2.117 -33.319  1.00  0.00     0.104 A 
HETATM   15  C   UNL     1     -14.094   2.381 -32.693  1.00  0.00     0.102 A 
HETATM   16  O   UNL     1     -12.700   1.086 -34.210  1.00  0.00    -0.346 OA
HETATM   17  O   UNL     1     -15.237   1.662 -32.931  1.00  0.00    -0.346 OA
HETATM   18  C   UNL     1     -14.184   3.409 -31.760  1.00  0.00     0.042 A 
HETATM   19  C   UNL     1     -15.110   0.855 -34.109  1.00  0.00     0.202 C 
HETATM   20  C   UNL     1     -13.769   0.140 -34.128  1.00  0.00     0.202 C 
HETATM   21  C   UNL     1     -13.058   4.188 -31.472  1.00  0.00     0.032 A 
ENDBRANCH   9  12
ENDBRANCH   7   8
ENDBRANCH   6   7
ENDBRANCH   2   6
BRANCH   1  22
HETATM   22  C   UNL     1      -5.890   3.208 -32.547  1.00  0.00     0.043 A 
HETATM   23  C   UNL     1      -5.978   3.990 -33.707  1.00  0.00     0.030 A 
HETATM   24  C   UNL     1      -4.835   4.604 -34.224  1.00  0.00     0.002 A 
HETATM   25  C   UNL     1      -3.603   4.443 -33.593  1.00  0.00     0.000 A 
HETATM   26  C   UNL     1      -3.508   3.665 -32.442  1.00  0.00     0.002 A 
HETATM   27  C   UNL     1      -4.646   3.047 -31.919  1.00  0.00     0.030 A 
ENDBRANCH   1  22
BRANCH   5  28
HETATM   28  C   UNL     1      -6.955   0.259 -33.098  1.00  0.00     0.045 A 
HETATM   29  C   UNL     1      -7.495  -0.091 -34.346  1.00  0.00     0.079 A 
HETATM   30  C   UNL     1      -6.930  -1.105 -35.119  1.00  0.00     0.037 A 
HETATM   31  C   UNL     1      -5.832  -1.813 -34.637  1.00  0.00     0.003 A 
HETATM   32  C   UNL     1      -5.303  -1.507 -33.384  1.00  0.00     0.001 A 
HETATM   33  C   UNL     1      -5.865  -0.482 -32.616  1.00  0.00     0.018 A 
BRANCH  29  34
HETATM   34  O   UNL     1      -8.597   0.530 -34.873  1.00  0.00    -0.360 OA
HETATM   35  H   UNL     1      -8.413   1.491 -34.916  1.00  0.00     0.217 HD
ENDBRANCH  29  34
ENDBRANCH   5  28
TORSDOF 7
ENDMDL
