MODEL 1
REMARK VINA RESULT:     -10.7      0.000      0.000
REMARK  8 active torsions:
REMARK  status: ('A' for Active; 'I' for Inactive)
REMARK    1  A    between atoms: C_4  and  C_5 
REMARK    2  A    between atoms: C_5  and  N_6 
REMARK    3  A    between atoms: C_5  and  C_32 
REMARK       I    between atoms: N_10  and  C_11 
REMARK    4  A    between atoms: C_11  and  C_12 
REMARK    5  A    between atoms: C_13  and  N_14 
REMARK    6  A    between atoms: N_14  and  C_15 
REMARK    7  A    between atoms: C_15  and  N_16 
REMARK       I    between atoms: N_16  and  C_17 
REMARK    8  A    between atoms: C_17  and  C_18 
ROOT
HETATM    1  N   UNL     1      -5.851   0.983 -32.564  1.00  0.00    -0.056 N 
HETATM    2  H   UNL     1      -5.625   0.266 -31.867  1.00  0.00     0.281 HD
HETATM    3  C   UNL     1      -4.516   1.525 -33.080  1.00  0.00     0.256 C 
HETATM    4  C   UNL     1      -3.711   2.128 -31.918  1.00  0.00     0.154 C 
HETATM    5  N   UNL     1      -4.506   3.155 -31.242  1.00  0.00    -0.345 N 
HETATM    6  C   UNL     1      -4.527   4.505 -31.643  1.00  0.00     0.256 C 
HETATM    7  O   UNL     1      -5.481   5.232 -31.378  1.00  0.00    -0.267 OA
HETATM    8  C   UNL     1      -5.750   2.631 -30.664  1.00  0.00     0.154 C 
HETATM    9  C   UNL     1      -6.638   2.048 -31.788  1.00  0.00     0.256 C 
ENDROOT
BRANCH   6  10
HETATM   10  C   UNL     1      -3.474   5.013 -32.559  1.00  0.00     0.058 A 
HETATM   11  C   UNL     1      -2.155   5.323 -32.179  1.00  0.00     0.049 A 
HETATM   12  C   UNL     1      -1.193   5.513 -33.181  1.00  0.00     0.030 A 
HETATM   13  C   UNL     1      -1.553   5.493 -34.531  1.00  0.00     0.002 A 
HETATM   14  C   UNL     1      -2.875   5.265 -34.899  1.00  0.00     0.001 A 
HETATM   15  C   UNL     1      -3.833   5.016 -33.918  1.00  0.00     0.019 A 
BRANCH  11  16
HETATM   16  N   UNL     1      -1.689   5.404 -30.849  1.00  0.00    -0.337 N 
HETATM   17  H   UNL     1      -1.555   4.525 -30.359  1.00  0.00     0.168 HD
BRANCH  16  18
HETATM   18  C   UNL     1      -1.376   6.500 -30.117  1.00  0.00     0.157 C 
HETATM   19  S   UNL     1      -2.612   7.353 -29.378  1.00  0.00    -0.047 SA
BRANCH  18  20
HETATM   20  N   UNL     1      -0.085   6.855 -29.867  1.00  0.00    -0.199 NA
HETATM   21  C   UNL     1       0.640   6.308 -28.813  1.00  0.00     0.261 C 
HETATM   22  O   UNL     1       1.017   5.142 -28.767  1.00  0.00    -0.271 OA
HETATM   23  H   UNL     1      -0.027   7.870 -29.855  1.00  0.00     0.139 HD
BRANCH  21  24
HETATM   24  C   UNL     1       0.963   7.267 -27.773  1.00  0.00     0.137 A 
HETATM   25  O   UNL     1       0.742   6.936 -26.461  1.00  0.00    -0.318 OA
HETATM   26  C   UNL     1       1.182   7.978 -25.709  1.00  0.00     0.143 A 
HETATM   27  C   UNL     1       1.679   8.978 -26.511  1.00  0.00     0.027 A 
HETATM   28  C   UNL     1       1.532   8.524 -27.843  1.00  0.00     0.044 A 
ENDBRANCH  21  24
ENDBRANCH  18  20
ENDBRANCH  16  18
ENDBRANCH  11  16
ENDBRANCH   6  10
BRANCH   1  29
HETATM   29  C   UNL     1      -6.614   0.228 -33.657  1.00  0.00     0.254 C 
BRANCH  29  30
HETATM   30  C   UNL     1      -8.132   0.394 -33.619  1.00  0.00    -0.023 A 
HETATM   31  C   UNL     1      -8.729   1.393 -34.416  1.00  0.00     0.009 A 
HETATM   32  C   UNL     1     -10.106   1.623 -34.380  1.00  0.00     0.001 A 
HETATM   33  C   UNL     1     -10.918   0.857 -33.552  1.00  0.00     0.000 A 
HETATM   34  C   UNL     1     -10.354  -0.143 -32.764  1.00  0.00     0.001 A 
HETATM   35  C   UNL     1      -8.976  -0.370 -32.795  1.00  0.00     0.009 A 
ENDBRANCH  29  30
BRANCH  29  36
HETATM   36  C   UNL     1      -6.031  -1.158 -33.923  1.00  0.00    -0.023 A 
HETATM   37  C   UNL     1      -6.818  -2.084 -34.646  1.00  0.00     0.009 A 
HETATM   38  C   UNL     1      -6.356  -3.372 -34.920  1.00  0.00     0.001 A 
HETATM   39  C   UNL     1      -5.098  -3.764 -34.481  1.00  0.00     0.000 A 
HETATM   40  C   UNL     1      -4.305  -2.870 -33.769  1.00  0.00     0.001 A 
HETATM   41  C   UNL     1      -4.765  -1.578 -33.492  1.00  0.00     0.009 A 
ENDBRANCH  29  36
ENDBRANCH   1  29
TORSDOF 8
ENDMDL
MODEL 2
REMARK VINA RESULT:     -10.7      0.736      3.160
REMARK  8 active torsions:
REMARK  status: ('A' for Active; 'I' for Inactive)
REMARK    1  A    between atoms: C_4  and  C_5 
REMARK    2  A    between atoms: C_5  and  N_6 
REMARK    3  A    between atoms: C_5  and  C_32 
REMARK       I    between atoms: N_10  and  C_11 
REMARK    4  A    between atoms: C_11  and  C_12 
REMARK    5  A    between atoms: C_13  and  N_14 
REMARK    6  A    between atoms: N_14  and  C_15 
REMARK    7  A    between atoms: C_15  and  N_16 
REMARK       I    between atoms: N_16  and  C_17 
REMARK    8  A    between atoms: C_17  and  C_18 
ROOT
HETATM    1  N   UNL     1      -6.017   0.941 -31.479  1.00  0.00    -0.056 N 
HETATM    2  H   UNL     1      -5.628   0.391 -30.706  1.00  0.00     0.281 HD
HETATM    3  C   UNL     1      -4.827   1.456 -32.291  1.00  0.00     0.256 C 
HETATM    4  C   UNL     1      -3.924   2.326 -31.402  1.00  0.00     0.154 C 
HETATM    5  N   UNL     1      -4.707   3.412 -30.809  1.00  0.00    -0.345 N 
HETATM    6  C   UNL     1      -4.911   4.653 -31.443  1.00  0.00     0.256 C 
HETATM    7  O   UNL     1      -5.882   5.354 -31.169  1.00  0.00    -0.267 OA
HETATM    8  C   UNL     1      -5.801   2.932 -29.955  1.00  0.00     0.154 C 
HETATM    9  C   UNL     1      -6.781   2.084 -30.798  1.00  0.00     0.256 C 
ENDROOT
BRANCH   6  10
HETATM   10  C   UNL     1      -4.052   5.038 -32.592  1.00  0.00     0.058 A 
HETATM   11  C   UNL     1      -2.669   5.282 -32.518  1.00  0.00     0.049 A 
HETATM   12  C   UNL     1      -1.933   5.352 -33.710  1.00  0.00     0.030 A 
HETATM   13  C   UNL     1      -2.573   5.280 -34.950  1.00  0.00     0.002 A 
HETATM   14  C   UNL     1      -3.953   5.119 -35.017  1.00  0.00     0.001 A 
HETATM   15  C   UNL     1      -4.692   4.989 -33.843  1.00  0.00     0.019 A 
BRANCH  11  16
HETATM   16  N   UNL     1      -1.927   5.406 -31.324  1.00  0.00    -0.337 N 
HETATM   17  H   UNL     1      -1.595   4.545 -30.901  1.00  0.00     0.168 HD
BRANCH  16  18
HETATM   18  C   UNL     1      -1.573   6.527 -30.650  1.00  0.00     0.157 C 
HETATM   19  S   UNL     1      -2.780   7.507 -30.031  1.00  0.00    -0.047 SA
BRANCH  18  20
HETATM   20  N   UNL     1      -0.274   6.813 -30.358  1.00  0.00    -0.199 NA
HETATM   21  C   UNL     1       0.410   6.173 -29.327  1.00  0.00     0.261 C 
HETATM   22  O   UNL     1       0.738   4.992 -29.347  1.00  0.00    -0.271 OA
HETATM   23  H   UNL     1      -0.175   7.822 -30.283  1.00  0.00     0.139 HD
BRANCH  21  24
HETATM   24  C   UNL     1       0.752   7.054 -28.226  1.00  0.00     0.137 A 
HETATM   25  O   UNL     1       0.551   6.629 -26.938  1.00  0.00    -0.318 OA
HETATM   26  C   UNL     1       1.006   7.613 -26.119  1.00  0.00     0.143 A 
HETATM   27  C   UNL     1       1.492   8.668 -26.855  1.00  0.00     0.027 A 
HETATM   28  C   UNL     1       1.322   8.312 -28.213  1.00  0.00     0.044 A 
ENDBRANCH  21  24
ENDBRANCH  18  20
ENDBRANCH  16  18
ENDBRANCH  11  16
ENDBRANCH   6  10
BRANCH   1  29
HETATM   29  C   UNL     1      -6.854  -0.062 -32.280  1.00  0.00     0.254 C 
BRANCH  29  30
HETATM   30  C   UNL     1      -6.051  -1.071 -33.097  1.00  0.00    -0.023 A 
HETATM   31  C   UNL     1      -6.636  -1.635 -34.250  1.00  0.00     0.009 A 
HETATM   32  C   UNL     1      -5.966  -2.602 -35.004  1.00  0.00     0.001 A 
HETATM   33  C   UNL     1      -4.696  -3.021 -34.627  1.00  0.00     0.000 A 
HETATM   34  C   UNL     1      -4.093  -2.472 -33.500  1.00  0.00     0.001 A 
HETATM   35  C   UNL     1      -4.763  -1.509 -32.741  1.00  0.00     0.009 A 
ENDBRANCH  29  30
BRANCH  29  36
HETATM   36  C   UNL     1      -8.086   0.583 -32.911  1.00  0.00    -0.023 A 
HETATM   37  C   UNL     1      -9.357   0.067 -32.569  1.00  0.00     0.009 A 
HETATM   38  C   UNL     1     -10.528   0.599 -33.113  1.00  0.00     0.001 A 
HETATM   39  C   UNL     1     -10.456   1.659 -34.008  1.00  0.00     0.000 A 
HETATM   40  C   UNL     1      -9.216   2.183 -34.359  1.00  0.00     0.001 A 
HETATM   41  C   UNL     1      -8.042   1.653 -33.816  1.00  0.00     0.009 A 
ENDBRANCH  29  36
ENDBRANCH   1  29
TORSDOF 8
ENDMDL
MODEL 3
REMARK VINA RESULT:     -10.3      2.611      3.998
REMARK  8 active torsions:
REMARK  status: ('A' for Active; 'I' for Inactive)
REMARK    1  A    between atoms: C_4  and  C_5 
REMARK    2  A    between atoms: C_5  and  N_6 
REMARK    3  A    between atoms: C_5  and  C_32 
REMARK       I    between atoms: N_10  and  C_11 
REMARK    4  A    between atoms: C_11  and  C_12 
REMARK    5  A    between atoms: C_13  and  N_14 
REMARK    6  A    between atoms: N_14  and  C_15 
REMARK    7  A    between atoms: C_15  and  N_16 
REMARK       I    between atoms: N_16  and  C_17 
REMARK    8  A    between atoms: C_17  and  C_18 
ROOT
HETATM    1  N   UNL     1      -5.627   0.822 -32.954  1.00  0.00    -0.056 N 
HETATM    2  H   UNL     1      -4.698   0.425 -33.128  1.00  0.00     0.281 HD
HETATM    3  C   UNL     1      -5.535   2.311 -33.294  1.00  0.00     0.256 C 
HETATM    4  C   UNL     1      -4.477   2.986 -32.407  1.00  0.00     0.154 C 
HETATM    5  N   UNL     1      -4.790   2.755 -30.996  1.00  0.00    -0.345 N 
HETATM    6  C   UNL     1      -5.639   3.590 -30.244  1.00  0.00     0.256 C 
HETATM    7  O   UNL     1      -6.226   3.170 -29.250  1.00  0.00    -0.267 OA
HETATM    8  C   UNL     1      -4.795   1.331 -30.634  1.00  0.00     0.154 C 
HETATM    9  C   UNL     1      -5.875   0.592 -31.457  1.00  0.00     0.256 C 
ENDROOT
BRANCH   6  10
HETATM   10  C   UNL     1      -5.982   4.939 -30.761  1.00  0.00     0.058 A 
HETATM   11  C   UNL     1      -5.125   6.054 -30.739  1.00  0.00     0.049 A 
HETATM   12  C   UNL     1      -5.459   7.177 -31.510  1.00  0.00     0.030 A 
HETATM   13  C   UNL     1      -6.667   7.229 -32.210  1.00  0.00     0.002 A 
HETATM   14  C   UNL     1      -7.549   6.154 -32.164  1.00  0.00     0.001 A 
HETATM   15  C   UNL     1      -7.206   5.008 -31.450  1.00  0.00     0.019 A 
BRANCH  11  16
HETATM   16  N   UNL     1      -3.899   6.124 -30.041  1.00  0.00    -0.337 N 
HETATM   17  H   UNL     1      -3.687   5.355 -29.415  1.00  0.00     0.168 HD
BRANCH  16  18
HETATM   18  C   UNL     1      -2.939   7.079 -30.094  1.00  0.00     0.157 C 
HETATM   19  S   UNL     1      -2.937   8.282 -28.931  1.00  0.00    -0.047 SA
BRANCH  18  20
HETATM   20  N   UNL     1      -1.911   7.018 -30.985  1.00  0.00    -0.199 NA
HETATM   21  C   UNL     1      -1.963   7.659 -32.220  1.00  0.00     0.261 C 
HETATM   22  O   UNL     1      -1.936   8.876 -32.365  1.00  0.00    -0.271 OA
HETATM   23  H   UNL     1      -1.640   6.044 -31.097  1.00  0.00     0.139 HD
BRANCH  21  24
HETATM   24  C   UNL     1      -2.004   6.745 -33.346  1.00  0.00     0.137 A 
HETATM   25  O   UNL     1      -0.850   6.475 -34.034  1.00  0.00    -0.318 OA
HETATM   26  C   UNL     1      -1.161   5.557 -34.987  1.00  0.00     0.143 A 
HETATM   27  C   UNL     1      -2.495   5.234 -34.929  1.00  0.00     0.027 A 
HETATM   28  C   UNL     1      -3.042   6.005 -33.877  1.00  0.00     0.044 A 
ENDBRANCH  21  24
ENDBRANCH  18  20
ENDBRANCH  16  18
ENDBRANCH  11  16
ENDBRANCH   6  10
BRANCH   1  29
HETATM   29  C   UNL     1      -6.550   0.078 -33.923  1.00  0.00     0.254 C 
BRANCH  29  30
HETATM   30  C   UNL     1      -8.040   0.364 -33.747  1.00  0.00    -0.023 A 
HETATM   31  C   UNL     1      -8.612   1.451 -34.440  1.00  0.00     0.009 A 
HETATM   32  C   UNL     1      -9.957   1.790 -34.275  1.00  0.00     0.001 A 
HETATM   33  C   UNL     1     -10.761   1.048 -33.419  1.00  0.00     0.000 A 
HETATM   34  C   UNL     1     -10.223  -0.036 -32.732  1.00  0.00     0.001 A 
HETATM   35  C   UNL     1      -8.877  -0.373 -32.892  1.00  0.00     0.009 A 
ENDBRANCH  29  30
BRANCH  29  36
HETATM   36  C   UNL     1      -6.101  -1.362 -34.166  1.00  0.00    -0.023 A 
HETATM   37  C   UNL     1      -4.765  -1.704 -33.855  1.00  0.00     0.009 A 
HETATM   38  C   UNL     1      -4.281  -2.997 -34.058  1.00  0.00     0.001 A 
HETATM   39  C   UNL     1      -5.118  -3.977 -34.574  1.00  0.00     0.000 A 
HETATM   40  C   UNL     1      -6.437  -3.664 -34.887  1.00  0.00     0.001 A 
HETATM   41  C   UNL     1      -6.927  -2.370 -34.685  1.00  0.00     0.009 A 
ENDBRANCH  29  36
ENDBRANCH   1  29
TORSDOF 8
ENDMDL
MODEL 4
REMARK VINA RESULT:     -10.1      1.636      2.403
REMARK  8 active torsions:
REMARK  status: ('A' for Active; 'I' for Inactive)
REMARK    1  A    between atoms: C_4  and  C_5 
REMARK    2  A    between atoms: C_5  and  N_6 
REMARK    3  A    between atoms: C_5  and  C_32 
REMARK       I    between atoms: N_10  and  C_11 
REMARK    4  A    between atoms: C_11  and  C_12 
REMARK    5  A    between atoms: C_13  and  N_14 
REMARK    6  A    between atoms: N_14  and  C_15 
REMARK    7  A    between atoms: C_15  and  N_16 
REMARK       I    between atoms: N_16  and  C_17 
REMARK    8  A    between atoms: C_17  and  C_18 
ROOT
HETATM    1  N   UNL     1      -5.663   1.033 -32.447  1.00  0.00    -0.056 N 
HETATM    2  H   UNL     1      -5.449   0.299 -31.765  1.00  0.00     0.281 HD
HETATM    3  C   UNL     1      -4.321   1.584 -32.932  1.00  0.00     0.256 C 
HETATM    4  C   UNL     1      -3.530   2.155 -31.744  1.00  0.00     0.154 C 
HETATM    5  N   UNL     1      -4.331   3.167 -31.053  1.00  0.00    -0.345 N 
HETATM    6  C   UNL     1      -4.343   4.527 -31.420  1.00  0.00     0.256 C 
HETATM    7  O   UNL     1      -5.299   5.250 -31.150  1.00  0.00    -0.267 OA
HETATM    8  C   UNL     1      -5.584   2.633 -30.505  1.00  0.00     0.154 C 
HETATM    9  C   UNL     1      -6.458   2.081 -31.656  1.00  0.00     0.256 C 
ENDROOT
BRANCH   6  10
HETATM   10  C   UNL     1      -3.276   5.054 -32.309  1.00  0.00     0.058 A 
HETATM   11  C   UNL     1      -1.937   5.259 -31.929  1.00  0.00     0.049 A 
HETATM   12  C   UNL     1      -0.980   5.483 -32.929  1.00  0.00     0.030 A 
HETATM   13  C   UNL     1      -1.359   5.599 -34.268  1.00  0.00     0.002 A 
HETATM   14  C   UNL     1      -2.697   5.476 -34.630  1.00  0.00     0.001 A 
HETATM   15  C   UNL     1      -3.654   5.195 -33.656  1.00  0.00     0.019 A 
BRANCH  11  16
HETATM   16  N   UNL     1      -1.449   5.199 -30.605  1.00  0.00    -0.337 N 
HETATM   17  H   UNL     1      -1.966   4.616 -29.955  1.00  0.00     0.168 HD
BRANCH  16  18
HETATM   18  C   UNL     1      -0.363   5.804 -30.066  1.00  0.00     0.157 C 
HETATM   19  S   UNL     1       0.923   4.856 -29.572  1.00  0.00    -0.047 SA
BRANCH  18  20
HETATM   20  N   UNL     1      -0.239   7.161 -30.029  1.00  0.00    -0.199 NA
HETATM   21  C   UNL     1      -0.900   7.937 -29.081  1.00  0.00     0.261 C 
HETATM   22  O   UNL     1      -0.630   7.942 -27.885  1.00  0.00    -0.271 OA
HETATM   23  H   UNL     1      -0.399   7.523 -30.965  1.00  0.00     0.139 HD
BRANCH  21  24
HETATM   24  C   UNL     1      -1.922   8.797 -29.647  1.00  0.00     0.137 A 
HETATM   25  O   UNL     1      -2.852   8.262 -30.502  1.00  0.00    -0.318 OA
HETATM   26  C   UNL     1      -3.711   9.262 -30.830  1.00  0.00     0.143 A 
HETATM   27  C   UNL     1      -3.351  10.433 -30.207  1.00  0.00     0.027 A 
HETATM   28  C   UNL     1      -2.193  10.137 -29.450  1.00  0.00     0.044 A 
ENDBRANCH  21  24
ENDBRANCH  18  20
ENDBRANCH  16  18
ENDBRANCH  11  16
ENDBRANCH   6  10
BRANCH   1  29
HETATM   29  C   UNL     1      -6.414   0.309 -33.568  1.00  0.00     0.254 C 
BRANCH  29  30
HETATM   30  C   UNL     1      -7.931   0.478 -33.547  1.00  0.00    -0.023 A 
HETATM   31  C   UNL     1      -8.516   1.490 -34.337  1.00  0.00     0.009 A 
HETATM   32  C   UNL     1      -9.893   1.723 -34.314  1.00  0.00     0.001 A 
HETATM   33  C   UNL     1     -10.717   0.947 -33.507  1.00  0.00     0.000 A 
HETATM   34  C   UNL     1     -10.166  -0.065 -32.727  1.00  0.00     0.001 A 
HETATM   35  C   UNL     1      -8.788  -0.296 -32.745  1.00  0.00     0.009 A 
ENDBRANCH  29  30
BRANCH  29  36
HETATM   36  C   UNL     1      -5.831  -1.072 -33.862  1.00  0.00    -0.023 A 
HETATM   37  C   UNL     1      -4.674  -1.471 -33.154  1.00  0.00     0.009 A 
HETATM   38  C   UNL     1      -4.080  -2.715 -33.374  1.00  0.00     0.001 A 
HETATM   39  C   UNL     1      -4.629  -3.589 -34.304  1.00  0.00     0.000 A 
HETATM   40  C   UNL     1      -5.768  -3.219 -35.011  1.00  0.00     0.001 A 
HETATM   41  C   UNL     1      -6.366  -1.974 -34.793  1.00  0.00     0.009 A 
ENDBRANCH  29  36
ENDBRANCH   1  29
TORSDOF 8
ENDMDL
MODEL 5
REMARK VINA RESULT:     -10.0      3.076      3.878
REMARK  8 active torsions:
REMARK  status: ('A' for Active; 'I' for Inactive)
REMARK    1  A    between atoms: C_4  and  C_5 
REMARK    2  A    between atoms: C_5  and  N_6 
REMARK    3  A    between atoms: C_5  and  C_32 
REMARK       I    between atoms: N_10  and  C_11 
REMARK    4  A    between atoms: C_11  and  C_12 
REMARK    5  A    between atoms: C_13  and  N_14 
REMARK    6  A    between atoms: N_14  and  C_15 
REMARK    7  A    between atoms: C_15  and  N_16 
REMARK       I    between atoms: N_16  and  C_17 
REMARK    8  A    between atoms: C_17  and  C_18 
ROOT
HETATM    1  N   UNL     1      -5.496   0.015 -32.659  1.00  0.00    -0.056 N 
HETATM    2  H   UNL     1      -5.069  -0.825 -32.256  1.00  0.00     0.281 HD
HETATM    3  C   UNL     1      -4.350   0.862 -33.218  1.00  0.00     0.256 C 
HETATM    4  C   UNL     1      -3.375   1.233 -32.088  1.00  0.00     0.154 C 
HETATM    5  N   UNL     1      -4.098   1.913 -31.011  1.00  0.00    -0.345 N 
HETATM    6  C   UNL     1      -4.317   3.304 -30.985  1.00  0.00     0.256 C 
HETATM    7  O   UNL     1      -5.255   3.787 -30.354  1.00  0.00    -0.267 OA
HETATM    8  C   UNL     1      -5.144   1.079 -30.405  1.00  0.00     0.154 C 
HETATM    9  C   UNL     1      -6.193   0.705 -31.479  1.00  0.00     0.256 C 
ENDROOT
BRANCH   6  10
HETATM   10  C   UNL     1      -3.526   4.187 -31.879  1.00  0.00     0.058 A 
HETATM   11  C   UNL     1      -4.059   4.963 -32.925  1.00  0.00     0.049 A 
HETATM   12  C   UNL     1      -3.259   5.961 -33.498  1.00  0.00     0.030 A 
HETATM   13  C   UNL     1      -1.926   6.119 -33.109  1.00  0.00     0.002 A 
HETATM   14  C   UNL     1      -1.380   5.295 -32.130  1.00  0.00     0.001 A 
HETATM   15  C   UNL     1      -2.178   4.337 -31.509  1.00  0.00     0.019 A 
BRANCH  11  16
HETATM   16  N   UNL     1      -5.378   4.865 -33.420  1.00  0.00    -0.337 N 
HETATM   17  H   UNL     1      -5.509   4.313 -34.261  1.00  0.00     0.168 HD
BRANCH  16  18
HETATM   18  C   UNL     1      -6.519   5.399 -32.922  1.00  0.00     0.157 C 
HETATM   19  S   UNL     1      -7.961   5.092 -33.714  1.00  0.00    -0.047 SA
BRANCH  18  20
HETATM   20  N   UNL     1      -6.544   6.070 -31.737  1.00  0.00    -0.199 NA
HETATM   21  C   UNL     1      -6.244   7.427 -31.650  1.00  0.00     0.261 C 
HETATM   22  O   UNL     1      -6.954   8.320 -32.101  1.00  0.00    -0.271 OA
HETATM   23  H   UNL     1      -6.008   5.540 -31.056  1.00  0.00     0.139 HD
BRANCH  21  24
HETATM   24  C   UNL     1      -5.020   7.704 -30.923  1.00  0.00     0.137 A 
HETATM   25  O   UNL     1      -4.695   6.933 -29.836  1.00  0.00    -0.318 OA
HETATM   26  C   UNL     1      -3.488   7.367 -29.389  1.00  0.00     0.143 A 
HETATM   27  C   UNL     1      -3.030   8.407 -30.162  1.00  0.00     0.027 A 
HETATM   28  C   UNL     1      -4.021   8.631 -31.148  1.00  0.00     0.044 A 
ENDBRANCH  21  24
ENDBRANCH  18  20
ENDBRANCH  16  18
ENDBRANCH  11  16
ENDBRANCH   6  10
BRANCH   1  29
HETATM   29  C   UNL     1      -6.402  -0.513 -33.775  1.00  0.00     0.254 C 
BRANCH  29  30
HETATM   30  C   UNL     1      -7.856  -0.053 -33.701  1.00  0.00    -0.023 A 
HETATM   31  C   UNL     1      -8.280   1.006 -34.530  1.00  0.00     0.009 A 
HETATM   32  C   UNL     1      -9.585   1.501 -34.465  1.00  0.00     0.001 A 
HETATM   33  C   UNL     1     -10.496   0.945 -33.575  1.00  0.00     0.000 A 
HETATM   34  C   UNL     1     -10.105  -0.108 -32.753  1.00  0.00     0.001 A 
HETATM   35  C   UNL     1      -8.799  -0.601 -32.813  1.00  0.00     0.009 A 
ENDBRANCH  29  30
BRANCH  29  36
HETATM   36  C   UNL     1      -6.108  -1.971 -34.123  1.00  0.00    -0.023 A 
HETATM   37  C   UNL     1      -4.787  -2.443 -33.950  1.00  0.00     0.009 A 
HETATM   38  C   UNL     1      -4.440  -3.761 -34.255  1.00  0.00     0.001 A 
HETATM   39  C   UNL     1      -5.405  -4.636 -34.737  1.00  0.00     0.000 A 
HETATM   40  C   UNL     1      -6.712  -4.194 -34.915  1.00  0.00     0.001 A 
HETATM   41  C   UNL     1      -7.063  -2.875 -34.610  1.00  0.00     0.009 A 
ENDBRANCH  29  36
ENDBRANCH   1  29
TORSDOF 8
ENDMDL
MODEL 6
REMARK VINA RESULT:     -10.0      1.916      3.049
REMARK  8 active torsions:
REMARK  status: ('A' for Active; 'I' for Inactive)
REMARK    1  A    between atoms: C_4  and  C_5 
REMARK    2  A    between atoms: C_5  and  N_6 
REMARK    3  A    between atoms: C_5  and  C_32 
REMARK       I    between atoms: N_10  and  C_11 
REMARK    4  A    between atoms: C_11  and  C_12 
REMARK    5  A    between atoms: C_13  and  N_14 
REMARK    6  A    between atoms: N_14  and  C_15 
REMARK    7  A    between atoms: C_15  and  N_16 
REMARK       I    between atoms: N_16  and  C_17 
REMARK    8  A    between atoms: C_17  and  C_18 
ROOT
HETATM    1  N   UNL     1      -5.800   1.527 -32.282  1.00  0.00    -0.056 N 
HETATM    2  H   UNL     1      -5.646   0.828 -31.548  1.00  0.00     0.281 HD
HETATM    3  C   UNL     1      -4.419   2.048 -32.685  1.00  0.00     0.256 C 
HETATM    4  C   UNL     1      -3.722   2.678 -31.468  1.00  0.00     0.154 C 
HETATM    5  N   UNL     1      -4.569   3.727 -30.898  1.00  0.00    -0.345 N 
HETATM    6  C   UNL     1      -4.542   5.066 -31.334  1.00  0.00     0.256 C 
HETATM    7  O   UNL     1      -5.512   5.805 -31.179  1.00  0.00    -0.267 OA
HETATM    8  C   UNL     1      -5.866   3.225 -30.425  1.00  0.00     0.154 C 
HETATM    9  C   UNL     1      -6.648   2.616 -31.612  1.00  0.00     0.256 C 
ENDROOT
BRANCH   6  10
HETATM   10  C   UNL     1      -3.405   5.544 -32.160  1.00  0.00     0.058 A 
HETATM   11  C   UNL     1      -2.099   5.763 -31.685  1.00  0.00     0.049 A 
HETATM   12  C   UNL     1      -1.063   5.933 -32.615  1.00  0.00     0.030 A 
HETATM   13  C   UNL     1      -1.334   5.981 -33.985  1.00  0.00     0.002 A 
HETATM   14  C   UNL     1      -2.640   5.844 -34.445  1.00  0.00     0.001 A 
HETATM   15  C   UNL     1      -3.673   5.616 -33.538  1.00  0.00     0.019 A 
BRANCH  11  16
HETATM   16  N   UNL     1      -1.718   5.769 -30.326  1.00  0.00    -0.337 N 
HETATM   17  H   UNL     1      -1.597   4.864 -29.882  1.00  0.00     0.168 HD
BRANCH  16  18
HETATM   18  C   UNL     1      -1.472   6.824 -29.511  1.00  0.00     0.157 C 
HETATM   19  S   UNL     1       0.117   7.218 -29.165  1.00  0.00    -0.047 SA
BRANCH  18  20
HETATM   20  N   UNL     1      -2.468   7.641 -29.070  1.00  0.00    -0.199 NA
HETATM   21  C   UNL     1      -3.048   7.487 -27.813  1.00  0.00     0.261 C 
HETATM   22  O   UNL     1      -2.472   7.720 -26.756  1.00  0.00    -0.271 OA
HETATM   23  H   UNL     1      -3.183   7.695 -29.791  1.00  0.00     0.139 HD
BRANCH  21  24
HETATM   24  C   UNL     1      -4.435   7.067 -27.863  1.00  0.00     0.137 A 
HETATM   25  O   UNL     1      -5.394   7.960 -28.267  1.00  0.00    -0.318 OA
HETATM   26  C   UNL     1      -6.579   7.294 -28.276  1.00  0.00     0.143 A 
HETATM   27  C   UNL     1      -6.403   5.990 -27.880  1.00  0.00     0.027 A 
HETATM   28  C   UNL     1      -5.023   5.844 -27.606  1.00  0.00     0.044 A 
ENDBRANCH  21  24
ENDBRANCH  18  20
ENDBRANCH  16  18
ENDBRANCH  11  16
ENDBRANCH   6  10
BRANCH   1  29
HETATM   29  C   UNL     1      -6.463   0.747 -33.421  1.00  0.00     0.254 C 
BRANCH  29  30
HETATM   30  C   UNL     1      -7.988   0.820 -33.454  1.00  0.00    -0.023 A 
HETATM   31  C   UNL     1      -8.731  -0.062 -32.641  1.00  0.00     0.009 A 
HETATM   32  C   UNL     1     -10.127  -0.074 -32.671  1.00  0.00     0.001 A 
HETATM   33  C   UNL     1     -10.812   0.798 -33.509  1.00  0.00     0.000 A 
HETATM   34  C   UNL     1     -10.103   1.685 -34.313  1.00  0.00     0.001 A 
HETATM   35  C   UNL     1      -8.706   1.695 -34.287  1.00  0.00     0.009 A 
ENDBRANCH  29  30
BRANCH  29  36
HETATM   36  C   UNL     1      -5.785  -0.597 -33.679  1.00  0.00    -0.023 A 
HETATM   37  C   UNL     1      -6.291  -1.410 -34.719  1.00  0.00     0.009 A 
HETATM   38  C   UNL     1      -5.728  -2.654 -35.008  1.00  0.00     0.001 A 
HETATM   39  C   UNL     1      -4.647  -3.113 -34.267  1.00  0.00     0.000 A 
HETATM   40  C   UNL     1      -4.131  -2.330 -33.239  1.00  0.00     0.001 A 
HETATM   41  C   UNL     1      -4.692  -1.083 -32.947  1.00  0.00     0.009 A 
ENDBRANCH  29  36
ENDBRANCH   1  29
TORSDOF 8
ENDMDL
MODEL 7
REMARK VINA RESULT:      -9.9      1.839      2.455
REMARK  8 active torsions:
REMARK  status: ('A' for Active; 'I' for Inactive)
REMARK    1  A    between atoms: C_4  and  C_5 
REMARK    2  A    between atoms: C_5  and  N_6 
REMARK    3  A    between atoms: C_5  and  C_32 
REMARK       I    between atoms: N_10  and  C_11 
REMARK    4  A    between atoms: C_11  and  C_12 
REMARK    5  A    between atoms: C_13  and  N_14 
REMARK    6  A    between atoms: N_14  and  C_15 
REMARK    7  A    between atoms: C_15  and  N_16 
REMARK       I    between atoms: N_16  and  C_17 
REMARK    8  A    between atoms: C_17  and  C_18 
ROOT
HETATM    1  N   UNL     1      -5.243   0.131 -33.076  1.00  0.00    -0.056 N 
HETATM    2  H   UNL     1      -4.379  -0.396 -33.238  1.00  0.00     0.281 HD
HETATM    3  C   UNL     1      -4.943   1.586 -33.444  1.00  0.00     0.256 C 
HETATM    4  C   UNL     1      -3.804   2.123 -32.562  1.00  0.00     0.154 C 
HETATM    5  N   UNL     1      -4.151   1.965 -31.149  1.00  0.00    -0.345 N 
HETATM    6  C   UNL     1      -4.878   2.925 -30.419  1.00  0.00     0.256 C 
HETATM    7  O   UNL     1      -5.521   2.611 -29.420  1.00  0.00    -0.267 OA
HETATM    8  C   UNL     1      -4.357   0.563 -30.761  1.00  0.00     0.154 C 
HETATM    9  C   UNL     1      -5.527  -0.033 -31.577  1.00  0.00     0.256 C 
ENDROOT
BRANCH   6  10
HETATM   10  C   UNL     1      -5.027   4.299 -30.963  1.00  0.00     0.058 A 
HETATM   11  C   UNL     1      -3.965   5.187 -31.212  1.00  0.00     0.049 A 
HETATM   12  C   UNL     1      -4.211   6.330 -31.987  1.00  0.00     0.030 A 
HETATM   13  C   UNL     1      -5.503   6.634 -32.422  1.00  0.00     0.002 A 
HETATM   14  C   UNL     1      -6.565   5.792 -32.104  1.00  0.00     0.001 A 
HETATM   15  C   UNL     1      -6.328   4.623 -31.384  1.00  0.00     0.019 A 
BRANCH  11  16
HETATM   16  N   UNL     1      -2.630   4.998 -30.793  1.00  0.00    -0.337 N 
HETATM   17  H   UNL     1      -2.299   4.040 -30.745  1.00  0.00     0.168 HD
BRANCH  16  18
HETATM   18  C   UNL     1      -1.702   5.924 -30.451  1.00  0.00     0.157 C 
HETATM   19  S   UNL     1      -0.445   6.232 -31.511  1.00  0.00    -0.047 SA
BRANCH  18  20
HETATM   20  N   UNL     1      -1.830   6.693 -29.334  1.00  0.00    -0.199 NA
HETATM   21  C   UNL     1      -1.557   8.058 -29.341  1.00  0.00     0.261 C 
HETATM   22  O   UNL     1      -2.241   8.895 -29.920  1.00  0.00    -0.271 OA
HETATM   23  H   UNL     1      -1.342   6.233 -28.569  1.00  0.00     0.139 HD
BRANCH  21  24
HETATM   24  C   UNL     1      -0.398   8.421 -28.548  1.00  0.00     0.137 A 
HETATM   25  O   UNL     1      -0.527   9.363 -27.560  1.00  0.00    -0.318 OA
HETATM   26  C   UNL     1       0.680   9.464 -26.946  1.00  0.00     0.143 A 
HETATM   27  C   UNL     1       1.589   8.609 -27.523  1.00  0.00     0.027 A 
HETATM   28  C   UNL     1       0.897   7.941 -28.560  1.00  0.00     0.044 A 
ENDBRANCH  21  24
ENDBRANCH  18  20
ENDBRANCH  16  18
ENDBRANCH  11  16
ENDBRANCH   6  10
BRANCH   1  29
HETATM   29  C   UNL     1      -6.259  -0.495 -34.037  1.00  0.00     0.254 C 
BRANCH  29  30
HETATM   30  C   UNL     1      -7.698  -0.019 -33.859  1.00  0.00    -0.023 A 
HETATM   31  C   UNL     1      -8.416  -0.429 -32.716  1.00  0.00     0.009 A 
HETATM   32  C   UNL     1      -9.752  -0.067 -32.528  1.00  0.00     0.001 A 
HETATM   33  C   UNL     1     -10.398   0.719 -33.475  1.00  0.00     0.000 A 
HETATM   34  C   UNL     1      -9.710   1.146 -34.606  1.00  0.00     0.001 A 
HETATM   35  C   UNL     1      -8.375   0.779 -34.798  1.00  0.00     0.009 A 
ENDBRANCH  29  30
BRANCH  29  36
HETATM   36  C   UNL     1      -5.999  -1.982 -34.272  1.00  0.00    -0.023 A 
HETATM   37  C   UNL     1      -4.683  -2.465 -34.087  1.00  0.00     0.009 A 
HETATM   38  C   UNL     1      -4.368  -3.810 -34.290  1.00  0.00     0.001 A 
HETATM   39  C   UNL     1      -5.358  -4.702 -34.681  1.00  0.00     0.000 A 
HETATM   40  C   UNL     1      -6.661  -4.249 -34.868  1.00  0.00     0.001 A 
HETATM   41  C   UNL     1      -6.980  -2.903 -34.664  1.00  0.00     0.009 A 
ENDBRANCH  29  36
ENDBRANCH   1  29
TORSDOF 8
ENDMDL
MODEL 8
REMARK VINA RESULT:      -9.8      3.214      5.043
REMARK  8 active torsions:
REMARK  status: ('A' for Active; 'I' for Inactive)
REMARK    1  A    between atoms: C_4  and  C_5 
REMARK    2  A    between atoms: C_5  and  N_6 
REMARK    3  A    between atoms: C_5  and  C_32 
REMARK       I    between atoms: N_10  and  C_11 
REMARK    4  A    between atoms: C_11  and  C_12 
REMARK    5  A    between atoms: C_13  and  N_14 
REMARK    6  A    between atoms: N_14  and  C_15 
REMARK    7  A    between atoms: C_15  and  N_16 
REMARK       I    between atoms: N_16  and  C_17 
REMARK    8  A    between atoms: C_17  and  C_18 
ROOT
HETATM    1  N   UNL     1      -5.568  -0.346 -32.040  1.00  0.00    -0.056 N 
HETATM    2  H   UNL     1      -4.990  -1.075 -31.609  1.00  0.00     0.281 HD
HETATM    3  C   UNL     1      -4.671   0.387 -33.039  1.00  0.00     0.256 C 
HETATM    4  C   UNL     1      -3.467   1.004 -32.308  1.00  0.00     0.154 C 
HETATM    5  N   UNL     1      -3.934   1.879 -31.232  1.00  0.00    -0.345 N 
HETATM    6  C   UNL     1      -4.242   3.241 -31.421  1.00  0.00     0.256 C 
HETATM    7  O   UNL     1      -5.017   3.827 -30.669  1.00  0.00    -0.267 OA
HETATM    8  C   UNL     1      -4.724   1.171 -30.217  1.00  0.00     0.154 C 
HETATM    9  C   UNL     1      -5.984   0.562 -30.874  1.00  0.00     0.256 C 
ENDROOT
BRANCH   6  10
HETATM   10  C   UNL     1      -3.776   3.933 -32.649  1.00  0.00     0.058 A 
HETATM   11  C   UNL     1      -4.617   4.513 -33.616  1.00  0.00     0.049 A 
HETATM   12  C   UNL     1      -4.054   5.377 -34.567  1.00  0.00     0.030 A 
HETATM   13  C   UNL     1      -2.673   5.582 -34.617  1.00  0.00     0.002 A 
HETATM   14  C   UNL     1      -1.837   4.942 -33.707  1.00  0.00     0.001 A 
HETATM   15  C   UNL     1      -2.385   4.127 -32.719  1.00  0.00     0.019 A 
BRANCH  11  16
HETATM   16  N   UNL     1      -6.017   4.348 -33.682  1.00  0.00    -0.337 N 
HETATM   17  H   UNL     1      -6.357   3.526 -34.171  1.00  0.00     0.168 HD
BRANCH  16  18
HETATM   18  C   UNL     1      -6.995   5.131 -33.167  1.00  0.00     0.157 C 
HETATM   19  S   UNL     1      -8.462   5.215 -33.967  1.00  0.00    -0.047 SA
BRANCH  18  20
HETATM   20  N   UNL     1      -6.863   5.750 -31.961  1.00  0.00    -0.199 NA
HETATM   21  C   UNL     1      -6.423   7.067 -31.850  1.00  0.00     0.261 C 
HETATM   22  O   UNL     1      -7.073   8.042 -32.211  1.00  0.00    -0.271 OA
HETATM   23  H   UNL     1      -6.332   5.142 -31.344  1.00  0.00     0.139 HD
BRANCH  21  24
HETATM   24  C   UNL     1      -5.126   7.193 -31.214  1.00  0.00     0.137 A 
HETATM   25  O   UNL     1      -4.989   6.854 -29.893  1.00  0.00    -0.318 OA
HETATM   26  C   UNL     1      -3.677   7.010 -29.576  1.00  0.00     0.143 A 
HETATM   27  C   UNL     1      -2.965   7.448 -30.667  1.00  0.00     0.027 A 
HETATM   28  C   UNL     1      -3.899   7.574 -31.722  1.00  0.00     0.044 A 
ENDBRANCH  21  24
ENDBRANCH  18  20
ENDBRANCH  16  18
ENDBRANCH  11  16
ENDBRANCH   6  10
BRANCH   1  29
HETATM   29  C   UNL     1      -6.691  -1.112 -32.745  1.00  0.00     0.254 C 
BRANCH  29  30
HETATM   30  C   UNL     1      -6.226  -2.226 -33.680  1.00  0.00    -0.023 A 
HETATM   31  C   UNL     1      -7.195  -3.012 -34.339  1.00  0.00     0.009 A 
HETATM   32  C   UNL     1      -6.827  -4.078 -35.163  1.00  0.00     0.001 A 
HETATM   33  C   UNL     1      -5.483  -4.378 -35.353  1.00  0.00     0.000 A 
HETATM   34  C   UNL     1      -4.508  -3.612 -34.723  1.00  0.00     0.001 A 
HETATM   35  C   UNL     1      -4.875  -2.548 -33.893  1.00  0.00     0.009 A 
ENDBRANCH  29  30
BRANCH  29  36
HETATM   36  C   UNL     1      -7.825  -0.195 -33.199  1.00  0.00    -0.023 A 
HETATM   37  C   UNL     1      -7.591   0.659 -34.301  1.00  0.00     0.009 A 
HETATM   38  C   UNL     1      -8.577   1.530 -34.767  1.00  0.00     0.001 A 
HETATM   39  C   UNL     1      -9.819   1.566 -34.145  1.00  0.00     0.000 A 
HETATM   40  C   UNL     1     -10.072   0.734 -33.060  1.00  0.00     0.001 A 
HETATM   41  C   UNL     1      -9.087  -0.141 -32.591  1.00  0.00     0.009 A 
ENDBRANCH  29  36
ENDBRANCH   1  29
TORSDOF 8
ENDMDL
MODEL 9
REMARK VINA RESULT:      -9.8      3.710      4.686
REMARK  8 active torsions:
REMARK  status: ('A' for Active; 'I' for Inactive)
REMARK    1  A    between atoms: C_4  and  C_5 
REMARK    2  A    between atoms: C_5  and  N_6 
REMARK    3  A    between atoms: C_5  and  C_32 
REMARK       I    between atoms: N_10  and  C_11 
REMARK    4  A    between atoms: C_11  and  C_12 
REMARK    5  A    between atoms: C_13  and  N_14 
REMARK    6  A    between atoms: N_14  and  C_15 
REMARK    7  A    between atoms: C_15  and  N_16 
REMARK       I    between atoms: N_16  and  C_17 
REMARK    8  A    between atoms: C_17  and  C_18 
ROOT
HETATM    1  N   UNL     1      -5.277   0.138 -32.873  1.00  0.00    -0.056 N 
HETATM    2  H   UNL     1      -4.451  -0.470 -32.877  1.00  0.00     0.281 HD
HETATM    3  C   UNL     1      -4.800   1.525 -33.308  1.00  0.00     0.256 C 
HETATM    4  C   UNL     1      -3.735   2.043 -32.328  1.00  0.00     0.154 C 
HETATM    5  N   UNL     1      -4.270   2.039 -30.965  1.00  0.00    -0.345 N 
HETATM    6  C   UNL     1      -4.990   3.117 -30.414  1.00  0.00     0.256 C 
HETATM    7  O   UNL     1      -5.780   2.946 -29.488  1.00  0.00    -0.267 OA
HETATM    8  C   UNL     1      -4.651   0.699 -30.501  1.00  0.00     0.154 C 
HETATM    9  C   UNL     1      -5.760   0.131 -31.417  1.00  0.00     0.256 C 
ENDROOT
BRANCH   6  10
HETATM   10  C   UNL     1      -4.942   4.445 -31.077  1.00  0.00     0.058 A 
HETATM   11  C   UNL     1      -6.045   5.097 -31.657  1.00  0.00     0.049 A 
HETATM   12  C   UNL     1      -5.927   6.455 -31.987  1.00  0.00     0.030 A 
HETATM   13  C   UNL     1      -4.710   7.124 -31.836  1.00  0.00     0.002 A 
HETATM   14  C   UNL     1      -3.599   6.451 -31.337  1.00  0.00     0.001 A 
HETATM   15  C   UNL     1      -3.715   5.118 -30.948  1.00  0.00     0.019 A 
BRANCH  11  16
HETATM   16  N   UNL     1      -7.309   4.511 -31.886  1.00  0.00    -0.337 N 
HETATM   17  H   UNL     1      -7.417   3.983 -32.747  1.00  0.00     0.168 HD
BRANCH  16  18
HETATM   18  C   UNL     1      -8.418   4.537 -31.108  1.00  0.00     0.157 C 
HETATM   19  S   UNL     1      -9.901   4.216 -31.812  1.00  0.00    -0.047 SA
BRANCH  18  20
HETATM   20  N   UNL     1      -8.346   4.695 -29.757  1.00  0.00    -0.199 NA
HETATM   21  C   UNL     1      -8.398   5.949 -29.155  1.00  0.00     0.261 C 
HETATM   22  O   UNL     1      -9.399   6.656 -29.123  1.00  0.00    -0.271 OA
HETATM   23  H   UNL     1      -7.550   4.164 -29.413  1.00  0.00     0.139 HD
BRANCH  21  24
HETATM   24  C   UNL     1      -7.156   6.335 -28.513  1.00  0.00     0.137 A 
HETATM   25  O   UNL     1      -6.473   5.414 -27.761  1.00  0.00    -0.318 OA
HETATM   26  C   UNL     1      -5.334   6.017 -27.333  1.00  0.00     0.143 A 
HETATM   27  C   UNL     1      -5.271   7.312 -27.789  1.00  0.00     0.027 A 
HETATM   28  C   UNL     1      -6.449   7.521 -28.545  1.00  0.00     0.044 A 
ENDBRANCH  21  24
ENDBRANCH  18  20
ENDBRANCH  16  18
ENDBRANCH  11  16
ENDBRANCH   6  10
BRANCH   1  29
HETATM   29  C   UNL     1      -6.217  -0.485 -33.909  1.00  0.00     0.254 C 
BRANCH  29  30
HETATM   30  C   UNL     1      -7.680  -0.064 -33.792  1.00  0.00    -0.023 A 
HETATM   31  C   UNL     1      -8.181   0.913 -34.678  1.00  0.00     0.009 A 
HETATM   32  C   UNL     1      -9.496   1.374 -34.581  1.00  0.00     0.001 A 
HETATM   33  C   UNL     1     -10.341   0.864 -33.603  1.00  0.00     0.000 A 
HETATM   34  C   UNL     1      -9.875  -0.109 -32.724  1.00  0.00     0.001 A 
HETATM   35  C   UNL     1      -8.557  -0.566 -32.816  1.00  0.00     0.009 A 
ENDBRANCH  29  30
BRANCH  29  36
HETATM   36  C   UNL     1      -5.893  -1.953 -34.181  1.00  0.00    -0.023 A 
HETATM   37  C   UNL     1      -6.928  -2.785 -34.665  1.00  0.00     0.009 A 
HETATM   38  C   UNL     1      -6.710  -4.139 -34.929  1.00  0.00     0.001 A 
HETATM   39  C   UNL     1      -5.453  -4.691 -34.716  1.00  0.00     0.000 A 
HETATM   40  C   UNL     1      -4.419  -3.891 -34.241  1.00  0.00     0.001 A 
HETATM   41  C   UNL     1      -4.634  -2.535 -33.977  1.00  0.00     0.009 A 
ENDBRANCH  29  36
ENDBRANCH   1  29
TORSDOF 8
ENDMDL
MODEL 10
REMARK VINA RESULT:      -9.6      2.682      4.928
REMARK  8 active torsions:
REMARK  status: ('A' for Active; 'I' for Inactive)
REMARK    1  A    between atoms: C_4  and  C_5 
REMARK    2  A    between atoms: C_5  and  N_6 
REMARK    3  A    between atoms: C_5  and  C_32 
REMARK       I    between atoms: N_10  and  C_11 
REMARK    4  A    between atoms: C_11  and  C_12 
REMARK    5  A    between atoms: C_13  and  N_14 
REMARK    6  A    between atoms: N_14  and  C_15 
REMARK    7  A    between atoms: C_15  and  N_16 
REMARK       I    between atoms: N_16  and  C_17 
REMARK    8  A    between atoms: C_17  and  C_18 
ROOT
HETATM    1  N   UNL     1      -7.516   3.271 -33.467  1.00  0.00    -0.056 N 
HETATM    2  H   UNL     1      -8.010   3.690 -34.261  1.00  0.00     0.281 HD
HETATM    3  C   UNL     1      -7.697   4.227 -32.286  1.00  0.00     0.256 C 
HETATM    4  C   UNL     1      -7.106   5.604 -32.632  1.00  0.00     0.154 C 
HETATM    5  N   UNL     1      -5.703   5.459 -33.022  1.00  0.00    -0.345 N 
HETATM    6  C   UNL     1      -4.638   5.475 -32.099  1.00  0.00     0.256 C 
HETATM    7  O   UNL     1      -3.566   4.934 -32.358  1.00  0.00    -0.267 OA
HETATM    8  C   UNL     1      -5.520   4.614 -34.208  1.00  0.00     0.154 C 
HETATM    9  C   UNL     1      -6.051   3.191 -33.917  1.00  0.00     0.256 C 
ENDROOT
BRANCH   6  10
HETATM   10  C   UNL     1      -4.869   5.984 -30.724  1.00  0.00     0.058 A 
HETATM   11  C   UNL     1      -4.940   7.344 -30.368  1.00  0.00     0.049 A 
HETATM   12  C   UNL     1      -5.445   7.684 -29.105  1.00  0.00     0.030 A 
HETATM   13  C   UNL     1      -5.780   6.693 -28.179  1.00  0.00     0.002 A 
HETATM   14  C   UNL     1      -5.632   5.349 -28.508  1.00  0.00     0.001 A 
HETATM   15  C   UNL     1      -5.187   4.993 -29.779  1.00  0.00     0.019 A 
BRANCH  11  16
HETATM   16  N   UNL     1      -4.596   8.424 -31.210  1.00  0.00    -0.337 N 
HETATM   17  H   UNL     1      -5.071   8.473 -32.106  1.00  0.00     0.168 HD
BRANCH  16  18
HETATM   18  C   UNL     1      -3.719   9.433 -30.991  1.00  0.00     0.157 C 
HETATM   19  S   UNL     1      -4.291  10.871 -30.355  1.00  0.00    -0.047 SA
BRANCH  18  20
HETATM   20  N   UNL     1      -2.377   9.269 -31.156  1.00  0.00    -0.199 NA
HETATM   21  C   UNL     1      -1.848   8.268 -31.965  1.00  0.00     0.261 C 
HETATM   22  O   UNL     1      -1.938   8.251 -33.188  1.00  0.00    -0.271 OA
HETATM   23  H   UNL     1      -1.939   9.258 -30.238  1.00  0.00     0.139 HD
BRANCH  21  24
HETATM   24  C   UNL     1      -1.124   7.250 -31.228  1.00  0.00     0.137 A 
HETATM   25  O   UNL     1      -0.267   6.415 -31.899  1.00  0.00    -0.318 OA
HETATM   26  C   UNL     1       0.313   5.611 -30.970  1.00  0.00     0.143 A 
HETATM   27  C   UNL     1      -0.157   5.907 -29.713  1.00  0.00     0.027 A 
HETATM   28  C   UNL     1      -1.089   6.959 -29.878  1.00  0.00     0.044 A 
ENDBRANCH  21  24
ENDBRANCH  18  20
ENDBRANCH  16  18
ENDBRANCH  11  16
ENDBRANCH   6  10
BRANCH   1  29
HETATM   29  C   UNL     1      -8.233   1.939 -33.229  1.00  0.00     0.254 C 
BRANCH  29  30
HETATM   30  C   UNL     1      -7.390   0.693 -33.496  1.00  0.00    -0.023 A 
HETATM   31  C   UNL     1      -7.456   0.085 -34.767  1.00  0.00     0.009 A 
HETATM   32  C   UNL     1      -6.748  -1.086 -35.048  1.00  0.00     0.001 A 
HETATM   33  C   UNL     1      -5.954  -1.670 -34.069  1.00  0.00     0.000 A 
HETATM   34  C   UNL     1      -5.863  -1.084 -32.811  1.00  0.00     0.001 A 
HETATM   35  C   UNL     1      -6.575   0.085 -32.526  1.00  0.00     0.009 A 
ENDBRANCH  29  30
BRANCH  29  36
HETATM   36  C   UNL     1      -9.682   1.964 -33.709  1.00  0.00    -0.023 A 
HETATM   37  C   UNL     1     -10.538   0.916 -33.298  1.00  0.00     0.009 A 
HETATM   38  C   UNL     1     -11.873   0.867 -33.703  1.00  0.00     0.001 A 
HETATM   39  C   UNL     1     -12.384   1.863 -34.525  1.00  0.00     0.000 A 
HETATM   40  C   UNL     1     -11.561   2.905 -34.941  1.00  0.00     0.001 A 
HETATM   41  C   UNL     1     -10.223   2.957 -34.537  1.00  0.00     0.009 A 
ENDBRANCH  29  36
ENDBRANCH   1  29
TORSDOF 8
ENDMDL
