MODEL 1
REMARK VINA RESULT:      -8.0      0.000      0.000
REMARK  5 active torsions:
REMARK  status: ('A' for Active; 'I' for Inactive)
REMARK    1  A    between atoms: C_9  and  C_10 
REMARK    2  A    between atoms: C_10  and  N_11 
REMARK    3  A    between atoms: N_11  and  C_14 
REMARK    4  A    between atoms: C_14  and  C_15 
REMARK    5  A    between atoms: C_16  and  C_17 
ROOT
HETATM    1  C   UNL     1      -6.338  -0.090 -34.329  1.00  0.00    -0.036 A 
HETATM    2  C   UNL     1      -5.145  -0.529 -33.745  1.00  0.00     0.013 A 
HETATM    3  C   UNL     1      -4.797  -1.882 -33.789  1.00  0.00     0.023 A 
HETATM    4  C   UNL     1      -5.643  -2.806 -34.410  1.00  0.00     0.044 A 
HETATM    5  C   UNL     1      -5.282  -4.193 -34.458  1.00  0.00     0.099 C 
HETATM    6  N   UNL     1      -4.984  -5.313 -34.498  1.00  0.00    -0.191 NA
HETATM    7  C   UNL     1      -6.839  -2.369 -34.988  1.00  0.00     0.023 A 
HETATM    8  C   UNL     1      -7.186  -1.015 -34.948  1.00  0.00     0.013 A 
ENDROOT
BRANCH   1   9
HETATM    9  C   UNL     1      -6.681   1.332 -34.297  1.00  0.00     0.009 C 
HETATM   10  C   UNL     1      -6.022   2.184 -33.495  1.00  0.00     0.001 C 
BRANCH  10  11
HETATM   11  C   UNL     1      -6.313   3.642 -33.403  1.00  0.00     0.259 C 
BRANCH  11  12
HETATM   12  N   UNL     1      -7.737   3.907 -33.744  1.00  0.00    -0.071 N 
HETATM   13  H   UNL     1      -8.219   2.994 -33.768  1.00  0.00     0.277 HD
HETATM   14  H   UNL     1      -7.768   4.263 -34.710  1.00  0.00     0.277 HD
BRANCH  12  15
HETATM   15  C   UNL     1      -8.431   4.866 -32.827  1.00  0.00     0.242 C 
BRANCH  15  16
HETATM   16  C   UNL     1      -9.476   4.197 -31.902  1.00  0.00     0.055 C 
HETATM   17  C   UNL     1      -9.658   2.723 -32.201  1.00  0.00    -0.025 A 
HETATM   18  C   UNL     1     -10.462   2.295 -33.264  1.00  0.00     0.010 A 
HETATM   19  C   UNL     1      -8.980   1.765 -31.428  1.00  0.00     0.041 A 
HETATM   20  C   UNL     1     -10.575   0.934 -33.549  1.00  0.00     0.001 A 
HETATM   21  C   UNL     1      -9.886  -0.006 -32.782  1.00  0.00     0.002 A 
HETATM   22  C   UNL     1      -9.082   0.408 -31.721  1.00  0.00     0.030 A 
HETATM   23  N   UNL     1      -8.128   2.188 -30.402  1.00  0.00    -0.327 N 
HETATM   24  C   UNL     1      -8.029   3.493 -30.007  1.00  0.00     0.222 C 
HETATM   25  H   UNL     1      -7.484   1.529 -29.976  1.00  0.00     0.169 HD
HETATM   26  O   UNL     1      -7.022   3.928 -29.460  1.00  0.00    -0.273 OA
HETATM   27  C   UNL     1      -9.167   4.389 -30.420  1.00  0.00     0.114 C 
ENDBRANCH  15  16
ENDBRANCH  12  15
ENDBRANCH  11  12
ENDBRANCH  10  11
ENDBRANCH   1   9
TORSDOF 5
ENDMDL
MODEL 2
REMARK VINA RESULT:      -7.7      3.589      5.792
REMARK  5 active torsions:
REMARK  status: ('A' for Active; 'I' for Inactive)
REMARK    1  A    between atoms: C_9  and  C_10 
REMARK    2  A    between atoms: C_10  and  N_11 
REMARK    3  A    between atoms: N_11  and  C_14 
REMARK    4  A    between atoms: C_14  and  C_15 
REMARK    5  A    between atoms: C_16  and  C_17 
ROOT
HETATM    1  C   UNL     1      -5.907   0.023 -33.846  1.00  0.00    -0.036 A 
HETATM    2  C   UNL     1      -6.990  -0.538 -34.533  1.00  0.00     0.013 A 
HETATM    3  C   UNL     1      -6.974  -1.890 -34.886  1.00  0.00     0.023 A 
HETATM    4  C   UNL     1      -5.874  -2.689 -34.559  1.00  0.00     0.044 A 
HETATM    5  C   UNL     1      -5.863  -4.078 -34.917  1.00  0.00     0.099 C 
HETATM    6  N   UNL     1      -5.859  -5.201 -35.206  1.00  0.00    -0.191 NA
HETATM    7  C   UNL     1      -4.790  -2.129 -33.877  1.00  0.00     0.023 A 
HETATM    8  C   UNL     1      -4.806  -0.777 -33.521  1.00  0.00     0.013 A 
ENDROOT
BRANCH   1   9
HETATM    9  C   UNL     1      -5.945   1.434 -33.462  1.00  0.00     0.009 C 
HETATM   10  C   UNL     1      -6.788   2.291 -34.060  1.00  0.00     0.001 C 
BRANCH  10  11
HETATM   11  C   UNL     1      -6.883   3.741 -33.728  1.00  0.00     0.259 C 
BRANCH  11  12
HETATM   12  N   UNL     1      -5.744   4.484 -34.331  1.00  0.00    -0.071 N 
HETATM   13  H   UNL     1      -6.145   5.188 -34.971  1.00  0.00     0.277 HD
HETATM   14  H   UNL     1      -5.222   3.829 -34.931  1.00  0.00     0.277 HD
BRANCH  12  15
HETATM   15  C   UNL     1      -4.815   5.114 -33.340  1.00  0.00     0.242 C 
BRANCH  15  16
HETATM   16  C   UNL     1      -3.337   4.689 -33.515  1.00  0.00     0.055 C 
HETATM   17  C   UNL     1      -2.375   5.631 -32.820  1.00  0.00    -0.025 A 
HETATM   18  C   UNL     1      -1.999   6.843 -33.410  1.00  0.00     0.010 A 
HETATM   19  C   UNL     1      -1.879   5.307 -31.546  1.00  0.00     0.041 A 
HETATM   20  C   UNL     1      -1.148   7.715 -32.728  1.00  0.00     0.001 A 
HETATM   21  C   UNL     1      -0.673   7.388 -31.458  1.00  0.00     0.002 A 
HETATM   22  C   UNL     1      -1.041   6.183 -30.861  1.00  0.00     0.030 A 
HETATM   23  N   UNL     1      -2.297   4.124 -30.926  1.00  0.00    -0.327 N 
HETATM   24  C   UNL     1      -3.057   3.181 -31.558  1.00  0.00     0.222 C 
HETATM   25  H   UNL     1      -2.112   3.979 -29.938  1.00  0.00     0.169 HD
HETATM   26  O   UNL     1      -3.774   2.405 -30.936  1.00  0.00    -0.273 OA
HETATM   27  C   UNL     1      -3.074   3.255 -33.063  1.00  0.00     0.114 C 
ENDBRANCH  15  16
ENDBRANCH  12  15
ENDBRANCH  11  12
ENDBRANCH  10  11
ENDBRANCH   1   9
TORSDOF 5
ENDMDL
MODEL 3
REMARK VINA RESULT:      -7.7      2.224      3.735
REMARK  5 active torsions:
REMARK  status: ('A' for Active; 'I' for Inactive)
REMARK    1  A    between atoms: C_9  and  C_10 
REMARK    2  A    between atoms: C_10  and  N_11 
REMARK    3  A    between atoms: N_11  and  C_14 
REMARK    4  A    between atoms: C_14  and  C_15 
REMARK    5  A    between atoms: C_16  and  C_17 
ROOT
HETATM    1  C   UNL     1      -6.706  -0.999 -34.711  1.00  0.00    -0.036 A 
HETATM    2  C   UNL     1      -7.006  -2.325 -35.042  1.00  0.00     0.013 A 
HETATM    3  C   UNL     1      -6.088  -3.343 -34.767  1.00  0.00     0.023 A 
HETATM    4  C   UNL     1      -4.863  -3.041 -34.164  1.00  0.00     0.044 A 
HETATM    5  C   UNL     1      -3.925  -4.087 -33.878  1.00  0.00     0.099 C 
HETATM    6  N   UNL     1      -3.171  -4.937 -33.645  1.00  0.00    -0.191 NA
HETATM    7  C   UNL     1      -4.560  -1.715 -33.838  1.00  0.00     0.023 A 
HETATM    8  C   UNL     1      -5.479  -0.697 -34.111  1.00  0.00     0.013 A 
ENDROOT
BRANCH   1   9
HETATM    9  C   UNL     1      -7.684   0.055 -34.983  1.00  0.00     0.009 C 
HETATM   10  C   UNL     1      -8.324   0.680 -33.982  1.00  0.00     0.001 C 
BRANCH  10  11
HETATM   11  C   UNL     1      -9.333   1.758 -34.177  1.00  0.00     0.259 C 
BRANCH  11  12
HETATM   12  N   UNL     1      -8.913   2.995 -33.465  1.00  0.00    -0.071 N 
HETATM   13  H   UNL     1      -9.092   2.842 -32.460  1.00  0.00     0.277 HD
HETATM   14  H   UNL     1      -9.550   3.753 -33.749  1.00  0.00     0.277 HD
BRANCH  12  15
HETATM   15  C   UNL     1      -7.494   3.405 -33.711  1.00  0.00     0.242 C 
BRANCH  15  16
HETATM   16  C   UNL     1      -6.741   3.836 -32.428  1.00  0.00     0.055 C 
HETATM   17  C   UNL     1      -5.807   2.761 -31.913  1.00  0.00    -0.025 A 
HETATM   18  C   UNL     1      -6.290   1.687 -31.156  1.00  0.00     0.010 A 
HETATM   19  C   UNL     1      -4.439   2.814 -32.229  1.00  0.00     0.041 A 
HETATM   20  C   UNL     1      -5.417   0.684 -30.733  1.00  0.00     0.001 A 
HETATM   21  C   UNL     1      -4.063   0.742 -31.065  1.00  0.00     0.002 A 
HETATM   22  C   UNL     1      -3.571   1.806 -31.819  1.00  0.00     0.030 A 
HETATM   23  N   UNL     1      -3.960   3.853 -33.034  1.00  0.00    -0.327 N 
HETATM   24  C   UNL     1      -4.731   4.915 -33.416  1.00  0.00     0.222 C 
HETATM   25  H   UNL     1      -3.028   3.794 -33.435  1.00  0.00     0.169 HD
HETATM   26  O   UNL     1      -4.487   5.560 -34.430  1.00  0.00    -0.273 OA
HETATM   27  C   UNL     1      -5.976   5.146 -32.601  1.00  0.00     0.114 C 
ENDBRANCH  15  16
ENDBRANCH  12  15
ENDBRANCH  11  12
ENDBRANCH  10  11
ENDBRANCH   1   9
TORSDOF 5
ENDMDL
MODEL 4
REMARK VINA RESULT:      -7.6      1.721      2.406
REMARK  5 active torsions:
REMARK  status: ('A' for Active; 'I' for Inactive)
REMARK    1  A    between atoms: C_9  and  C_10 
REMARK    2  A    between atoms: C_10  and  N_11 
REMARK    3  A    between atoms: N_11  and  C_14 
REMARK    4  A    between atoms: C_14  and  C_15 
REMARK    5  A    between atoms: C_16  and  C_17 
ROOT
HETATM    1  C   UNL     1      -5.745   0.375 -33.940  1.00  0.00    -0.036 A 
HETATM    2  C   UNL     1      -6.870  -0.064 -34.647  1.00  0.00     0.013 A 
HETATM    3  C   UNL     1      -7.027  -1.421 -34.948  1.00  0.00     0.023 A 
HETATM    4  C   UNL     1      -6.057  -2.346 -34.548  1.00  0.00     0.044 A 
HETATM    5  C   UNL     1      -6.221  -3.737 -34.852  1.00  0.00     0.099 C 
HETATM    6  N   UNL     1      -6.361  -4.862 -35.098  1.00  0.00    -0.191 NA
HETATM    7  C   UNL     1      -4.929  -1.907 -33.846  1.00  0.00     0.023 A 
HETATM    8  C   UNL     1      -4.774  -0.551 -33.543  1.00  0.00     0.013 A 
ENDROOT
BRANCH   1   9
HETATM    9  C   UNL     1      -5.604   1.793 -33.612  1.00  0.00     0.009 C 
HETATM   10  C   UNL     1      -6.374   2.720 -34.204  1.00  0.00     0.001 C 
BRANCH  10  11
HETATM   11  C   UNL     1      -6.287   4.182 -33.927  1.00  0.00     0.259 C 
BRANCH  11  12
HETATM   12  N   UNL     1      -6.292   4.430 -32.460  1.00  0.00    -0.071 N 
HETATM   13  H   UNL     1      -5.572   5.146 -32.271  1.00  0.00     0.277 HD
HETATM   14  H   UNL     1      -5.961   3.574 -31.994  1.00  0.00     0.277 HD
BRANCH  12  15
HETATM   15  C   UNL     1      -7.621   4.833 -31.899  1.00  0.00     0.242 C 
BRANCH  15  16
HETATM   16  C   UNL     1      -7.963   4.144 -30.555  1.00  0.00     0.055 C 
HETATM   17  C   UNL     1      -7.522   2.696 -30.515  1.00  0.00    -0.025 A 
HETATM   18  C   UNL     1      -8.288   1.691 -31.118  1.00  0.00     0.010 A 
HETATM   19  C   UNL     1      -6.307   2.352 -29.900  1.00  0.00     0.041 A 
HETATM   20  C   UNL     1      -7.837   0.370 -31.108  1.00  0.00     0.001 A 
HETATM   21  C   UNL     1      -6.622   0.045 -30.506  1.00  0.00     0.002 A 
HETATM   22  C   UNL     1      -5.850   1.037 -29.903  1.00  0.00     0.030 A 
HETATM   23  N   UNL     1      -5.508   3.359 -29.348  1.00  0.00    -0.327 N 
HETATM   24  C   UNL     1      -5.916   4.660 -29.241  1.00  0.00     0.222 C 
HETATM   25  H   UNL     1      -4.547   3.157 -29.087  1.00  0.00     0.169 HD
HETATM   26  O   UNL     1      -5.116   5.586 -29.187  1.00  0.00    -0.273 OA
HETATM   27  C   UNL     1      -7.401   4.889 -29.347  1.00  0.00     0.114 C 
ENDBRANCH  15  16
ENDBRANCH  12  15
ENDBRANCH  11  12
ENDBRANCH  10  11
ENDBRANCH   1   9
TORSDOF 5
ENDMDL
MODEL 5
REMARK VINA RESULT:      -7.6      5.326      8.235
REMARK  5 active torsions:
REMARK  status: ('A' for Active; 'I' for Inactive)
REMARK    1  A    between atoms: C_9  and  C_10 
REMARK    2  A    between atoms: C_10  and  N_11 
REMARK    3  A    between atoms: N_11  and  C_14 
REMARK    4  A    between atoms: C_14  and  C_15 
REMARK    5  A    between atoms: C_16  and  C_17 
ROOT
HETATM    1  C   UNL     1      -1.335   5.648 -31.316  1.00  0.00    -0.036 A 
HETATM    2  C   UNL     1      -1.962   6.317 -30.259  1.00  0.00     0.013 A 
HETATM    3  C   UNL     1      -1.207   7.080 -29.363  1.00  0.00     0.023 A 
HETATM    4  C   UNL     1       0.180   7.175 -29.516  1.00  0.00     0.044 A 
HETATM    5  C   UNL     1       0.952   7.963 -28.600  1.00  0.00     0.099 C 
HETATM    6  N   UNL     1       1.572   8.604 -27.858  1.00  0.00    -0.191 NA
HETATM    7  C   UNL     1       0.808   6.502 -30.569  1.00  0.00     0.023 A 
HETATM    8  C   UNL     1       0.053   5.741 -31.466  1.00  0.00     0.013 A 
ENDROOT
BRANCH   1   9
HETATM    9  C   UNL     1      -2.138   4.871 -32.260  1.00  0.00     0.009 C 
HETATM   10  C   UNL     1      -3.108   4.049 -31.829  1.00  0.00     0.001 C 
BRANCH  10  11
HETATM   11  C   UNL     1      -3.965   3.223 -32.725  1.00  0.00     0.259 C 
BRANCH  11  12
HETATM   12  N   UNL     1      -5.011   2.518 -31.935  1.00  0.00    -0.071 N 
HETATM   13  H   UNL     1      -5.617   3.243 -31.518  1.00  0.00     0.277 HD
HETATM   14  H   UNL     1      -4.547   2.054 -31.142  1.00  0.00     0.277 HD
BRANCH  12  15
HETATM   15  C   UNL     1      -5.812   1.519 -32.711  1.00  0.00     0.242 C 
BRANCH  15  16
HETATM   16  C   UNL     1      -5.930   0.141 -32.015  1.00  0.00     0.055 C 
HETATM   17  C   UNL     1      -5.789  -1.014 -32.983  1.00  0.00    -0.025 A 
HETATM   18  C   UNL     1      -6.865  -1.428 -33.778  1.00  0.00     0.010 A 
HETATM   19  C   UNL     1      -4.549  -1.661 -33.122  1.00  0.00     0.041 A 
HETATM   20  C   UNL     1      -6.695  -2.464 -34.697  1.00  0.00     0.001 A 
HETATM   21  C   UNL     1      -5.456  -3.089 -34.833  1.00  0.00     0.002 A 
HETATM   22  C   UNL     1      -4.376  -2.686 -34.049  1.00  0.00     0.030 A 
HETATM   23  N   UNL     1      -3.454  -1.215 -32.374  1.00  0.00    -0.327 N 
HETATM   24  C   UNL     1      -3.558  -0.266 -31.395  1.00  0.00     0.222 C 
HETATM   25  H   UNL     1      -2.518  -1.532 -32.609  1.00  0.00     0.169 HD
HETATM   26  O   UNL     1      -2.603   0.428 -31.064  1.00  0.00    -0.273 OA
HETATM   27  C   UNL     1      -4.945  -0.027 -30.861  1.00  0.00     0.114 C 
ENDBRANCH  15  16
ENDBRANCH  12  15
ENDBRANCH  11  12
ENDBRANCH  10  11
ENDBRANCH   1   9
TORSDOF 5
ENDMDL
MODEL 6
REMARK VINA RESULT:      -7.5      2.714      3.805
REMARK  5 active torsions:
REMARK  status: ('A' for Active; 'I' for Inactive)
REMARK    1  A    between atoms: C_9  and  C_10 
REMARK    2  A    between atoms: C_10  and  N_11 
REMARK    3  A    between atoms: N_11  and  C_14 
REMARK    4  A    between atoms: C_14  and  C_15 
REMARK    5  A    between atoms: C_16  and  C_17 
ROOT
HETATM    1  C   UNL     1      -6.045  -0.053 -33.983  1.00  0.00    -0.036 A 
HETATM    2  C   UNL     1      -4.854  -0.756 -33.770  1.00  0.00     0.013 A 
HETATM    3  C   UNL     1      -4.777  -2.118 -34.074  1.00  0.00     0.023 A 
HETATM    4  C   UNL     1      -5.892  -2.787 -34.588  1.00  0.00     0.044 A 
HETATM    5  C   UNL     1      -5.809  -4.184 -34.904  1.00  0.00     0.099 C 
HETATM    6  N   UNL     1      -5.737  -5.312 -35.162  1.00  0.00    -0.191 NA
HETATM    7  C   UNL     1      -7.085  -2.088 -34.795  1.00  0.00     0.023 A 
HETATM    8  C   UNL     1      -7.161  -0.725 -34.494  1.00  0.00     0.013 A 
ENDROOT
BRANCH   1   9
HETATM    9  C   UNL     1      -6.107   1.377 -33.682  1.00  0.00     0.009 C 
HETATM   10  C   UNL     1      -7.261   2.056 -33.783  1.00  0.00     0.001 C 
BRANCH  10  11
HETATM   11  C   UNL     1      -7.404   3.512 -33.497  1.00  0.00     0.259 C 
BRANCH  11  12
HETATM   12  N   UNL     1      -6.098   4.085 -33.074  1.00  0.00    -0.071 N 
HETATM   13  H   UNL     1      -5.667   4.512 -33.910  1.00  0.00     0.277 HD
HETATM   14  H   UNL     1      -5.481   3.304 -32.811  1.00  0.00     0.277 HD
BRANCH  12  15
HETATM   15  C   UNL     1      -6.184   5.067 -31.945  1.00  0.00     0.242 C 
BRANCH  15  16
HETATM   16  C   UNL     1      -5.259   4.724 -30.752  1.00  0.00     0.055 C 
HETATM   17  C   UNL     1      -4.961   3.242 -30.654  1.00  0.00    -0.025 A 
HETATM   18  C   UNL     1      -5.879   2.357 -30.077  1.00  0.00     0.010 A 
HETATM   19  C   UNL     1      -3.763   2.735 -31.185  1.00  0.00     0.041 A 
HETATM   20  C   UNL     1      -5.601   0.990 -30.042  1.00  0.00     0.001 A 
HETATM   21  C   UNL     1      -4.414   0.497 -30.584  1.00  0.00     0.002 A 
HETATM   22  C   UNL     1      -3.493   1.369 -31.162  1.00  0.00     0.030 A 
HETATM   23  N   UNL     1      -2.868   3.605 -31.816  1.00  0.00    -0.327 N 
HETATM   24  C   UNL     1      -3.026   4.963 -31.817  1.00  0.00     0.222 C 
HETATM   25  H   UNL     1      -2.108   3.231 -32.376  1.00  0.00     0.169 HD
HETATM   26  O   UNL     1      -2.540   5.670 -32.693  1.00  0.00    -0.273 OA
HETATM   27  C   UNL     1      -3.953   5.515 -30.766  1.00  0.00     0.114 C 
ENDBRANCH  15  16
ENDBRANCH  12  15
ENDBRANCH  11  12
ENDBRANCH  10  11
ENDBRANCH   1   9
TORSDOF 5
ENDMDL
MODEL 7
REMARK VINA RESULT:      -7.5      3.142      5.337
REMARK  5 active torsions:
REMARK  status: ('A' for Active; 'I' for Inactive)
REMARK    1  A    between atoms: C_9  and  C_10 
REMARK    2  A    between atoms: C_10  and  N_11 
REMARK    3  A    between atoms: N_11  and  C_14 
REMARK    4  A    between atoms: C_14  and  C_15 
REMARK    5  A    between atoms: C_16  and  C_17 
ROOT
HETATM    1  C   UNL     1      -5.468  -0.214 -33.242  1.00  0.00    -0.036 A 
HETATM    2  C   UNL     1      -4.393  -1.091 -33.425  1.00  0.00     0.013 A 
HETATM    3  C   UNL     1      -4.595  -2.334 -34.031  1.00  0.00     0.023 A 
HETATM    4  C   UNL     1      -5.875  -2.712 -34.451  1.00  0.00     0.044 A 
HETATM    5  C   UNL     1      -6.079  -3.986 -35.076  1.00  0.00     0.099 C 
HETATM    6  N   UNL     1      -6.240  -5.016 -35.585  1.00  0.00    -0.191 NA
HETATM    7  C   UNL     1      -6.951  -1.839 -34.262  1.00  0.00     0.023 A 
HETATM    8  C   UNL     1      -6.748  -0.594 -33.660  1.00  0.00     0.013 A 
ENDROOT
BRANCH   1   9
HETATM    9  C   UNL     1      -5.240   1.094 -32.628  1.00  0.00     0.009 C 
HETATM   10  C   UNL     1      -4.021   1.449 -32.188  1.00  0.00     0.001 C 
BRANCH  10  11
HETATM   11  C   UNL     1      -3.710   2.758 -31.550  1.00  0.00     0.259 C 
BRANCH  11  12
HETATM   12  N   UNL     1      -4.930   3.607 -31.491  1.00  0.00    -0.071 N 
HETATM   13  H   UNL     1      -5.627   3.100 -30.922  1.00  0.00     0.277 HD
HETATM   14  H   UNL     1      -5.328   3.654 -32.440  1.00  0.00     0.277 HD
BRANCH  12  15
HETATM   15  C   UNL     1      -4.703   4.992 -30.967  1.00  0.00     0.242 C 
BRANCH  15  16
HETATM   16  C   UNL     1      -4.717   6.082 -32.066  1.00  0.00     0.055 C 
HETATM   17  C   UNL     1      -3.485   6.037 -32.946  1.00  0.00    -0.025 A 
HETATM   18  C   UNL     1      -2.277   6.606 -32.527  1.00  0.00     0.010 A 
HETATM   19  C   UNL     1      -3.537   5.381 -34.187  1.00  0.00     0.041 A 
HETATM   20  C   UNL     1      -1.144   6.510 -33.336  1.00  0.00     0.001 A 
HETATM   21  C   UNL     1      -1.206   5.843 -34.560  1.00  0.00     0.002 A 
HETATM   22  C   UNL     1      -2.403   5.272 -34.987  1.00  0.00     0.030 A 
HETATM   23  N   UNL     1      -4.726   4.758 -34.586  1.00  0.00    -0.327 N 
HETATM   24  C   UNL     1      -5.898   4.879 -33.893  1.00  0.00     0.222 C 
HETATM   25  H   UNL     1      -4.721   4.115 -35.372  1.00  0.00     0.169 HD
HETATM   26  O   UNL     1      -6.779   4.030 -33.961  1.00  0.00    -0.273 OA
HETATM   27  C   UNL     1      -5.974   6.037 -32.932  1.00  0.00     0.114 C 
ENDBRANCH  15  16
ENDBRANCH  12  15
ENDBRANCH  11  12
ENDBRANCH  10  11
ENDBRANCH   1   9
TORSDOF 5
ENDMDL
MODEL 8
REMARK VINA RESULT:      -7.5      4.608      6.742
REMARK  5 active torsions:
REMARK  status: ('A' for Active; 'I' for Inactive)
REMARK    1  A    between atoms: C_9  and  C_10 
REMARK    2  A    between atoms: C_10  and  N_11 
REMARK    3  A    between atoms: N_11  and  C_14 
REMARK    4  A    between atoms: C_14  and  C_15 
REMARK    5  A    between atoms: C_16  and  C_17 
ROOT
HETATM    1  C   UNL     1      -5.273  -0.419 -33.153  1.00  0.00    -0.036 A 
HETATM    2  C   UNL     1      -6.564  -0.708 -33.608  1.00  0.00     0.013 A 
HETATM    3  C   UNL     1      -6.827  -1.920 -34.253  1.00  0.00     0.023 A 
HETATM    4  C   UNL     1      -5.800  -2.848 -34.453  1.00  0.00     0.044 A 
HETATM    5  C   UNL     1      -6.073  -4.093 -35.110  1.00  0.00     0.099 C 
HETATM    6  N   UNL     1      -6.299  -5.099 -35.639  1.00  0.00    -0.191 NA
HETATM    7  C   UNL     1      -4.508  -2.557 -34.004  1.00  0.00     0.023 A 
HETATM    8  C   UNL     1      -4.245  -1.346 -33.356  1.00  0.00     0.013 A 
ENDROOT
BRANCH   1   9
HETATM    9  C   UNL     1      -5.015   0.843 -32.459  1.00  0.00     0.009 C 
HETATM   10  C   UNL     1      -5.688   1.959 -32.780  1.00  0.00     0.001 C 
BRANCH  10  11
HETATM   11  C   UNL     1      -5.481   3.280 -32.124  1.00  0.00     0.259 C 
BRANCH  11  12
HETATM   12  N   UNL     1      -4.197   3.287 -31.371  1.00  0.00    -0.071 N 
HETATM   13  H   UNL     1      -4.012   2.315 -31.076  1.00  0.00     0.277 HD
HETATM   14  H   UNL     1      -4.345   3.817 -30.500  1.00  0.00     0.277 HD
BRANCH  12  15
HETATM   15  C   UNL     1      -3.035   3.859 -32.122  1.00  0.00     0.242 C 
BRANCH  15  16
HETATM   16  C   UNL     1      -3.058   5.404 -32.220  1.00  0.00     0.055 C 
HETATM   17  C   UNL     1      -1.920   6.052 -31.459  1.00  0.00    -0.025 A 
HETATM   18  C   UNL     1      -1.987   6.232 -30.073  1.00  0.00     0.010 A 
HETATM   19  C   UNL     1      -0.757   6.445 -32.144  1.00  0.00     0.041 A 
HETATM   20  C   UNL     1      -0.906   6.787 -29.388  1.00  0.00     0.001 A 
HETATM   21  C   UNL     1       0.248   7.161 -30.078  1.00  0.00     0.002 A 
HETATM   22  C   UNL     1       0.327   6.987 -31.458  1.00  0.00     0.030 A 
HETATM   23  N   UNL     1      -0.659   6.215 -33.520  1.00  0.00    -0.327 N 
HETATM   24  C   UNL     1      -1.702   5.755 -34.274  1.00  0.00     0.222 C 
HETATM   25  H   UNL     1       0.240   6.303 -33.985  1.00  0.00     0.169 HD
HETATM   26  O   UNL     1      -1.523   5.149 -35.324  1.00  0.00    -0.273 OA
HETATM   27  C   UNL     1      -3.070   5.908 -33.661  1.00  0.00     0.114 C 
ENDBRANCH  15  16
ENDBRANCH  12  15
ENDBRANCH  11  12
ENDBRANCH  10  11
ENDBRANCH   1   9
TORSDOF 5
ENDMDL
MODEL 9
REMARK VINA RESULT:      -7.4     15.272     16.658
REMARK  5 active torsions:
REMARK  status: ('A' for Active; 'I' for Inactive)
REMARK    1  A    between atoms: C_9  and  C_10 
REMARK    2  A    between atoms: C_10  and  N_11 
REMARK    3  A    between atoms: N_11  and  C_14 
REMARK    4  A    between atoms: C_14  and  C_15 
REMARK    5  A    between atoms: C_16  and  C_17 
ROOT
HETATM    1  C   UNL     1      -2.788 -13.503 -37.088  1.00  0.00    -0.036 A 
HETATM    2  C   UNL     1      -2.178 -12.614 -37.981  1.00  0.00     0.013 A 
HETATM    3  C   UNL     1      -0.941 -12.929 -38.551  1.00  0.00     0.023 A 
HETATM    4  C   UNL     1      -0.304 -14.131 -38.228  1.00  0.00     0.044 A 
HETATM    5  C   UNL     1       0.963 -14.455 -38.818  1.00  0.00     0.099 C 
HETATM    6  N   UNL     1       1.985 -14.714 -39.300  1.00  0.00    -0.191 NA
HETATM    7  C   UNL     1      -0.909 -15.017 -37.331  1.00  0.00     0.023 A 
HETATM    8  C   UNL     1      -2.148 -14.704 -36.763  1.00  0.00     0.013 A 
ENDROOT
BRANCH   1   9
HETATM    9  C   UNL     1      -4.093 -13.173 -36.515  1.00  0.00     0.009 C 
HETATM   10  C   UNL     1      -4.959 -14.137 -36.166  1.00  0.00     0.001 C 
BRANCH  10  11
HETATM   11  C   UNL     1      -6.305 -13.882 -35.581  1.00  0.00     0.259 C 
BRANCH  11  12
HETATM   12  N   UNL     1      -7.044 -12.885 -36.402  1.00  0.00    -0.071 N 
HETATM   13  H   UNL     1      -6.341 -12.257 -36.823  1.00  0.00     0.277 HD
HETATM   14  H   UNL     1      -7.595 -12.296 -35.761  1.00  0.00     0.277 HD
BRANCH  12  15
HETATM   15  C   UNL     1      -7.941 -13.477 -37.445  1.00  0.00     0.242 C 
BRANCH  15  16
HETATM   16  C   UNL     1      -8.076 -12.604 -38.717  1.00  0.00     0.055 C 
HETATM   17  C   UNL     1      -7.001 -12.901 -39.742  1.00  0.00    -0.025 A 
HETATM   18  C   UNL     1      -5.716 -12.360 -39.619  1.00  0.00     0.010 A 
HETATM   19  C   UNL     1      -7.280 -13.764 -40.815  1.00  0.00     0.041 A 
HETATM   20  C   UNL     1      -4.730 -12.687 -40.551  1.00  0.00     0.001 A 
HETATM   21  C   UNL     1      -5.016 -13.556 -41.604  1.00  0.00     0.002 A 
HETATM   22  C   UNL     1      -6.292 -14.102 -41.737  1.00  0.00     0.030 A 
HETATM   23  N   UNL     1      -8.544 -14.356 -40.911  1.00  0.00    -0.327 N 
HETATM   24  C   UNL     1      -9.586 -14.023 -40.091  1.00  0.00     0.222 C 
HETATM   25  H   UNL     1      -8.694 -15.129 -41.553  1.00  0.00     0.169 HD
HETATM   26  O   UNL     1     -10.507 -14.800 -39.868  1.00  0.00    -0.273 OA
HETATM   27  C   UNL     1      -9.454 -12.709 -39.366  1.00  0.00     0.114 C 
ENDBRANCH  15  16
ENDBRANCH  12  15
ENDBRANCH  11  12
ENDBRANCH  10  11
ENDBRANCH   1   9
TORSDOF 5
ENDMDL
MODEL 10
REMARK VINA RESULT:      -7.3      3.286      7.251
REMARK  5 active torsions:
REMARK  status: ('A' for Active; 'I' for Inactive)
REMARK    1  A    between atoms: C_9  and  C_10 
REMARK    2  A    between atoms: C_10  and  N_11 
REMARK    3  A    between atoms: N_11  and  C_14 
REMARK    4  A    between atoms: C_14  and  C_15 
REMARK    5  A    between atoms: C_16  and  C_17 
ROOT
HETATM    1  C   UNL     1      -4.050   3.726 -31.391  1.00  0.00    -0.036 A 
HETATM    2  C   UNL     1      -4.515   5.041 -31.281  1.00  0.00     0.013 A 
HETATM    3  C   UNL     1      -3.865   6.077 -31.958  1.00  0.00     0.023 A 
HETATM    4  C   UNL     1      -2.741   5.805 -32.744  1.00  0.00     0.044 A 
HETATM    5  C   UNL     1      -2.077   6.868 -33.442  1.00  0.00     0.099 C 
HETATM    6  N   UNL     1      -1.546   7.730 -34.007  1.00  0.00    -0.191 NA
HETATM    7  C   UNL     1      -2.271   4.492 -32.850  1.00  0.00     0.023 A 
HETATM    8  C   UNL     1      -2.923   3.456 -32.176  1.00  0.00     0.013 A 
ENDROOT
BRANCH   1   9
HETATM    9  C   UNL     1      -4.753   2.648 -30.696  1.00  0.00     0.009 C 
HETATM   10  C   UNL     1      -5.827   2.057 -31.244  1.00  0.00     0.001 C 
BRANCH  10  11
HETATM   11  C   UNL     1      -6.598   0.957 -30.598  1.00  0.00     0.259 C 
BRANCH  11  12
HETATM   12  N   UNL     1      -6.651  -0.230 -31.493  1.00  0.00    -0.071 N 
HETATM   13  H   UNL     1      -7.189   0.045 -32.331  1.00  0.00     0.277 HD
HETATM   14  H   UNL     1      -7.217  -0.952 -31.025  1.00  0.00     0.277 HD
BRANCH  12  15
HETATM   15  C   UNL     1      -5.314  -0.793 -31.864  1.00  0.00     0.242 C 
BRANCH  15  16
HETATM   16  C   UNL     1      -5.077  -0.877 -33.392  1.00  0.00     0.055 C 
HETATM   17  C   UNL     1      -5.189  -2.292 -33.921  1.00  0.00    -0.025 A 
HETATM   18  C   UNL     1      -4.126  -3.195 -33.800  1.00  0.00     0.010 A 
HETATM   19  C   UNL     1      -6.390  -2.724 -34.508  1.00  0.00     0.041 A 
HETATM   20  C   UNL     1      -4.272  -4.507 -34.253  1.00  0.00     0.001 A 
HETATM   21  C   UNL     1      -5.474  -4.927 -34.823  1.00  0.00     0.002 A 
HETATM   22  C   UNL     1      -6.540  -4.037 -34.947  1.00  0.00     0.030 A 
HETATM   23  N   UNL     1      -7.476  -1.844 -34.579  1.00  0.00    -0.327 N 
HETATM   24  C   UNL     1      -7.388  -0.524 -34.237  1.00  0.00     0.222 C 
HETATM   25  H   UNL     1      -8.400  -2.199 -34.809  1.00  0.00     0.169 HD
HETATM   26  O   UNL     1      -8.368   0.117 -33.875  1.00  0.00    -0.273 OA
HETATM   27  C   UNL     1      -5.995   0.047 -34.187  1.00  0.00     0.114 C 
ENDBRANCH  15  16
ENDBRANCH  12  15
ENDBRANCH  11  12
ENDBRANCH  10  11
ENDBRANCH   1   9
TORSDOF 5
ENDMDL
