MODEL 1
REMARK VINA RESULT:      -7.8      0.000      0.000
REMARK  7 active torsions:
REMARK  status: ('A' for Active; 'I' for Inactive)
REMARK    1  A    between atoms: C_2  and  N_3 
REMARK    2  A    between atoms: C_8  and  C_9 
REMARK    3  A    between atoms: C_9  and  N_10 
REMARK       I    between atoms: N_10  and  C_11 
REMARK       I    between atoms: C_11  and  N_12 
REMARK    4  A    between atoms: N_12  and  C_13 
REMARK    5  A    between atoms: C_14  and  O_15 
REMARK    6  A    between atoms: C_18  and  O_19 
REMARK    7  A    between atoms: C_26  and  N_27 
ROOT
HETATM    1  C   UNL     1      -7.217   2.631 -31.923  1.00  0.00     0.118 C 
HETATM    2  C   UNL     1      -7.032   2.428 -30.421  1.00  0.00     0.037 C 
ENDROOT
BRANCH   1   3
HETATM    3  C   UNL     1      -6.925   1.369 -32.724  1.00  0.00     0.006 C 
HETATM    4  C   UNL     1      -5.621   0.717 -32.812  1.00  0.00    -0.031 C 
HETATM    5  C   UNL     1      -5.624  -0.319 -33.727  1.00  0.00     0.017 C 
HETATM    6  C   UNL     1      -4.375   1.025 -32.022  1.00  0.00     0.068 C 
HETATM    7  C   UNL     1      -4.454  -1.177 -34.070  1.00  0.00     0.281 C 
HETATM    8  S   UNL     1      -7.123  -0.538 -34.469  1.00  0.00    -0.074 SA
HETATM    9  N   UNL     1      -3.405  -1.132 -32.965  1.00  0.00    -0.067 N 
HETATM   10  H   UNL     1      -2.537  -1.500 -33.376  1.00  0.00     0.280 HD
HETATM   11  C   UNL     1      -3.124   0.327 -32.593  1.00  0.00     0.240 C 
HETATM   12  C   UNL     1      -7.847   0.663 -33.498  1.00  0.00     0.089 C 
BRANCH   9  13
HETATM   13  C   UNL     1      -3.729  -1.991 -31.761  1.00  0.00     0.231 C 
HETATM   14  C   UNL     1      -2.996  -3.319 -31.819  1.00  0.00     0.034 C 
ENDBRANCH   9  13
BRANCH  12  15
HETATM   15  N   UNL     1      -9.254   0.767 -33.560  1.00  0.00    -0.327 N 
HETATM   16  C   UNL     1     -10.002   1.655 -34.324  1.00  0.00     0.097 A 
HETATM   17  C   UNL     1     -11.345   1.410 -34.146  1.00  0.00     0.019 A 
HETATM   18  C   UNL     1     -11.453   0.317 -33.270  1.00  0.00     0.019 A 
HETATM   19  C   UNL     1     -10.171  -0.068 -32.942  1.00  0.00     0.097 A 
ENDBRANCH  12  15
ENDBRANCH   1   3
BRANCH   1  20
HETATM   20  N   UNL     1      -6.359   3.705 -32.412  1.00  0.00    -0.334 N 
HETATM   21  C   UNL     1      -6.828   4.566 -33.377  1.00  0.00     0.321 C 
HETATM   22  N   UNL     1      -6.080   5.694 -33.566  1.00  0.00    -0.306 N 
HETATM   23  O   UNL     1      -7.894   4.414 -33.961  1.00  0.00    -0.247 OA
HETATM   24  H   UNL     1      -6.610   6.482 -33.931  1.00  0.00     0.171 HD
HETATM   25  H   UNL     1      -5.833   4.201 -31.707  1.00  0.00     0.165 HD
BRANCH  22  26
HETATM   26  C   UNL     1      -4.720   5.945 -33.302  1.00  0.00     0.071 A 
HETATM   27  C   UNL     1      -4.378   6.663 -32.144  1.00  0.00     0.097 A 
HETATM   28  C   UNL     1      -3.033   6.939 -31.863  1.00  0.00     0.077 A 
HETATM   29  C   UNL     1      -2.020   6.497 -32.726  1.00  0.00     0.092 A 
HETATM   30  C   UNL     1      -2.380   5.806 -33.893  1.00  0.00     0.069 A 
HETATM   31 CL   UNL     1      -1.199   5.246 -35.029  1.00  0.00    -0.081 Cl
HETATM   32  C   UNL     1      -3.718   5.544 -34.184  1.00  0.00     0.059 A 
BRANCH  27  33
HETATM   33  O   UNL     1      -5.431   7.051 -31.352  1.00  0.00    -0.354 OA
HETATM   34  C   UNL     1      -5.502   6.457 -30.059  1.00  0.00     0.210 C 
ENDBRANCH  27  33
BRANCH  29  35
HETATM   35  O   UNL     1      -0.681   6.702 -32.526  1.00  0.00    -0.354 OA
HETATM   36  C   UNL     1      -0.169   6.521 -31.211  1.00  0.00     0.210 C 
ENDBRANCH  29  35
ENDBRANCH  22  26
ENDBRANCH   1  20
TORSDOF 7
ENDMDL
MODEL 2
REMARK VINA RESULT:      -7.7      3.375      7.277
REMARK  7 active torsions:
REMARK  status: ('A' for Active; 'I' for Inactive)
REMARK    1  A    between atoms: C_2  and  N_3 
REMARK    2  A    between atoms: C_8  and  C_9 
REMARK    3  A    between atoms: C_9  and  N_10 
REMARK       I    between atoms: N_10  and  C_11 
REMARK       I    between atoms: C_11  and  N_12 
REMARK    4  A    between atoms: N_12  and  C_13 
REMARK    5  A    between atoms: C_14  and  O_15 
REMARK    6  A    between atoms: C_18  and  O_19 
REMARK    7  A    between atoms: C_26  and  N_27 
ROOT
HETATM    1  C   UNL     1      -7.231   4.499 -32.036  1.00  0.00     0.118 C 
HETATM    2  C   UNL     1      -7.462   4.952 -33.476  1.00  0.00     0.037 C 
ENDROOT
BRANCH   1   3
HETATM    3  C   UNL     1      -6.010   5.157 -31.406  1.00  0.00     0.006 C 
HETATM    4  C   UNL     1      -4.638   4.998 -31.879  1.00  0.00    -0.031 C 
HETATM    5  C   UNL     1      -3.726   5.590 -31.024  1.00  0.00     0.017 C 
HETATM    6  C   UNL     1      -4.164   4.333 -33.146  1.00  0.00     0.068 C 
HETATM    7  C   UNL     1      -2.246   5.597 -31.204  1.00  0.00     0.281 C 
HETATM    8  S   UNL     1      -4.455   6.325 -29.692  1.00  0.00    -0.074 SA
HETATM    9  N   UNL     1      -1.874   5.333 -32.658  1.00  0.00    -0.067 N 
HETATM   10  H   UNL     1      -0.878   5.078 -32.660  1.00  0.00     0.280 HD
HETATM   11  C   UNL     1      -2.639   4.106 -33.161  1.00  0.00     0.240 C 
HETATM   12  C   UNL     1      -6.018   5.986 -30.284  1.00  0.00     0.089 C 
BRANCH   9  13
HETATM   13  C   UNL     1      -2.028   6.533 -33.569  1.00  0.00     0.231 C 
HETATM   14  C   UNL     1      -1.590   7.810 -32.877  1.00  0.00     0.034 C 
ENDBRANCH   9  13
BRANCH  12  15
HETATM   15  N   UNL     1      -7.099   6.600 -29.613  1.00  0.00    -0.327 N 
HETATM   16  C   UNL     1      -7.872   7.665 -30.057  1.00  0.00     0.097 A 
HETATM   17  C   UNL     1      -8.860   7.942 -29.139  1.00  0.00     0.019 A 
HETATM   18  C   UNL     1      -8.730   7.007 -28.098  1.00  0.00     0.019 A 
HETATM   19  C   UNL     1      -7.666   6.191 -28.417  1.00  0.00     0.097 A 
ENDBRANCH  12  15
ENDBRANCH   1   3
BRANCH   1  20
HETATM   20  N   UNL     1      -7.072   3.051 -31.965  1.00  0.00    -0.334 N 
HETATM   21  C   UNL     1      -7.560   2.364 -30.878  1.00  0.00     0.321 C 
HETATM   22  N   UNL     1      -7.623   1.006 -31.025  1.00  0.00    -0.306 N 
HETATM   23  O   UNL     1      -8.016   2.910 -29.880  1.00  0.00    -0.247 OA
HETATM   24  H   UNL     1      -8.334   0.564 -30.447  1.00  0.00     0.171 HD
HETATM   25  H   UNL     1      -7.251   2.548 -32.823  1.00  0.00     0.165 HD
BRANCH  22  26
HETATM   26  C   UNL     1      -6.897   0.143 -31.867  1.00  0.00     0.071 A 
HETATM   27  C   UNL     1      -7.508  -0.327 -33.042  1.00  0.00     0.097 A 
HETATM   28  C   UNL     1      -6.813  -1.198 -33.892  1.00  0.00     0.077 A 
HETATM   29  C   UNL     1      -5.506  -1.602 -33.583  1.00  0.00     0.092 A 
HETATM   30  C   UNL     1      -4.921  -1.147 -32.392  1.00  0.00     0.069 A 
HETATM   31 CL   UNL     1      -3.322  -1.615 -31.917  1.00  0.00    -0.081 Cl
HETATM   32  C   UNL     1      -5.615  -0.293 -31.536  1.00  0.00     0.059 A 
BRANCH  27  33
HETATM   33  O   UNL     1      -8.785   0.124 -33.269  1.00  0.00    -0.354 OA
HETATM   34  C   UNL     1      -8.961   0.986 -34.391  1.00  0.00     0.210 C 
ENDBRANCH  27  33
BRANCH  29  35
HETATM   35  O   UNL     1      -4.744  -2.434 -34.359  1.00  0.00    -0.354 OA
HETATM   36  C   UNL     1      -5.365  -3.590 -34.906  1.00  0.00     0.210 C 
ENDBRANCH  29  35
ENDBRANCH  22  26
ENDBRANCH   1  20
TORSDOF 7
ENDMDL
MODEL 3
REMARK VINA RESULT:      -7.6      2.602      4.716
REMARK  7 active torsions:
REMARK  status: ('A' for Active; 'I' for Inactive)
REMARK    1  A    between atoms: C_2  and  N_3 
REMARK    2  A    between atoms: C_8  and  C_9 
REMARK    3  A    between atoms: C_9  and  N_10 
REMARK       I    between atoms: N_10  and  C_11 
REMARK       I    between atoms: C_11  and  N_12 
REMARK    4  A    between atoms: N_12  and  C_13 
REMARK    5  A    between atoms: C_14  and  O_15 
REMARK    6  A    between atoms: C_18  and  O_19 
REMARK    7  A    between atoms: C_26  and  N_27 
ROOT
HETATM    1  C   UNL     1      -5.934   5.566 -32.896  1.00  0.00     0.118 C 
HETATM    2  C   UNL     1      -6.781   6.766 -32.476  1.00  0.00     0.037 C 
ENDROOT
BRANCH   1   3
HETATM    3  C   UNL     1      -6.279   4.305 -32.115  1.00  0.00     0.006 C 
HETATM    4  C   UNL     1      -6.481   2.985 -32.706  1.00  0.00    -0.031 C 
HETATM    5  C   UNL     1      -6.928   2.066 -31.775  1.00  0.00     0.017 C 
HETATM    6  C   UNL     1      -6.225   2.556 -34.128  1.00  0.00     0.068 C 
HETATM    7  C   UNL     1      -7.248   0.637 -32.050  1.00  0.00     0.281 C 
HETATM    8  S   UNL     1      -7.105   2.727 -30.232  1.00  0.00    -0.074 SA
HETATM    9  N   UNL     1      -6.563   0.163 -33.327  1.00  0.00    -0.067 N 
HETATM   10  H   UNL     1      -7.035  -0.708 -33.601  1.00  0.00     0.280 HD
HETATM   11  C   UNL     1      -6.828   1.173 -34.447  1.00  0.00     0.240 C 
HETATM   12  C   UNL     1      -6.468   4.226 -30.735  1.00  0.00     0.089 C 
BRANCH   9  13
HETATM   13  C   UNL     1      -5.093  -0.158 -33.163  1.00  0.00     0.231 C 
HETATM   14  C   UNL     1      -4.761  -1.524 -33.736  1.00  0.00     0.034 C 
ENDBRANCH   9  13
BRANCH  12  15
HETATM   15  N   UNL     1      -6.176   5.165 -29.721  1.00  0.00    -0.327 N 
HETATM   16  C   UNL     1      -7.055   5.699 -28.787  1.00  0.00     0.097 A 
HETATM   17  C   UNL     1      -6.379   6.544 -27.936  1.00  0.00     0.019 A 
HETATM   18  C   UNL     1      -5.028   6.523 -28.322  1.00  0.00     0.019 A 
HETATM   19  C   UNL     1      -4.926   5.665 -29.394  1.00  0.00     0.097 A 
ENDBRANCH  12  15
ENDBRANCH   1   3
BRANCH   1  20
HETATM   20  N   UNL     1      -4.513   5.849 -32.728  1.00  0.00    -0.334 N 
HETATM   21  C   UNL     1      -3.691   5.888 -33.830  1.00  0.00     0.321 C 
HETATM   22  N   UNL     1      -2.455   6.432 -33.618  1.00  0.00    -0.306 N 
HETATM   23  O   UNL     1      -4.052   5.570 -34.957  1.00  0.00    -0.247 OA
HETATM   24  H   UNL     1      -2.036   6.838 -34.451  1.00  0.00     0.171 HD
HETATM   25  H   UNL     1      -4.288   6.589 -32.079  1.00  0.00     0.165 HD
BRANCH  22  26
HETATM   26  C   UNL     1      -1.699   6.552 -32.435  1.00  0.00     0.071 A 
HETATM   27  C   UNL     1      -1.948   7.641 -31.583  1.00  0.00     0.097 A 
HETATM   28  C   UNL     1      -1.202   7.792 -30.406  1.00  0.00     0.077 A 
HETATM   29  C   UNL     1      -0.210   6.860 -30.066  1.00  0.00     0.092 A 
HETATM   30  C   UNL     1       0.046   5.796 -30.943  1.00  0.00     0.069 A 
HETATM   31 CL   UNL     1       1.269   4.613 -30.619  1.00  0.00    -0.081 Cl
HETATM   32  C   UNL     1      -0.684   5.651 -32.123  1.00  0.00     0.059 A 
BRANCH  27  33
HETATM   33  O   UNL     1      -2.941   8.499 -31.988  1.00  0.00    -0.354 OA
HETATM   34  C   UNL     1      -3.846   8.940 -30.979  1.00  0.00     0.210 C 
ENDBRANCH  27  33
BRANCH  29  35
HETATM   35  O   UNL     1       0.555   6.915 -28.932  1.00  0.00    -0.354 OA
HETATM   36  C   UNL     1      -0.022   6.456 -27.716  1.00  0.00     0.210 C 
ENDBRANCH  29  35
ENDBRANCH  22  26
ENDBRANCH   1  20
TORSDOF 7
ENDMDL
MODEL 4
REMARK VINA RESULT:      -7.6      1.686      2.270
REMARK  7 active torsions:
REMARK  status: ('A' for Active; 'I' for Inactive)
REMARK    1  A    between atoms: C_2  and  N_3 
REMARK    2  A    between atoms: C_8  and  C_9 
REMARK    3  A    between atoms: C_9  and  N_10 
REMARK       I    between atoms: N_10  and  C_11 
REMARK       I    between atoms: C_11  and  N_12 
REMARK    4  A    between atoms: N_12  and  C_13 
REMARK    5  A    between atoms: C_14  and  O_15 
REMARK    6  A    between atoms: C_18  and  O_19 
REMARK    7  A    between atoms: C_26  and  N_27 
ROOT
HETATM    1  C   UNL     1      -7.040   2.931 -31.919  1.00  0.00     0.118 C 
HETATM    2  C   UNL     1      -7.305   2.627 -30.446  1.00  0.00     0.037 C 
ENDROOT
BRANCH   1   3
HETATM    3  C   UNL     1      -6.786   1.674 -32.740  1.00  0.00     0.006 C 
HETATM    4  C   UNL     1      -5.514   0.960 -32.804  1.00  0.00    -0.031 C 
HETATM    5  C   UNL     1      -5.538  -0.055 -33.743  1.00  0.00     0.017 C 
HETATM    6  C   UNL     1      -4.280   1.187 -31.969  1.00  0.00     0.068 C 
HETATM    7  C   UNL     1      -4.402  -0.962 -34.070  1.00  0.00     0.281 C 
HETATM    8  S   UNL     1      -7.022  -0.181 -34.535  1.00  0.00    -0.074 SA
HETATM    9  N   UNL     1      -3.388  -0.994 -32.933  1.00  0.00    -0.067 N 
HETATM   10  H   UNL     1      -2.527  -1.396 -33.325  1.00  0.00     0.280 HD
HETATM   11  C   UNL     1      -3.047   0.441 -32.518  1.00  0.00     0.240 C 
HETATM   12  C   UNL     1      -7.716   1.032 -33.559  1.00  0.00     0.089 C 
BRANCH   9  13
HETATM   13  C   UNL     1      -3.792  -1.862 -31.760  1.00  0.00     0.231 C 
HETATM   14  C   UNL     1      -3.062  -3.193 -31.783  1.00  0.00     0.034 C 
ENDBRANCH   9  13
BRANCH  12  15
HETATM   15  N   UNL     1      -9.114   1.209 -33.661  1.00  0.00    -0.327 N 
HETATM   16  C   UNL     1      -9.790   2.214 -34.341  1.00  0.00     0.097 A 
HETATM   17  C   UNL     1     -11.149   2.012 -34.245  1.00  0.00     0.019 A 
HETATM   18  C   UNL     1     -11.340   0.829 -33.511  1.00  0.00     0.019 A 
HETATM   19  C   UNL     1     -10.091   0.349 -33.184  1.00  0.00     0.097 A 
ENDBRANCH  12  15
ENDBRANCH   1   3
BRANCH   1  20
HETATM   20  N   UNL     1      -5.899   3.827 -32.069  1.00  0.00    -0.334 N 
HETATM   21  C   UNL     1      -5.790   4.611 -33.194  1.00  0.00     0.321 C 
HETATM   22  N   UNL     1      -4.861   5.611 -33.122  1.00  0.00    -0.306 N 
HETATM   23  O   UNL     1      -6.535   4.514 -34.162  1.00  0.00    -0.247 OA
HETATM   24  H   UNL     1      -5.064   6.404 -33.726  1.00  0.00     0.171 HD
HETATM   25  H   UNL     1      -5.635   4.342 -31.241  1.00  0.00     0.165 HD
BRANCH  22  26
HETATM   26  C   UNL     1      -3.705   5.730 -32.325  1.00  0.00     0.071 A 
HETATM   27  C   UNL     1      -2.501   5.181 -32.797  1.00  0.00     0.097 A 
HETATM   28  C   UNL     1      -1.339   5.273 -32.019  1.00  0.00     0.077 A 
HETATM   29  C   UNL     1      -1.365   5.916 -30.773  1.00  0.00     0.092 A 
HETATM   30  C   UNL     1      -2.582   6.432 -30.304  1.00  0.00     0.069 A 
HETATM   31 CL   UNL     1      -2.713   7.218 -28.766  1.00  0.00    -0.081 Cl
HETATM   32  C   UNL     1      -3.743   6.328 -31.068  1.00  0.00     0.059 A 
BRANCH  27  33
HETATM   33  O   UNL     1      -2.564   4.578 -34.029  1.00  0.00    -0.354 OA
HETATM   34  C   UNL     1      -1.665   5.067 -35.020  1.00  0.00     0.210 C 
ENDBRANCH  27  33
BRANCH  29  35
HETATM   35  O   UNL     1      -0.279   6.070 -29.953  1.00  0.00    -0.354 OA
HETATM   36  C   UNL     1       0.597   4.960 -29.792  1.00  0.00     0.210 C 
ENDBRANCH  29  35
ENDBRANCH  22  26
ENDBRANCH   1  20
TORSDOF 7
ENDMDL
MODEL 5
REMARK VINA RESULT:      -7.5      3.670      7.338
REMARK  7 active torsions:
REMARK  status: ('A' for Active; 'I' for Inactive)
REMARK    1  A    between atoms: C_2  and  N_3 
REMARK    2  A    between atoms: C_8  and  C_9 
REMARK    3  A    between atoms: C_9  and  N_10 
REMARK       I    between atoms: N_10  and  C_11 
REMARK       I    between atoms: C_11  and  N_12 
REMARK    4  A    between atoms: N_12  and  C_13 
REMARK    5  A    between atoms: C_14  and  O_15 
REMARK    6  A    between atoms: C_18  and  O_19 
REMARK    7  A    between atoms: C_26  and  N_27 
ROOT
HETATM    1  C   UNL     1      -4.992   6.678 -30.352  1.00  0.00     0.118 C 
HETATM    2  C   UNL     1      -5.770   7.665 -31.220  1.00  0.00     0.037 C 
ENDROOT
BRANCH   1   3
HETATM    3  C   UNL     1      -3.628   6.335 -30.937  1.00  0.00     0.006 C 
HETATM    4  C   UNL     1      -2.349   6.789 -30.398  1.00  0.00    -0.031 C 
HETATM    5  C   UNL     1      -1.292   6.447 -31.220  1.00  0.00     0.017 C 
HETATM    6  C   UNL     1      -2.094   7.509 -29.098  1.00  0.00     0.068 C 
HETATM    7  C   UNL     1       0.141   6.773 -30.973  1.00  0.00     0.281 C 
HETATM    8  S   UNL     1      -1.777   5.602 -32.598  1.00  0.00    -0.074 SA
HETATM    9  N   UNL     1       0.383   7.074 -29.498  1.00  0.00    -0.067 N 
HETATM   10  H   UNL     1       1.292   7.550 -29.446  1.00  0.00     0.280 HD
HETATM   11  C   UNL     1      -0.663   8.079 -29.009  1.00  0.00     0.240 C 
HETATM   12  C   UNL     1      -3.399   5.558 -32.073  1.00  0.00     0.089 C 
BRANCH   9  13
HETATM   13  C   UNL     1       0.471   5.845 -28.617  1.00  0.00     0.231 C 
HETATM   14  C   UNL     1       1.134   4.691 -29.346  1.00  0.00     0.034 C 
ENDBRANCH   9  13
BRANCH  12  15
HETATM   15  N   UNL     1      -4.282   4.732 -32.805  1.00  0.00    -0.327 N 
HETATM   16  C   UNL     1      -4.484   3.367 -32.649  1.00  0.00     0.097 A 
HETATM   17  C   UNL     1      -5.461   2.935 -33.517  1.00  0.00     0.019 A 
HETATM   18  C   UNL     1      -5.915   4.064 -34.221  1.00  0.00     0.019 A 
HETATM   19  C   UNL     1      -5.198   5.145 -33.759  1.00  0.00     0.097 A 
ENDBRANCH  12  15
ENDBRANCH   1   3
BRANCH   1  20
HETATM   20  N   UNL     1      -5.746   5.443 -30.165  1.00  0.00    -0.334 N 
HETATM   21  C   UNL     1      -6.082   5.036 -28.895  1.00  0.00     0.321 C 
HETATM   22  N   UNL     1      -7.017   4.041 -28.829  1.00  0.00    -0.306 N 
HETATM   23  O   UNL     1      -5.675   5.583 -27.877  1.00  0.00    -0.247 OA
HETATM   24  H   UNL     1      -7.554   4.039 -27.965  1.00  0.00     0.171 HD
HETATM   25  H   UNL     1      -6.509   5.294 -30.809  1.00  0.00     0.165 HD
BRANCH  22  26
HETATM   26  C   UNL     1      -7.374   3.057 -29.772  1.00  0.00     0.071 A 
HETATM   27  C   UNL     1      -8.605   3.177 -30.439  1.00  0.00     0.097 A 
HETATM   28  C   UNL     1      -8.992   2.206 -31.372  1.00  0.00     0.077 A 
HETATM   29  C   UNL     1      -8.156   1.115 -31.654  1.00  0.00     0.092 A 
HETATM   30  C   UNL     1      -6.944   0.995 -30.958  1.00  0.00     0.069 A 
HETATM   31 CL   UNL     1      -5.861  -0.331 -31.222  1.00  0.00    -0.081 Cl
HETATM   32  C   UNL     1      -6.563   1.951 -30.017  1.00  0.00     0.059 A 
BRANCH  27  33
HETATM   33  O   UNL     1      -9.356   4.278 -30.108  1.00  0.00    -0.354 OA
HETATM   34  C   UNL     1     -10.726   4.251 -30.502  1.00  0.00     0.210 C 
ENDBRANCH  27  33
BRANCH  29  35
HETATM   35  O   UNL     1      -8.440   0.129 -32.560  1.00  0.00    -0.354 OA
HETATM   36  C   UNL     1      -9.476   0.371 -33.505  1.00  0.00     0.210 C 
ENDBRANCH  29  35
ENDBRANCH  22  26
ENDBRANCH   1  20
TORSDOF 7
ENDMDL
MODEL 6
REMARK VINA RESULT:      -7.3      3.149      7.246
REMARK  7 active torsions:
REMARK  status: ('A' for Active; 'I' for Inactive)
REMARK    1  A    between atoms: C_2  and  N_3 
REMARK    2  A    between atoms: C_8  and  C_9 
REMARK    3  A    between atoms: C_9  and  N_10 
REMARK       I    between atoms: N_10  and  C_11 
REMARK       I    between atoms: C_11  and  N_12 
REMARK    4  A    between atoms: N_12  and  C_13 
REMARK    5  A    between atoms: C_14  and  O_15 
REMARK    6  A    between atoms: C_18  and  O_19 
REMARK    7  A    between atoms: C_26  and  N_27 
ROOT
HETATM    1  C   UNL     1      -5.679   4.423 -33.169  1.00  0.00     0.118 C 
HETATM    2  C   UNL     1      -5.275   4.733 -34.609  1.00  0.00     0.037 C 
ENDROOT
BRANCH   1   3
HETATM    3  C   UNL     1      -4.958   3.204 -32.609  1.00  0.00     0.006 C 
HETATM    4  C   UNL     1      -5.517   1.857 -32.549  1.00  0.00    -0.031 C 
HETATM    5  C   UNL     1      -4.694   0.988 -31.856  1.00  0.00     0.017 C 
HETATM    6  C   UNL     1      -6.797   1.355 -33.167  1.00  0.00     0.068 C 
HETATM    7  C   UNL     1      -4.976  -0.453 -31.598  1.00  0.00     0.281 C 
HETATM    8  S   UNL     1      -3.288   1.726 -31.288  1.00  0.00    -0.074 SA
HETATM    9  N   UNL     1      -6.000  -0.993 -32.589  1.00  0.00    -0.067 N 
HETATM   10  H   UNL     1      -6.347  -1.875 -32.193  1.00  0.00     0.280 HD
HETATM   11  C   UNL     1      -7.198  -0.041 -32.648  1.00  0.00     0.240 C 
HETATM   12  C   UNL     1      -3.675   3.196 -32.060  1.00  0.00     0.089 C 
BRANCH   9  13
HETATM   13  C   UNL     1      -5.436  -1.310 -33.958  1.00  0.00     0.231 C 
HETATM   14  C   UNL     1      -6.393  -2.172 -34.762  1.00  0.00     0.034 C 
ENDBRANCH   9  13
BRANCH  12  15
HETATM   15  N   UNL     1      -2.667   4.185 -32.087  1.00  0.00    -0.327 N 
HETATM   16  C   UNL     1      -1.839   4.517 -33.152  1.00  0.00     0.097 A 
HETATM   17  C   UNL     1      -1.020   5.566 -32.800  1.00  0.00     0.019 A 
HETATM   18  C   UNL     1      -1.359   5.931 -31.486  1.00  0.00     0.019 A 
HETATM   19  C   UNL     1      -2.373   5.092 -31.081  1.00  0.00     0.097 A 
ENDBRANCH  12  15
ENDBRANCH   1   3
BRANCH   1  20
HETATM   20  N   UNL     1      -7.118   4.205 -33.068  1.00  0.00    -0.334 N 
HETATM   21  C   UNL     1      -7.827   4.797 -32.049  1.00  0.00     0.321 C 
HETATM   22  N   UNL     1      -9.186   4.773 -32.193  1.00  0.00    -0.306 N 
HETATM   23  O   UNL     1      -7.304   5.407 -31.124  1.00  0.00    -0.247 OA
HETATM   24  H   UNL     1      -9.663   5.531 -31.711  1.00  0.00     0.171 HD
HETATM   25  H   UNL     1      -7.629   4.244 -33.938  1.00  0.00     0.165 HD
BRANCH  22  26
HETATM   26  C   UNL     1     -10.013   3.900 -32.926  1.00  0.00     0.071 A 
HETATM   27  C   UNL     1     -10.848   4.437 -33.921  1.00  0.00     0.097 A 
HETATM   28  C   UNL     1     -11.691   3.594 -34.657  1.00  0.00     0.077 A 
HETATM   29  C   UNL     1     -11.705   2.212 -34.413  1.00  0.00     0.092 A 
HETATM   30  C   UNL     1     -10.888   1.697 -33.397  1.00  0.00     0.069 A 
HETATM   31 CL   UNL     1     -10.859   0.009 -33.009  1.00  0.00    -0.081 Cl
HETATM   32  C   UNL     1     -10.059   2.535 -32.652  1.00  0.00     0.059 A 
BRANCH  27  33
HETATM   33  O   UNL     1     -10.765   5.796 -34.097  1.00  0.00    -0.354 OA
HETATM   34  C   UNL     1     -10.391   6.244 -35.397  1.00  0.00     0.210 C 
ENDBRANCH  27  33
BRANCH  29  35
HETATM   35  O   UNL     1     -12.480   1.310 -35.091  1.00  0.00    -0.354 OA
HETATM   36  C   UNL     1     -13.784   1.042 -34.590  1.00  0.00     0.210 C 
ENDBRANCH  29  35
ENDBRANCH  22  26
ENDBRANCH   1  20
TORSDOF 7
ENDMDL
MODEL 7
REMARK VINA RESULT:      -7.1      3.812      7.468
REMARK  7 active torsions:
REMARK  status: ('A' for Active; 'I' for Inactive)
REMARK    1  A    between atoms: C_2  and  N_3 
REMARK    2  A    between atoms: C_8  and  C_9 
REMARK    3  A    between atoms: C_9  and  N_10 
REMARK       I    between atoms: N_10  and  C_11 
REMARK       I    between atoms: C_11  and  N_12 
REMARK    4  A    between atoms: N_12  and  C_13 
REMARK    5  A    between atoms: C_14  and  O_15 
REMARK    6  A    between atoms: C_18  and  O_19 
REMARK    7  A    between atoms: C_26  and  N_27 
ROOT
HETATM    1  C   UNL     1      -5.068   6.981 -30.286  1.00  0.00     0.118 C 
HETATM    2  C   UNL     1      -5.770   8.063 -31.104  1.00  0.00     0.037 C 
ENDROOT
BRANCH   1   3
HETATM    3  C   UNL     1      -3.746   6.545 -30.905  1.00  0.00     0.006 C 
HETATM    4  C   UNL     1      -2.426   6.933 -30.416  1.00  0.00    -0.031 C 
HETATM    5  C   UNL     1      -1.418   6.510 -31.263  1.00  0.00     0.017 C 
HETATM    6  C   UNL     1      -2.086   7.662 -29.142  1.00  0.00     0.068 C 
HETATM    7  C   UNL     1       0.039   6.755 -31.068  1.00  0.00     0.281 C 
HETATM    8  S   UNL     1      -1.998   5.668 -32.606  1.00  0.00    -0.074 SA
HETATM    9  N   UNL     1       0.346   7.070 -29.608  1.00  0.00    -0.067 N 
HETATM   10  H   UNL     1       1.283   7.492 -29.595  1.00  0.00     0.280 HD
HETATM   11  C   UNL     1      -0.622   8.147 -29.109  1.00  0.00     0.240 C 
HETATM   12  C   UNL     1      -3.601   5.733 -32.030  1.00  0.00     0.089 C 
BRANCH   9  13
HETATM   13  C   UNL     1       0.390   5.857 -28.703  1.00  0.00     0.231 C 
HETATM   14  C   UNL     1       1.075   4.687 -29.385  1.00  0.00     0.034 C 
ENDBRANCH   9  13
BRANCH  12  15
HETATM   15  N   UNL     1      -4.555   4.947 -32.715  1.00  0.00    -0.327 N 
HETATM   16  C   UNL     1      -5.515   5.382 -33.619  1.00  0.00     0.097 A 
HETATM   17  C   UNL     1      -6.222   4.306 -34.107  1.00  0.00     0.019 A 
HETATM   18  C   UNL     1      -5.674   3.152 -33.520  1.00  0.00     0.019 A 
HETATM   19  C   UNL     1      -4.651   3.564 -32.694  1.00  0.00     0.097 A 
ENDBRANCH  12  15
ENDBRANCH   1   3
BRANCH   1  20
HETATM   20  N   UNL     1      -5.922   5.809 -30.130  1.00  0.00    -0.334 N 
HETATM   21  C   UNL     1      -5.981   5.165 -28.916  1.00  0.00     0.321 C 
HETATM   22  N   UNL     1      -7.004   4.268 -28.780  1.00  0.00    -0.306 N 
HETATM   23  O   UNL     1      -5.252   5.434 -27.969  1.00  0.00    -0.247 OA
HETATM   24  H   UNL     1      -7.298   4.124 -27.817  1.00  0.00     0.171 HD
HETATM   25  H   UNL     1      -6.838   5.876 -30.551  1.00  0.00     0.165 HD
BRANCH  22  26
HETATM   26  C   UNL     1      -7.730   3.554 -29.753  1.00  0.00     0.071 A 
HETATM   27  C   UNL     1      -7.184   2.363 -30.263  1.00  0.00     0.097 A 
HETATM   28  C   UNL     1      -7.878   1.639 -31.241  1.00  0.00     0.077 A 
HETATM   29  C   UNL     1      -9.120   2.089 -31.714  1.00  0.00     0.092 A 
HETATM   30  C   UNL     1      -9.636   3.294 -31.216  1.00  0.00     0.069 A 
HETATM   31 CL   UNL     1     -11.149   3.939 -31.760  1.00  0.00    -0.081 Cl
HETATM   32  C   UNL     1      -8.941   4.025 -30.254  1.00  0.00     0.059 A 
BRANCH  27  33
HETATM   33  O   UNL     1      -5.970   1.994 -29.740  1.00  0.00    -0.354 OA
HETATM   34  C   UNL     1      -5.693   0.596 -29.709  1.00  0.00     0.210 C 
ENDBRANCH  27  33
BRANCH  29  35
HETATM   35  O   UNL     1      -9.877   1.441 -32.652  1.00  0.00    -0.354 OA
HETATM   36  C   UNL     1      -9.506   0.115 -33.009  1.00  0.00     0.210 C 
ENDBRANCH  29  35
ENDBRANCH  22  26
ENDBRANCH   1  20
TORSDOF 7
ENDMDL
MODEL 8
REMARK VINA RESULT:      -7.1      1.860      2.262
REMARK  7 active torsions:
REMARK  status: ('A' for Active; 'I' for Inactive)
REMARK    1  A    between atoms: C_2  and  N_3 
REMARK    2  A    between atoms: C_8  and  C_9 
REMARK    3  A    between atoms: C_9  and  N_10 
REMARK       I    between atoms: N_10  and  C_11 
REMARK       I    between atoms: C_11  and  N_12 
REMARK    4  A    between atoms: N_12  and  C_13 
REMARK    5  A    between atoms: C_14  and  O_15 
REMARK    6  A    between atoms: C_18  and  O_19 
REMARK    7  A    between atoms: C_26  and  N_27 
ROOT
HETATM    1  C   UNL     1      -7.201   0.769 -31.365  1.00  0.00     0.118 C 
HETATM    2  C   UNL     1      -6.367  -0.041 -30.375  1.00  0.00     0.037 C 
ENDROOT
BRANCH   1   3
HETATM    3  C   UNL     1      -7.185   0.174 -32.767  1.00  0.00     0.006 C 
HETATM    4  C   UNL     1      -6.188  -0.771 -33.263  1.00  0.00    -0.031 C 
HETATM    5  C   UNL     1      -6.341  -1.022 -34.614  1.00  0.00     0.017 C 
HETATM    6  C   UNL     1      -5.110  -1.478 -32.481  1.00  0.00     0.068 C 
HETATM    7  C   UNL     1      -5.481  -1.923 -35.433  1.00  0.00     0.281 C 
HETATM    8  S   UNL     1      -7.632  -0.176 -35.296  1.00  0.00    -0.074 SA
HETATM    9  N   UNL     1      -4.740  -2.918 -34.547  1.00  0.00    -0.067 N 
HETATM   10  H   UNL     1      -3.980  -3.304 -35.122  1.00  0.00     0.280 HD
HETATM   11  C   UNL     1      -4.074  -2.168 -33.391  1.00  0.00     0.240 C 
HETATM   12  C   UNL     1      -8.101   0.451 -33.782  1.00  0.00     0.089 C 
BRANCH   9  13
HETATM   13  C   UNL     1      -5.583  -4.086 -34.080  1.00  0.00     0.231 C 
HETATM   14  C   UNL     1      -6.521  -4.561 -35.174  1.00  0.00     0.034 C 
ENDBRANCH   9  13
BRANCH  12  15
HETATM   15  N   UNL     1      -9.344   1.120 -33.729  1.00  0.00    -0.327 N 
HETATM   16  C   UNL     1      -9.636   2.397 -34.190  1.00  0.00     0.097 A 
HETATM   17  C   UNL     1     -10.972   2.670 -34.000  1.00  0.00     0.019 A 
HETATM   18  C   UNL     1     -11.551   1.523 -33.431  1.00  0.00     0.019 A 
HETATM   19  C   UNL     1     -10.548   0.589 -33.293  1.00  0.00     0.097 A 
ENDBRANCH  12  15
ENDBRANCH   1   3
BRANCH   1  20
HETATM   20  N   UNL     1      -6.730   2.148 -31.436  1.00  0.00    -0.334 N 
HETATM   21  C   UNL     1      -7.569   3.174 -31.068  1.00  0.00     0.321 C 
HETATM   22  N   UNL     1      -6.966   4.388 -30.895  1.00  0.00    -0.306 N 
HETATM   23  O   UNL     1      -8.755   3.018 -30.800  1.00  0.00    -0.247 OA
HETATM   24  H   UNL     1      -7.456   5.002 -30.248  1.00  0.00     0.171 HD
HETATM   25  H   UNL     1      -5.791   2.308 -31.101  1.00  0.00     0.165 HD
BRANCH  22  26
HETATM   26  C   UNL     1      -5.768   4.900 -31.432  1.00  0.00     0.071 A 
HETATM   27  C   UNL     1      -4.851   5.519 -30.566  1.00  0.00     0.097 A 
HETATM   28  C   UNL     1      -3.657   6.049 -31.075  1.00  0.00     0.077 A 
HETATM   29  C   UNL     1      -3.366   5.960 -32.444  1.00  0.00     0.092 A 
HETATM   30  C   UNL     1      -4.306   5.366 -33.299  1.00  0.00     0.069 A 
HETATM   31 CL   UNL     1      -4.042   5.236 -35.006  1.00  0.00    -0.081 Cl
HETATM   32  C   UNL     1      -5.501   4.852 -32.798  1.00  0.00     0.059 A 
BRANCH  27  33
HETATM   33  O   UNL     1      -5.213   5.555 -29.242  1.00  0.00    -0.354 OA
HETATM   34  C   UNL     1      -4.756   6.677 -28.491  1.00  0.00     0.210 C 
ENDBRANCH  27  33
BRANCH  29  35
HETATM   35  O   UNL     1      -2.221   6.432 -33.029  1.00  0.00    -0.354 OA
HETATM   36  C   UNL     1      -1.046   5.636 -32.930  1.00  0.00     0.210 C 
ENDBRANCH  29  35
ENDBRANCH  22  26
ENDBRANCH   1  20
TORSDOF 7
ENDMDL
MODEL 9
REMARK VINA RESULT:      -7.1      1.928      5.007
REMARK  7 active torsions:
REMARK  status: ('A' for Active; 'I' for Inactive)
REMARK    1  A    between atoms: C_2  and  N_3 
REMARK    2  A    between atoms: C_8  and  C_9 
REMARK    3  A    between atoms: C_9  and  N_10 
REMARK       I    between atoms: N_10  and  C_11 
REMARK       I    between atoms: C_11  and  N_12 
REMARK    4  A    between atoms: N_12  and  C_13 
REMARK    5  A    between atoms: C_14  and  O_15 
REMARK    6  A    between atoms: C_18  and  O_19 
REMARK    7  A    between atoms: C_26  and  N_27 
ROOT
HETATM    1  C   UNL     1      -6.864   2.151 -30.400  1.00  0.00     0.118 C 
HETATM    2  C   UNL     1      -6.019   1.112 -29.665  1.00  0.00     0.037 C 
ENDROOT
BRANCH   1   3
HETATM    3  C   UNL     1      -7.444   1.617 -31.703  1.00  0.00     0.006 C 
HETATM    4  C   UNL     1      -8.731   2.011 -32.268  1.00  0.00    -0.031 C 
HETATM    5  C   UNL     1      -9.062   1.254 -33.377  1.00  0.00     0.017 C 
HETATM    6  C   UNL     1      -9.647   3.118 -31.809  1.00  0.00     0.068 C 
HETATM    7  C   UNL     1     -10.312   1.387 -34.178  1.00  0.00     0.281 C 
HETATM    8  S   UNL     1      -7.888   0.104 -33.761  1.00  0.00    -0.074 SA
HETATM    9  N   UNL     1     -10.949   2.755 -33.966  1.00  0.00    -0.067 N 
HETATM   10  H   UNL     1     -11.915   2.679 -34.308  1.00  0.00     0.280 HD
HETATM   11  C   UNL     1     -11.040   3.044 -32.465  1.00  0.00     0.240 C 
HETATM   12  C   UNL     1      -6.847   0.669 -32.534  1.00  0.00     0.089 C 
BRANCH   9  13
HETATM   13  C   UNL     1     -10.289   3.878 -34.740  1.00  0.00     0.231 C 
HETATM   14  C   UNL     1     -11.295   4.948 -35.122  1.00  0.00     0.034 C 
ENDBRANCH   9  13
BRANCH  12  15
HETATM   15  N   UNL     1      -5.530   0.157 -32.532  1.00  0.00    -0.327 N 
HETATM   16  C   UNL     1      -4.349   0.866 -32.709  1.00  0.00     0.097 A 
HETATM   17  C   UNL     1      -3.271   0.017 -32.592  1.00  0.00     0.019 A 
HETATM   18  C   UNL     1      -3.780  -1.260 -32.300  1.00  0.00     0.019 A 
HETATM   19  C   UNL     1      -5.152  -1.147 -32.250  1.00  0.00     0.097 A 
ENDBRANCH  12  15
ENDBRANCH   1   3
BRANCH   1  20
HETATM   20  N   UNL     1      -6.082   3.347 -30.689  1.00  0.00    -0.334 N 
HETATM   21  C   UNL     1      -6.406   4.537 -30.081  1.00  0.00     0.321 C 
HETATM   22  N   UNL     1      -5.464   5.523 -30.186  1.00  0.00    -0.306 N 
HETATM   23  O   UNL     1      -7.408   4.697 -29.395  1.00  0.00    -0.247 OA
HETATM   24  H   UNL     1      -5.495   6.202 -29.429  1.00  0.00     0.171 HD
HETATM   25  H   UNL     1      -5.081   3.218 -30.725  1.00  0.00     0.165 HD
BRANCH  22  26
HETATM   26  C   UNL     1      -4.448   5.719 -31.141  1.00  0.00     0.071 A 
HETATM   27  C   UNL     1      -4.810   5.871 -32.490  1.00  0.00     0.097 A 
HETATM   28  C   UNL     1      -3.818   6.054 -33.463  1.00  0.00     0.077 A 
HETATM   29  C   UNL     1      -2.463   6.093 -33.102  1.00  0.00     0.092 A 
HETATM   30  C   UNL     1      -2.118   5.909 -31.755  1.00  0.00     0.069 A 
HETATM   31 CL   UNL     1      -0.470   5.915 -31.221  1.00  0.00    -0.081 Cl
HETATM   32  C   UNL     1      -3.100   5.711 -30.786  1.00  0.00     0.059 A 
BRANCH  27  33
HETATM   33  O   UNL     1      -6.156   5.828 -32.753  1.00  0.00    -0.354 OA
HETATM   34  C   UNL     1      -6.565   4.983 -33.825  1.00  0.00     0.210 C 
ENDBRANCH  27  33
BRANCH  29  35
HETATM   35  O   UNL     1      -1.428   6.284 -33.978  1.00  0.00    -0.354 OA
HETATM   36  C   UNL     1      -1.208   5.295 -34.975  1.00  0.00     0.210 C 
ENDBRANCH  29  35
ENDBRANCH  22  26
ENDBRANCH   1  20
TORSDOF 7
ENDMDL
MODEL 10
REMARK VINA RESULT:      -7.1      3.449      7.604
REMARK  7 active torsions:
REMARK  status: ('A' for Active; 'I' for Inactive)
REMARK    1  A    between atoms: C_2  and  N_3 
REMARK    2  A    between atoms: C_8  and  C_9 
REMARK    3  A    between atoms: C_9  and  N_10 
REMARK       I    between atoms: N_10  and  C_11 
REMARK       I    between atoms: C_11  and  N_12 
REMARK    4  A    between atoms: N_12  and  C_13 
REMARK    5  A    between atoms: C_14  and  O_15 
REMARK    6  A    between atoms: C_18  and  O_19 
REMARK    7  A    between atoms: C_26  and  N_27 
ROOT
HETATM    1  C   UNL     1      -5.395   3.379 -29.956  1.00  0.00     0.118 C 
HETATM    2  C   UNL     1      -5.914   4.579 -29.165  1.00  0.00     0.037 C 
ENDROOT
BRANCH   1   3
HETATM    3  C   UNL     1      -4.360   3.772 -31.002  1.00  0.00     0.006 C 
HETATM    4  C   UNL     1      -3.866   5.129 -31.220  1.00  0.00    -0.031 C 
HETATM    5  C   UNL     1      -3.047   5.207 -32.331  1.00  0.00     0.017 C 
HETATM    6  C   UNL     1      -4.117   6.355 -30.379  1.00  0.00     0.068 C 
HETATM    7  C   UNL     1      -2.393   6.445 -32.843  1.00  0.00     0.281 C 
HETATM    8  S   UNL     1      -2.849   3.722 -33.107  1.00  0.00    -0.074 SA
HETATM    9  N   UNL     1      -2.305   7.504 -31.749  1.00  0.00    -0.067 N 
HETATM   10  H   UNL     1      -2.112   8.394 -32.225  1.00  0.00     0.280 HD
HETATM   11  C   UNL     1      -3.674   7.655 -31.080  1.00  0.00     0.240 C 
HETATM   12  C   UNL     1      -3.748   2.907 -31.909  1.00  0.00     0.089 C 
BRANCH   9  13
HETATM   13  C   UNL     1      -1.187   7.280 -30.752  1.00  0.00     0.231 C 
HETATM   14  C   UNL     1       0.087   6.833 -31.445  1.00  0.00     0.034 C 
ENDBRANCH   9  13
BRANCH  12  15
HETATM   15  N   UNL     1      -3.731   1.495 -31.952  1.00  0.00    -0.327 N 
HETATM   16  C   UNL     1      -4.334   0.672 -32.894  1.00  0.00     0.097 A 
HETATM   17  C   UNL     1      -4.048  -0.646 -32.618  1.00  0.00     0.019 A 
HETATM   18  C   UNL     1      -3.213  -0.658 -31.487  1.00  0.00     0.019 A 
HETATM   19  C   UNL     1      -3.020   0.653 -31.112  1.00  0.00     0.097 A 
ENDBRANCH  12  15
ENDBRANCH   1   3
BRANCH   1  20
HETATM   20  N   UNL     1      -6.490   2.681 -30.619  1.00  0.00    -0.334 N 
HETATM   21  C   UNL     1      -6.753   1.369 -30.301  1.00  0.00     0.321 C 
HETATM   22  N   UNL     1      -7.952   0.888 -30.749  1.00  0.00    -0.306 N 
HETATM   23  O   UNL     1      -6.036   0.690 -29.575  1.00  0.00    -0.247 OA
HETATM   24  H   UNL     1      -8.323   0.123 -30.190  1.00  0.00     0.171 HD
HETATM   25  H   UNL     1      -7.345   3.208 -30.726  1.00  0.00     0.165 HD
BRANCH  22  26
HETATM   26  C   UNL     1      -8.761   1.306 -31.824  1.00  0.00     0.071 A 
HETATM   27  C   UNL     1      -8.632   0.651 -33.060  1.00  0.00     0.097 A 
HETATM   28  C   UNL     1      -9.414   1.054 -34.150  1.00  0.00     0.077 A 
HETATM   29  C   UNL     1     -10.333   2.106 -34.017  1.00  0.00     0.092 A 
HETATM   30  C   UNL     1     -10.428   2.769 -32.785  1.00  0.00     0.069 A 
HETATM   31 CL   UNL     1     -11.515   4.094 -32.536  1.00  0.00    -0.081 Cl
HETATM   32  C   UNL     1      -9.640   2.380 -31.702  1.00  0.00     0.059 A 
BRANCH  27  33
HETATM   33  O   UNL     1      -7.716  -0.371 -33.099  1.00  0.00    -0.354 OA
HETATM   34  C   UNL     1      -7.378  -0.869 -34.391  1.00  0.00     0.210 C 
ENDBRANCH  27  33
BRANCH  29  35
HETATM   35  O   UNL     1     -11.151   2.558 -35.018  1.00  0.00    -0.354 OA
HETATM   36  C   UNL     1     -12.332   1.817 -35.299  1.00  0.00     0.210 C 
ENDBRANCH  29  35
ENDBRANCH  22  26
ENDBRANCH   1  20
TORSDOF 7
ENDMDL
