MODEL 1
REMARK VINA RESULT:      -8.3      0.000      0.000
REMARK  6 active torsions:
REMARK  status: ('A' for Active; 'I' for Inactive)
REMARK    1  A    between atoms: C_2  and  C_3 
REMARK       I    between atoms: C_3  and  N_4 
REMARK    2  A    between atoms: N_4  and  C_5 
REMARK    3  A    between atoms: N_6  and  C_7 
REMARK    4  A    between atoms: C_7  and  C_8 
REMARK    5  A    between atoms: C_11  and  O_12 
REMARK    6  A    between atoms: C_20  and  C_21 
ROOT
HETATM    1  C   UNL     1      -7.379   1.365 -31.891  1.00  0.00     0.125 A 
HETATM    2  N   UNL     1      -6.059   0.958 -31.791  1.00  0.00    -0.332 N 
HETATM    3  C   UNL     1      -5.873  -0.169 -32.596  1.00  0.00     0.017 A 
HETATM    4  C   UNL     1      -4.584  -0.926 -32.685  1.00  0.00     0.069 C 
HETATM    5  C   UNL     1      -7.065  -0.444 -33.254  1.00  0.00    -0.022 A 
HETATM    6  C   UNL     1      -7.291  -1.563 -34.211  1.00  0.00     0.051 C 
HETATM    7  C   UNL     1      -8.005   0.524 -32.805  1.00  0.00     0.062 A 
ENDROOT
BRANCH   7   8
HETATM    8  C   UNL     1      -9.444   0.702 -33.202  1.00  0.00     0.143 A 
HETATM    9  N   UNL     1      -9.868   1.677 -33.991  1.00  0.00    -0.228 NA
HETATM   10  C   UNL     1     -11.210   1.455 -34.172  1.00  0.00     0.086 A 
HETATM   11  C   UNL     1     -11.626   0.336 -33.463  1.00  0.00     0.062 A 
HETATM   12  C   UNL     1     -12.142   2.167 -34.941  1.00  0.00     0.034 A 
HETATM   13  N   UNL     1     -10.488  -0.111 -32.843  1.00  0.00    -0.338 N 
HETATM   14  C   UNL     1     -12.942  -0.133 -33.471  1.00  0.00     0.032 A 
HETATM   15  H   UNL     1     -10.423  -0.929 -32.261  1.00  0.00     0.167 HD
HETATM   16  C   UNL     1     -13.858   0.587 -34.247  1.00  0.00     0.002 A 
HETATM   17  C   UNL     1     -13.468   1.717 -34.971  1.00  0.00     0.002 A 
ENDBRANCH   7   8
BRANCH   1  18
HETATM   18  N   UNL     1      -8.052   2.366 -31.197  1.00  0.00    -0.312 N 
HETATM   19  C   UNL     1      -8.147   3.704 -31.503  1.00  0.00     0.222 C 
HETATM   20  O   UNL     1      -7.695   4.263 -32.495  1.00  0.00    -0.273 OA
HETATM   21  H   UNL     1      -8.771   1.992 -30.573  1.00  0.00     0.170 HD
BRANCH  19  22
HETATM   22  C   UNL     1      -8.860   4.514 -30.430  1.00  0.00     0.099 C 
HETATM   23  C   UNL     1      -7.935   5.171 -29.421  1.00  0.00     0.014 C 
ENDBRANCH  19  22
ENDBRANCH   1  18
BRANCH   2  24
HETATM   24  C   UNL     1      -5.040   1.449 -30.856  1.00  0.00     0.169 C 
BRANCH  24  25
HETATM   25  C   UNL     1      -4.328   2.723 -31.275  1.00  0.00    -0.040 A 
HETATM   26  C   UNL     1      -3.365   2.637 -32.292  1.00  0.00     0.011 A 
HETATM   27  C   UNL     1      -2.710   3.781 -32.761  1.00  0.00     0.037 A 
HETATM   28  C   UNL     1      -3.012   5.038 -32.239  1.00  0.00     0.068 A 
HETATM   29  C   UNL     1      -3.952   5.137 -31.217  1.00  0.00     0.037 A 
HETATM   30  C   UNL     1      -4.599   3.990 -30.737  1.00  0.00     0.011 A 
BRANCH  28  31
HETATM   31  O   UNL     1      -2.322   6.078 -32.800  1.00  0.00    -0.356 OA
HETATM   32  C   UNL     1      -2.327   6.152 -34.219  1.00  0.00     0.210 C 
ENDBRANCH  28  31
ENDBRANCH  24  25
ENDBRANCH   2  24
TORSDOF 6
ENDMDL
MODEL 2
REMARK VINA RESULT:      -8.0      3.328      8.488
REMARK  6 active torsions:
REMARK  status: ('A' for Active; 'I' for Inactive)
REMARK    1  A    between atoms: C_2  and  C_3 
REMARK       I    between atoms: C_3  and  N_4 
REMARK    2  A    between atoms: N_4  and  C_5 
REMARK    3  A    between atoms: N_6  and  C_7 
REMARK    4  A    between atoms: C_7  and  C_8 
REMARK    5  A    between atoms: C_11  and  O_12 
REMARK    6  A    between atoms: C_20  and  C_21 
ROOT
HETATM    1  C   UNL     1      -5.343   3.259 -31.543  1.00  0.00     0.125 A 
HETATM    2  N   UNL     1      -6.659   3.158 -31.960  1.00  0.00    -0.332 N 
HETATM    3  C   UNL     1      -7.155   4.441 -32.201  1.00  0.00     0.017 A 
HETATM    4  C   UNL     1      -8.569   4.727 -32.601  1.00  0.00     0.069 C 
HETATM    5  C   UNL     1      -6.132   5.358 -31.989  1.00  0.00    -0.022 A 
HETATM    6  C   UNL     1      -6.244   6.835 -32.141  1.00  0.00     0.051 C 
HETATM    7  C   UNL     1      -4.998   4.605 -31.576  1.00  0.00     0.062 A 
ENDROOT
BRANCH   7   8
HETATM    8  C   UNL     1      -3.616   5.088 -31.230  1.00  0.00     0.143 A 
HETATM    9  N   UNL     1      -2.527   4.706 -31.878  1.00  0.00    -0.228 NA
HETATM   10  C   UNL     1      -1.493   5.414 -31.319  1.00  0.00     0.086 A 
HETATM   11  C   UNL     1      -1.949   6.229 -30.292  1.00  0.00     0.062 A 
HETATM   12  C   UNL     1      -0.129   5.417 -31.645  1.00  0.00     0.034 A 
HETATM   13  N   UNL     1      -3.298   5.989 -30.247  1.00  0.00    -0.338 N 
HETATM   14  C   UNL     1      -1.116   7.070 -29.551  1.00  0.00     0.032 A 
HETATM   15  H   UNL     1      -3.950   6.436 -29.626  1.00  0.00     0.167 HD
HETATM   16  C   UNL     1       0.242   7.065 -29.893  1.00  0.00     0.002 A 
HETATM   17  C   UNL     1       0.730   6.254 -30.921  1.00  0.00     0.002 A 
ENDBRANCH   7   8
BRANCH   1  18
HETATM   18  N   UNL     1      -4.478   2.265 -31.091  1.00  0.00    -0.312 N 
HETATM   19  C   UNL     1      -3.704   1.403 -31.832  1.00  0.00     0.222 C 
HETATM   20  O   UNL     1      -3.586   1.387 -33.051  1.00  0.00    -0.273 OA
HETATM   21  H   UNL     1      -4.193   2.410 -30.120  1.00  0.00     0.170 HD
BRANCH  19  22
HETATM   22  C   UNL     1      -2.988   0.362 -30.983  1.00  0.00     0.099 C 
HETATM   23  C   UNL     1      -2.785  -0.976 -31.670  1.00  0.00     0.014 C 
ENDBRANCH  19  22
ENDBRANCH   1  18
BRANCH   2  24
HETATM   24  C   UNL     1      -7.507   1.960 -31.962  1.00  0.00     0.169 C 
BRANCH  24  25
HETATM   25  C   UNL     1      -7.097   0.870 -32.937  1.00  0.00    -0.040 A 
HETATM   26  C   UNL     1      -6.631  -0.345 -32.411  1.00  0.00     0.011 A 
HETATM   27  C   UNL     1      -6.286  -1.408 -33.253  1.00  0.00     0.037 A 
HETATM   28  C   UNL     1      -6.412  -1.289 -34.636  1.00  0.00     0.068 A 
HETATM   29  C   UNL     1      -6.855  -0.084 -35.174  1.00  0.00     0.037 A 
HETATM   30  C   UNL     1      -7.189   0.986 -34.333  1.00  0.00     0.011 A 
BRANCH  28  31
HETATM   31  O   UNL     1      -6.067  -2.408 -35.346  1.00  0.00    -0.356 OA
HETATM   32  C   UNL     1      -4.992  -3.181 -34.830  1.00  0.00     0.210 C 
ENDBRANCH  28  31
ENDBRANCH  24  25
ENDBRANCH   2  24
TORSDOF 6
ENDMDL
MODEL 3
REMARK VINA RESULT:      -7.8      3.297      5.837
REMARK  6 active torsions:
REMARK  status: ('A' for Active; 'I' for Inactive)
REMARK    1  A    between atoms: C_2  and  C_3 
REMARK       I    between atoms: C_3  and  N_4 
REMARK    2  A    between atoms: N_4  and  C_5 
REMARK    3  A    between atoms: N_6  and  C_7 
REMARK    4  A    between atoms: C_7  and  C_8 
REMARK    5  A    between atoms: C_11  and  O_12 
REMARK    6  A    between atoms: C_20  and  C_21 
ROOT
HETATM    1  C   UNL     1      -5.188   4.641 -32.247  1.00  0.00     0.125 A 
HETATM    2  N   UNL     1      -5.494   5.687 -31.392  1.00  0.00    -0.332 N 
HETATM    3  C   UNL     1      -6.547   5.296 -30.561  1.00  0.00     0.017 A 
HETATM    4  C   UNL     1      -7.192   6.196 -29.553  1.00  0.00     0.069 C 
HETATM    5  C   UNL     1      -6.872   3.976 -30.851  1.00  0.00    -0.022 A 
HETATM    6  C   UNL     1      -7.940   3.179 -30.185  1.00  0.00     0.051 C 
HETATM    7  C   UNL     1      -6.013   3.574 -31.911  1.00  0.00     0.062 A 
ENDROOT
BRANCH   7   8
HETATM    8  C   UNL     1      -5.924   2.242 -32.604  1.00  0.00     0.143 A 
HETATM    9  N   UNL     1      -4.905   1.411 -32.457  1.00  0.00    -0.228 NA
HETATM   10  C   UNL     1      -5.229   0.291 -33.182  1.00  0.00     0.086 A 
HETATM   11  C   UNL     1      -6.460   0.446 -33.807  1.00  0.00     0.062 A 
HETATM   12  C   UNL     1      -4.520  -0.907 -33.348  1.00  0.00     0.034 A 
HETATM   13  N   UNL     1      -6.870   1.700 -33.435  1.00  0.00    -0.338 N 
HETATM   14  C   UNL     1      -7.046  -0.541 -34.603  1.00  0.00     0.032 A 
HETATM   15  H   UNL     1      -7.742   2.129 -33.693  1.00  0.00     0.167 HD
HETATM   16  C   UNL     1      -6.327  -1.732 -34.754  1.00  0.00     0.002 A 
HETATM   17  C   UNL     1      -5.085  -1.915 -34.139  1.00  0.00     0.002 A 
ENDBRANCH   7   8
BRANCH   1  18
HETATM   18  N   UNL     1      -4.291   4.601 -33.311  1.00  0.00    -0.312 N 
HETATM   19  C   UNL     1      -2.932   4.395 -33.277  1.00  0.00     0.222 C 
HETATM   20  O   UNL     1      -2.252   4.148 -32.288  1.00  0.00    -0.273 OA
HETATM   21  H   UNL     1      -4.755   4.417 -34.204  1.00  0.00     0.170 HD
BRANCH  19  22
HETATM   22  C   UNL     1      -2.268   4.553 -34.637  1.00  0.00     0.099 C 
HETATM   23  C   UNL     1      -1.176   5.606 -34.685  1.00  0.00     0.014 C 
ENDBRANCH  19  22
ENDBRANCH   1  18
BRANCH   2  24
HETATM   24  C   UNL     1      -4.987   7.063 -31.446  1.00  0.00     0.169 C 
BRANCH  24  25
HETATM   25  C   UNL     1      -3.517   7.231 -31.103  1.00  0.00    -0.040 A 
HETATM   26  C   UNL     1      -3.075   6.779 -29.850  1.00  0.00     0.011 A 
HETATM   27  C   UNL     1      -1.725   6.855 -29.493  1.00  0.00     0.037 A 
HETATM   28  C   UNL     1      -0.782   7.370 -30.382  1.00  0.00     0.068 A 
HETATM   29  C   UNL     1      -1.208   7.839 -31.622  1.00  0.00     0.037 A 
HETATM   30  C   UNL     1      -2.562   7.775 -31.976  1.00  0.00     0.011 A 
BRANCH  28  31
HETATM   31  O   UNL     1       0.507   7.367 -29.923  1.00  0.00    -0.356 OA
HETATM   32  C   UNL     1       0.711   7.833 -28.595  1.00  0.00     0.210 C 
ENDBRANCH  28  31
ENDBRANCH  24  25
ENDBRANCH   2  24
TORSDOF 6
ENDMDL
MODEL 4
REMARK VINA RESULT:      -7.6      2.367      6.941
REMARK  6 active torsions:
REMARK  status: ('A' for Active; 'I' for Inactive)
REMARK    1  A    between atoms: C_2  and  C_3 
REMARK       I    between atoms: C_3  and  N_4 
REMARK    2  A    between atoms: N_4  and  C_5 
REMARK    3  A    between atoms: N_6  and  C_7 
REMARK    4  A    between atoms: C_7  and  C_8 
REMARK    5  A    between atoms: C_11  and  O_12 
REMARK    6  A    between atoms: C_20  and  C_21 
ROOT
HETATM    1  C   UNL     1      -6.559   2.204 -32.122  1.00  0.00     0.125 A 
HETATM    2  N   UNL     1      -6.600   3.570 -31.904  1.00  0.00    -0.332 N 
HETATM    3  C   UNL     1      -5.293   4.065 -31.898  1.00  0.00     0.017 A 
HETATM    4  C   UNL     1      -4.944   5.494 -31.621  1.00  0.00     0.069 C 
HETATM    5  C   UNL     1      -4.423   3.016 -32.170  1.00  0.00    -0.022 A 
HETATM    6  C   UNL     1      -2.940   3.120 -32.259  1.00  0.00     0.051 C 
HETATM    7  C   UNL     1      -5.227   1.852 -32.310  1.00  0.00     0.062 A 
ENDROOT
BRANCH   7   8
HETATM    8  C   UNL     1      -4.807   0.443 -32.623  1.00  0.00     0.143 A 
HETATM    9  N   UNL     1      -4.043  -0.285 -31.824  1.00  0.00    -0.228 NA
HETATM   10  C   UNL     1      -3.949  -1.519 -32.418  1.00  0.00     0.086 A 
HETATM   11  C   UNL     1      -4.648  -1.544 -33.617  1.00  0.00     0.062 A 
HETATM   12  C   UNL     1      -3.285  -2.675 -31.985  1.00  0.00     0.034 A 
HETATM   13  N   UNL     1      -5.168  -0.281 -33.730  1.00  0.00    -0.338 N 
HETATM   14  C   UNL     1      -4.734  -2.676 -34.432  1.00  0.00     0.032 A 
HETATM   15  H   UNL     1      -5.757   0.043 -34.478  1.00  0.00     0.167 HD
HETATM   16  C   UNL     1      -4.070  -3.823 -33.982  1.00  0.00     0.002 A 
HETATM   17  C   UNL     1      -3.357  -3.826 -32.780  1.00  0.00     0.002 A 
ENDBRANCH   7   8
BRANCH   1  18
HETATM   18  N   UNL     1      -7.594   1.273 -32.105  1.00  0.00    -0.312 N 
HETATM   19  C   UNL     1      -8.314   0.775 -33.166  1.00  0.00     0.222 C 
HETATM   20  O   UNL     1      -8.137   1.020 -34.353  1.00  0.00    -0.273 OA
HETATM   21  H   UNL     1      -7.599   0.711 -31.251  1.00  0.00     0.170 HD
BRANCH  19  22
HETATM   22  C   UNL     1      -9.462  -0.130 -32.738  1.00  0.00     0.099 C 
HETATM   23  C   UNL     1     -10.831   0.330 -33.204  1.00  0.00     0.014 C 
ENDBRANCH  19  22
ENDBRANCH   1  18
BRANCH   2  24
HETATM   24  C   UNL     1      -7.762   4.381 -31.522  1.00  0.00     0.169 C 
BRANCH  24  25
HETATM   25  C   UNL     1      -8.982   4.235 -32.416  1.00  0.00    -0.040 A 
HETATM   26  C   UNL     1     -10.209   3.919 -31.812  1.00  0.00     0.011 A 
HETATM   27  C   UNL     1     -11.380   3.822 -32.571  1.00  0.00     0.037 A 
HETATM   28  C   UNL     1     -11.358   4.054 -33.945  1.00  0.00     0.068 A 
HETATM   29  C   UNL     1     -10.145   4.351 -34.561  1.00  0.00     0.037 A 
HETATM   30  C   UNL     1      -8.969   4.436 -33.804  1.00  0.00     0.011 A 
BRANCH  28  31
HETATM   31  O   UNL     1     -12.572   3.953 -34.568  1.00  0.00    -0.356 OA
HETATM   32  C   UNL     1     -12.713   2.909 -35.523  1.00  0.00     0.210 C 
ENDBRANCH  28  31
ENDBRANCH  24  25
ENDBRANCH   2  24
TORSDOF 6
ENDMDL
MODEL 5
REMARK VINA RESULT:      -7.6      2.895      7.212
REMARK  6 active torsions:
REMARK  status: ('A' for Active; 'I' for Inactive)
REMARK    1  A    between atoms: C_2  and  C_3 
REMARK       I    between atoms: C_3  and  N_4 
REMARK    2  A    between atoms: N_4  and  C_5 
REMARK    3  A    between atoms: N_6  and  C_7 
REMARK    4  A    between atoms: C_7  and  C_8 
REMARK    5  A    between atoms: C_11  and  O_12 
REMARK    6  A    between atoms: C_20  and  C_21 
ROOT
HETATM    1  C   UNL     1      -6.304   2.960 -32.684  1.00  0.00     0.125 A 
HETATM    2  N   UNL     1      -7.099   2.058 -33.372  1.00  0.00    -0.332 N 
HETATM    3  C   UNL     1      -8.271   1.844 -32.643  1.00  0.00     0.017 A 
HETATM    4  C   UNL     1      -9.338   0.875 -33.046  1.00  0.00     0.069 C 
HETATM    5  C   UNL     1      -8.245   2.656 -31.516  1.00  0.00    -0.022 A 
HETATM    6  C   UNL     1      -9.309   2.733 -30.476  1.00  0.00     0.051 C 
HETATM    7  C   UNL     1      -7.005   3.353 -31.550  1.00  0.00     0.062 A 
ENDROOT
BRANCH   7   8
HETATM    8  C   UNL     1      -6.464   4.371 -30.585  1.00  0.00     0.143 A 
HETATM    9  N   UNL     1      -6.216   5.629 -30.915  1.00  0.00    -0.228 NA
HETATM   10  C   UNL     1      -5.811   6.245 -29.758  1.00  0.00     0.086 A 
HETATM   11  C   UNL     1      -5.785   5.345 -28.701  1.00  0.00     0.062 A 
HETATM   12  C   UNL     1      -5.453   7.582 -29.531  1.00  0.00     0.034 A 
HETATM   13  N   UNL     1      -6.189   4.160 -29.259  1.00  0.00    -0.338 N 
HETATM   14  C   UNL     1      -5.421   5.699 -27.399  1.00  0.00     0.032 A 
HETATM   15  H   UNL     1      -6.308   3.292 -28.764  1.00  0.00     0.167 HD
HETATM   16  C   UNL     1      -5.071   7.038 -27.189  1.00  0.00     0.002 A 
HETATM   17  C   UNL     1      -5.086   7.966 -28.235  1.00  0.00     0.002 A 
ENDBRANCH   7   8
BRANCH   1  18
HETATM   18  N   UNL     1      -5.010   3.392 -32.964  1.00  0.00    -0.312 N 
HETATM   19  C   UNL     1      -3.842   3.075 -32.311  1.00  0.00     0.222 C 
HETATM   20  O   UNL     1      -3.713   2.291 -31.378  1.00  0.00    -0.273 OA
HETATM   21  H   UNL     1      -4.914   3.740 -33.921  1.00  0.00     0.170 HD
BRANCH  19  22
HETATM   22  C   UNL     1      -2.638   3.851 -32.825  1.00  0.00     0.099 C 
HETATM   23  C   UNL     1      -2.875   5.341 -32.989  1.00  0.00     0.014 C 
ENDBRANCH  19  22
ENDBRANCH   1  18
BRANCH   2  24
HETATM   24  C   UNL     1      -6.736   1.266 -34.553  1.00  0.00     0.169 C 
BRANCH  24  25
HETATM   25  C   UNL     1      -6.060  -0.063 -34.266  1.00  0.00    -0.040 A 
HETATM   26  C   UNL     1      -6.618  -1.223 -34.826  1.00  0.00     0.011 A 
HETATM   27  C   UNL     1      -6.014  -2.472 -34.644  1.00  0.00     0.037 A 
HETATM   28  C   UNL     1      -4.833  -2.591 -33.913  1.00  0.00     0.068 A 
HETATM   29  C   UNL     1      -4.277  -1.452 -33.337  1.00  0.00     0.037 A 
HETATM   30  C   UNL     1      -4.887  -0.203 -33.507  1.00  0.00     0.011 A 
BRANCH  28  31
HETATM   31  O   UNL     1      -4.330  -3.861 -33.830  1.00  0.00    -0.356 OA
HETATM   32  C   UNL     1      -5.046  -4.874 -34.525  1.00  0.00     0.210 C 
ENDBRANCH  28  31
ENDBRANCH  24  25
ENDBRANCH   2  24
TORSDOF 6
ENDMDL
MODEL 6
REMARK VINA RESULT:      -7.6      4.037      9.176
REMARK  6 active torsions:
REMARK  status: ('A' for Active; 'I' for Inactive)
REMARK    1  A    between atoms: C_2  and  C_3 
REMARK       I    between atoms: C_3  and  N_4 
REMARK    2  A    between atoms: N_4  and  C_5 
REMARK    3  A    between atoms: N_6  and  C_7 
REMARK    4  A    between atoms: C_7  and  C_8 
REMARK    5  A    between atoms: C_11  and  O_12 
REMARK    6  A    between atoms: C_20  and  C_21 
ROOT
HETATM    1  C   UNL     1      -3.804   5.279 -31.442  1.00  0.00     0.125 A 
HETATM    2  N   UNL     1      -4.307   4.892 -32.673  1.00  0.00    -0.332 N 
HETATM    3  C   UNL     1      -3.454   5.361 -33.675  1.00  0.00     0.017 A 
HETATM    4  C   UNL     1      -3.716   5.192 -35.139  1.00  0.00     0.069 C 
HETATM    5  C   UNL     1      -2.376   6.000 -33.075  1.00  0.00    -0.022 A 
HETATM    6  C   UNL     1      -1.237   6.639 -33.791  1.00  0.00     0.051 C 
HETATM    7  C   UNL     1      -2.605   5.943 -31.672  1.00  0.00     0.062 A 
ENDROOT
BRANCH   7   8
HETATM    8  C   UNL     1      -1.749   6.466 -30.551  1.00  0.00     0.143 A 
HETATM    9  N   UNL     1      -1.904   7.665 -30.013  1.00  0.00    -0.228 NA
HETATM   10  C   UNL     1      -0.995   7.734 -28.988  1.00  0.00     0.086 A 
HETATM   11  C   UNL     1      -0.249   6.566 -28.908  1.00  0.00     0.062 A 
HETATM   12  C   UNL     1      -0.753   8.768 -28.072  1.00  0.00     0.034 A 
HETATM   13  N   UNL     1      -0.738   5.786 -29.923  1.00  0.00    -0.338 N 
HETATM   14  C   UNL     1       0.745   6.353 -27.949  1.00  0.00     0.032 A 
HETATM   15  H   UNL     1      -0.436   4.851 -30.138  1.00  0.00     0.167 HD
HETATM   16  C   UNL     1       0.970   7.393 -27.040  1.00  0.00     0.002 A 
HETATM   17  C   UNL     1       0.236   8.581 -27.097  1.00  0.00     0.002 A 
ENDBRANCH   7   8
BRANCH   1  18
HETATM   18  N   UNL     1      -4.360   5.134 -30.174  1.00  0.00    -0.312 N 
HETATM   19  C   UNL     1      -5.336   5.896 -29.576  1.00  0.00     0.222 C 
HETATM   20  O   UNL     1      -5.952   6.828 -30.080  1.00  0.00    -0.273 OA
HETATM   21  H   UNL     1      -4.220   4.196 -29.792  1.00  0.00     0.170 HD
BRANCH  19  22
HETATM   22  C   UNL     1      -5.590   5.513 -28.124  1.00  0.00     0.099 C 
HETATM   23  C   UNL     1      -4.779   6.304 -27.115  1.00  0.00     0.014 C 
ENDBRANCH  19  22
ENDBRANCH   1  18
BRANCH   2  24
HETATM   24  C   UNL     1      -5.612   4.283 -32.955  1.00  0.00     0.169 C 
BRANCH  24  25
HETATM   25  C   UNL     1      -5.605   2.774 -33.129  1.00  0.00    -0.040 A 
HETATM   26  C   UNL     1      -6.513   2.210 -34.039  1.00  0.00     0.011 A 
HETATM   27  C   UNL     1      -6.523   0.834 -34.285  1.00  0.00     0.037 A 
HETATM   28  C   UNL     1      -5.618  -0.010 -33.643  1.00  0.00     0.068 A 
HETATM   29  C   UNL     1      -4.723   0.532 -32.724  1.00  0.00     0.037 A 
HETATM   30  C   UNL     1      -4.721   1.909 -32.467  1.00  0.00     0.011 A 
BRANCH  28  31
HETATM   31  O   UNL     1      -5.714  -1.331 -33.989  1.00  0.00    -0.356 OA
HETATM   32  C   UNL     1      -6.908  -1.731 -34.648  1.00  0.00     0.210 C 
ENDBRANCH  28  31
ENDBRANCH  24  25
ENDBRANCH   2  24
TORSDOF 6
ENDMDL
MODEL 7
REMARK VINA RESULT:      -7.6      3.401      8.207
REMARK  6 active torsions:
REMARK  status: ('A' for Active; 'I' for Inactive)
REMARK    1  A    between atoms: C_2  and  C_3 
REMARK       I    between atoms: C_3  and  N_4 
REMARK    2  A    between atoms: N_4  and  C_5 
REMARK    3  A    between atoms: N_6  and  C_7 
REMARK    4  A    between atoms: C_7  and  C_8 
REMARK    5  A    between atoms: C_11  and  O_12 
REMARK    6  A    between atoms: C_20  and  C_21 
ROOT
HETATM    1  C   UNL     1      -5.172   4.175 -32.567  1.00  0.00     0.125 A 
HETATM    2  N   UNL     1      -6.161   3.210 -32.653  1.00  0.00    -0.332 N 
HETATM    3  C   UNL     1      -6.883   3.197 -31.457  1.00  0.00     0.017 A 
HETATM    4  C   UNL     1      -7.989   2.232 -31.161  1.00  0.00     0.069 C 
HETATM    5  C   UNL     1      -6.385   4.196 -30.629  1.00  0.00    -0.022 A 
HETATM    6  C   UNL     1      -6.880   4.518 -29.262  1.00  0.00     0.051 C 
HETATM    7  C   UNL     1      -5.311   4.804 -31.335  1.00  0.00     0.062 A 
ENDROOT
BRANCH   7   8
HETATM    8  C   UNL     1      -4.429   5.948 -30.915  1.00  0.00     0.143 A 
HETATM    9  N   UNL     1      -4.463   7.142 -31.485  1.00  0.00    -0.228 NA
HETATM   10  C   UNL     1      -3.576   7.917 -30.780  1.00  0.00     0.086 A 
HETATM   11  C   UNL     1      -2.967   7.181 -29.773  1.00  0.00     0.062 A 
HETATM   12  C   UNL     1      -3.243   9.270 -30.940  1.00  0.00     0.034 A 
HETATM   13  N   UNL     1      -3.515   5.930 -29.893  1.00  0.00    -0.338 N 
HETATM   14  C   UNL     1      -2.026   7.717 -28.891  1.00  0.00     0.032 A 
HETATM   15  H   UNL     1      -3.313   5.145 -29.298  1.00  0.00     0.167 HD
HETATM   16  C   UNL     1      -1.708   9.070 -29.062  1.00  0.00     0.002 A 
HETATM   17  C   UNL     1      -2.304   9.836 -30.067  1.00  0.00     0.002 A 
ENDBRANCH   7   8
BRANCH   1  18
HETATM   18  N   UNL     1      -4.150   4.477 -33.462  1.00  0.00    -0.312 N 
HETATM   19  C   UNL     1      -2.803   4.226 -33.340  1.00  0.00     0.222 C 
HETATM   20  O   UNL     1      -2.249   3.625 -32.428  1.00  0.00    -0.273 OA
HETATM   21  H   UNL     1      -4.497   4.634 -34.412  1.00  0.00     0.170 HD
BRANCH  19  22
HETATM   22  C   UNL     1      -1.977   4.826 -34.469  1.00  0.00     0.099 C 
HETATM   23  C   UNL     1      -1.455   6.223 -34.191  1.00  0.00     0.014 C 
ENDBRANCH  19  22
ENDBRANCH   1  18
BRANCH   2  24
HETATM   24  C   UNL     1      -6.336   2.200 -33.703  1.00  0.00     0.169 C 
BRANCH  24  25
HETATM   25  C   UNL     1      -5.631   0.876 -33.460  1.00  0.00    -0.040 A 
HETATM   26  C   UNL     1      -6.118  -0.263 -34.119  1.00  0.00     0.011 A 
HETATM   27  C   UNL     1      -5.483  -1.501 -33.980  1.00  0.00     0.037 A 
HETATM   28  C   UNL     1      -4.339  -1.629 -33.193  1.00  0.00     0.068 A 
HETATM   29  C   UNL     1      -3.854  -0.512 -32.518  1.00  0.00     0.037 A 
HETATM   30  C   UNL     1      -4.497   0.726 -32.647  1.00  0.00     0.011 A 
BRANCH  28  31
HETATM   31  O   UNL     1      -3.799  -2.886 -33.159  1.00  0.00    -0.356 OA
HETATM   32  C   UNL     1      -4.206  -3.781 -34.186  1.00  0.00     0.210 C 
ENDBRANCH  28  31
ENDBRANCH  24  25
ENDBRANCH   2  24
TORSDOF 6
ENDMDL
MODEL 8
REMARK VINA RESULT:      -7.5     16.464     18.580
REMARK  6 active torsions:
REMARK  status: ('A' for Active; 'I' for Inactive)
REMARK    1  A    between atoms: C_2  and  C_3 
REMARK       I    between atoms: C_3  and  N_4 
REMARK    2  A    between atoms: N_4  and  C_5 
REMARK    3  A    between atoms: N_6  and  C_7 
REMARK    4  A    between atoms: C_7  and  C_8 
REMARK    5  A    between atoms: C_11  and  O_12 
REMARK    6  A    between atoms: C_20  and  C_21 
ROOT
HETATM    1  C   UNL     1      -5.321 -13.374 -38.313  1.00  0.00     0.125 A 
HETATM    2  N   UNL     1      -5.761 -12.826 -39.506  1.00  0.00    -0.332 N 
HETATM    3  C   UNL     1      -7.156 -12.885 -39.541  1.00  0.00     0.017 A 
HETATM    4  C   UNL     1      -7.980 -12.445 -40.712  1.00  0.00     0.069 C 
HETATM    5  C   UNL     1      -7.607 -13.422 -38.342  1.00  0.00    -0.022 A 
HETATM    6  C   UNL     1      -9.032 -13.652 -37.974  1.00  0.00     0.051 C 
HETATM    7  C   UNL     1      -6.447 -13.726 -37.577  1.00  0.00     0.062 A 
ENDROOT
BRANCH   7   8
HETATM    8  C   UNL     1      -6.351 -14.311 -36.195  1.00  0.00     0.143 A 
HETATM    9  N   UNL     1      -5.673 -13.746 -35.209  1.00  0.00    -0.228 NA
HETATM   10  C   UNL     1      -5.888 -14.535 -34.107  1.00  0.00     0.086 A 
HETATM   11  C   UNL     1      -6.694 -15.620 -34.425  1.00  0.00     0.062 A 
HETATM   12  C   UNL     1      -5.431 -14.382 -32.790  1.00  0.00     0.034 A 
HETATM   13  N   UNL     1      -6.958 -15.462 -35.761  1.00  0.00    -0.338 N 
HETATM   14  C   UNL     1      -7.085 -16.586 -33.495  1.00  0.00     0.032 A 
HETATM   15  H   UNL     1      -7.541 -16.065 -36.316  1.00  0.00     0.167 HD
HETATM   16  C   UNL     1      -6.624 -16.415 -32.184  1.00  0.00     0.002 A 
HETATM   17  C   UNL     1      -5.811 -15.333 -31.834  1.00  0.00     0.002 A 
ENDBRANCH   7   8
BRANCH   1  18
HETATM   18  N   UNL     1      -4.023 -13.627 -37.880  1.00  0.00    -0.312 N 
HETATM   19  C   UNL     1      -2.955 -12.762 -37.824  1.00  0.00     0.222 C 
HETATM   20  O   UNL     1      -2.964 -11.568 -38.097  1.00  0.00    -0.273 OA
HETATM   21  H   UNL     1      -3.966 -14.456 -37.283  1.00  0.00     0.170 HD
BRANCH  19  22
HETATM   22  C   UNL     1      -1.655 -13.441 -37.419  1.00  0.00     0.099 C 
HETATM   23  C   UNL     1      -0.652 -13.601 -38.546  1.00  0.00     0.014 C 
ENDBRANCH  19  22
ENDBRANCH   1  18
BRANCH   2  24
HETATM   24  C   UNL     1      -4.948 -12.433 -40.663  1.00  0.00     0.169 C 
BRANCH  24  25
HETATM   25  C   UNL     1      -4.388 -13.579 -41.487  1.00  0.00    -0.040 A 
HETATM   26  C   UNL     1      -5.146 -14.044 -42.573  1.00  0.00     0.011 A 
HETATM   27  C   UNL     1      -4.664 -15.061 -43.403  1.00  0.00     0.037 A 
HETATM   28  C   UNL     1      -3.409 -15.627 -43.180  1.00  0.00     0.068 A 
HETATM   29  C   UNL     1      -2.653 -15.189 -42.096  1.00  0.00     0.037 A 
HETATM   30  C   UNL     1      -3.140 -14.179 -41.256  1.00  0.00     0.011 A 
BRANCH  28  31
HETATM   31  O   UNL     1      -3.044 -16.593 -44.077  1.00  0.00    -0.356 OA
HETATM   32  C   UNL     1      -3.160 -16.260 -45.454  1.00  0.00     0.210 C 
ENDBRANCH  28  31
ENDBRANCH  24  25
ENDBRANCH   2  24
TORSDOF 6
ENDMDL
MODEL 9
REMARK VINA RESULT:      -7.4      3.753      7.090
REMARK  6 active torsions:
REMARK  status: ('A' for Active; 'I' for Inactive)
REMARK    1  A    between atoms: C_2  and  C_3 
REMARK       I    between atoms: C_3  and  N_4 
REMARK    2  A    between atoms: N_4  and  C_5 
REMARK    3  A    between atoms: N_6  and  C_7 
REMARK    4  A    between atoms: C_7  and  C_8 
REMARK    5  A    between atoms: C_11  and  O_12 
REMARK    6  A    between atoms: C_20  and  C_21 
ROOT
HETATM    1  C   UNL     1      -3.778   5.408 -30.657  1.00  0.00     0.125 A 
HETATM    2  N   UNL     1      -4.117   6.428 -29.784  1.00  0.00    -0.332 N 
HETATM    3  C   UNL     1      -5.373   6.155 -29.236  1.00  0.00     0.017 A 
HETATM    4  C   UNL     1      -6.092   7.075 -28.300  1.00  0.00     0.069 C 
HETATM    5  C   UNL     1      -5.808   4.927 -29.721  1.00  0.00    -0.022 A 
HETATM    6  C   UNL     1      -7.099   4.268 -29.380  1.00  0.00     0.051 C 
HETATM    7  C   UNL     1      -4.800   4.467 -30.613  1.00  0.00     0.062 A 
ENDROOT
BRANCH   7   8
HETATM    8  C   UNL     1      -4.748   3.189 -31.403  1.00  0.00     0.143 A 
HETATM    9  N   UNL     1      -3.734   2.340 -31.352  1.00  0.00    -0.228 NA
HETATM   10  C   UNL     1      -4.093   1.280 -32.146  1.00  0.00     0.086 A 
HETATM   11  C   UNL     1      -5.342   1.490 -32.716  1.00  0.00     0.062 A 
HETATM   12  C   UNL     1      -3.402   0.092 -32.422  1.00  0.00     0.034 A 
HETATM   13  N   UNL     1      -5.726   2.716 -32.240  1.00  0.00    -0.338 N 
HETATM   14  C   UNL     1      -5.964   0.569 -33.562  1.00  0.00     0.032 A 
HETATM   15  H   UNL     1      -6.602   3.171 -32.437  1.00  0.00     0.167 HD
HETATM   16  C   UNL     1      -5.263  -0.614 -33.824  1.00  0.00     0.002 A 
HETATM   17  C   UNL     1      -4.004  -0.852 -33.266  1.00  0.00     0.002 A 
ENDBRANCH   7   8
BRANCH   1  18
HETATM   18  N   UNL     1      -2.682   5.298 -31.507  1.00  0.00    -0.312 N 
HETATM   19  C   UNL     1      -2.487   5.889 -32.733  1.00  0.00     0.222 C 
HETATM   20  O   UNL     1      -3.234   6.684 -33.291  1.00  0.00    -0.273 OA
HETATM   21  H   UNL     1      -1.841   4.980 -31.019  1.00  0.00     0.170 HD
BRANCH  19  22
HETATM   22  C   UNL     1      -1.216   5.422 -33.428  1.00  0.00     0.099 C 
HETATM   23  C   UNL     1      -1.350   5.241 -34.929  1.00  0.00     0.014 C 
ENDBRANCH  19  22
ENDBRANCH   1  18
BRANCH   2  24
HETATM   24  C   UNL     1      -3.421   7.706 -29.588  1.00  0.00     0.169 C 
BRANCH  24  25
HETATM   25  C   UNL     1      -2.052   7.611 -28.936  1.00  0.00    -0.040 A 
HETATM   26  C   UNL     1      -1.993   7.347 -27.559  1.00  0.00     0.011 A 
HETATM   27  C   UNL     1      -0.765   7.196 -26.907  1.00  0.00     0.037 A 
HETATM   28  C   UNL     1       0.432   7.288 -27.616  1.00  0.00     0.068 A 
HETATM   29  C   UNL     1       0.391   7.567 -28.979  1.00  0.00     0.037 A 
HETATM   30  C   UNL     1      -0.839   7.732 -29.631  1.00  0.00     0.011 A 
BRANCH  28  31
HETATM   31  O   UNL     1       1.562   7.095 -26.869  1.00  0.00    -0.356 OA
HETATM   32  C   UNL     1       1.898   8.125 -25.947  1.00  0.00     0.210 C 
ENDBRANCH  28  31
ENDBRANCH  24  25
ENDBRANCH   2  24
TORSDOF 6
ENDMDL
MODEL 10
REMARK VINA RESULT:      -7.2      2.022      4.945
REMARK  6 active torsions:
REMARK  status: ('A' for Active; 'I' for Inactive)
REMARK    1  A    between atoms: C_2  and  C_3 
REMARK       I    between atoms: C_3  and  N_4 
REMARK    2  A    between atoms: N_4  and  C_5 
REMARK    3  A    between atoms: N_6  and  C_7 
REMARK    4  A    between atoms: C_7  and  C_8 
REMARK    5  A    between atoms: C_11  and  O_12 
REMARK    6  A    between atoms: C_20  and  C_21 
ROOT
HETATM    1  C   UNL     1      -7.042   1.821 -32.145  1.00  0.00     0.125 A 
HETATM    2  N   UNL     1      -7.953   2.773 -31.722  1.00  0.00    -0.332 N 
HETATM    3  C   UNL     1      -9.233   2.382 -32.124  1.00  0.00     0.017 A 
HETATM    4  C   UNL     1     -10.464   3.204 -31.902  1.00  0.00     0.069 C 
HETATM    5  C   UNL     1      -9.140   1.148 -32.755  1.00  0.00    -0.022 A 
HETATM    6  C   UNL     1     -10.278   0.379 -33.330  1.00  0.00     0.051 C 
HETATM    7  C   UNL     1      -7.760   0.804 -32.764  1.00  0.00     0.062 A 
ENDROOT
BRANCH   7   8
HETATM    8  C   UNL     1      -7.096  -0.431 -33.307  1.00  0.00     0.143 A 
HETATM    9  N   UNL     1      -5.794  -0.656 -33.224  1.00  0.00    -0.228 NA
HETATM   10  C   UNL     1      -5.595  -1.903 -33.760  1.00  0.00     0.086 A 
HETATM   11  C   UNL     1      -6.793  -2.448 -34.203  1.00  0.00     0.062 A 
HETATM   12  C   UNL     1      -4.412  -2.644 -33.895  1.00  0.00     0.034 A 
HETATM   13  N   UNL     1      -7.725  -1.485 -33.918  1.00  0.00    -0.338 N 
HETATM   14  C   UNL     1      -6.893  -3.714 -34.784  1.00  0.00     0.032 A 
HETATM   15  H   UNL     1      -8.714  -1.561 -34.087  1.00  0.00     0.167 HD
HETATM   16  C   UNL     1      -5.703  -4.442 -34.907  1.00  0.00     0.002 A 
HETATM   17  C   UNL     1      -4.482  -3.918 -34.471  1.00  0.00     0.002 A 
ENDBRANCH   7   8
BRANCH   1  18
HETATM   18  N   UNL     1      -5.652   1.830 -32.070  1.00  0.00    -0.312 N 
HETATM   19  C   UNL     1      -4.853   1.645 -30.965  1.00  0.00     0.222 C 
HETATM   20  O   UNL     1      -5.224   1.375 -29.829  1.00  0.00    -0.273 OA
HETATM   21  H   UNL     1      -5.212   1.670 -32.979  1.00  0.00     0.170 HD
BRANCH  19  22
HETATM   22  C   UNL     1      -3.374   1.859 -31.253  1.00  0.00     0.099 C 
HETATM   23  C   UNL     1      -3.089   2.784 -32.422  1.00  0.00     0.014 C 
ENDBRANCH  19  22
ENDBRANCH   1  18
BRANCH   2  24
HETATM   24  C   UNL     1      -7.666   4.090 -31.141  1.00  0.00     0.169 C 
BRANCH  24  25
HETATM   25  C   UNL     1      -6.444   4.798 -31.699  1.00  0.00    -0.040 A 
HETATM   26  C   UNL     1      -6.335   4.929 -33.093  1.00  0.00     0.011 A 
HETATM   27  C   UNL     1      -5.262   5.615 -33.669  1.00  0.00     0.037 A 
HETATM   28  C   UNL     1      -4.280   6.200 -32.871  1.00  0.00     0.068 A 
HETATM   29  C   UNL     1      -4.364   6.063 -31.488  1.00  0.00     0.037 A 
HETATM   30  C   UNL     1      -5.432   5.365 -30.909  1.00  0.00     0.011 A 
BRANCH  28  31
HETATM   31  O   UNL     1      -3.298   6.863 -33.555  1.00  0.00    -0.356 OA
HETATM   32  C   UNL     1      -2.134   7.213 -32.818  1.00  0.00     0.210 C 
ENDBRANCH  28  31
ENDBRANCH  24  25
ENDBRANCH   2  24
TORSDOF 6
ENDMDL
