MODEL 1
REMARK VINA RESULT:      -9.3      0.000      0.000
REMARK  3 active torsions:
REMARK  status: ('A' for Active; 'I' for Inactive)
REMARK    1  A    between atoms: C_2  and  C_3 
REMARK    2  A    between atoms: C_12  and  C_13 
REMARK    3  A    between atoms: C_13  and  C_14 
ROOT
HETATM    1  C   UNL     1      -5.147  -2.653 -34.285  1.00  0.00    -0.027 A 
HETATM    2  C   UNL     1      -4.122  -3.024 -33.399  1.00  0.00     0.039 A 
HETATM    3  C   UNL     1      -3.470  -4.380 -33.453  1.00  0.00     0.071 C 
HETATM    4  N   UNL     1      -3.611  -2.215 -32.457  1.00  0.00    -0.245 NA
HETATM    5  C   UNL     1      -4.174  -1.000 -32.363  1.00  0.00     0.111 A 
HETATM    6  C   UNL     1      -5.223  -0.496 -33.122  1.00  0.00     0.034 A 
HETATM    7  C   UNL     1      -5.707  -1.342 -34.175  1.00  0.00    -0.038 A 
HETATM    8  C   UNL     1      -6.774  -0.895 -35.145  1.00  0.00     0.050 C 
HETATM    9  S   UNL     1      -3.563   0.098 -31.226  1.00  0.00    -0.063 SA
HETATM   10  C   UNL     1      -4.717   1.289 -31.643  1.00  0.00     0.085 A 
HETATM   11  C   UNL     1      -5.571   0.834 -32.636  1.00  0.00     0.061 A 
HETATM   12  N   UNL     1      -6.601   1.566 -33.124  1.00  0.00    -0.397 N 
HETATM   13  H   UNL     1      -6.849   2.488 -32.779  1.00  0.00     0.156 HD
HETATM   14  H   UNL     1      -7.385   1.122 -33.592  1.00  0.00     0.156 HD
ENDROOT
BRANCH  10  15
HETATM   15  C   UNL     1      -4.628   2.556 -30.937  1.00  0.00     0.201 C 
HETATM   16  O   UNL     1      -5.143   2.756 -29.835  1.00  0.00    -0.286 OA
BRANCH  15  17
HETATM   17  C   UNL     1      -3.890   3.707 -31.532  1.00  0.00     0.018 A 
HETATM   18  C   UNL     1      -3.101   3.563 -32.683  1.00  0.00     0.055 A 
HETATM   19  C   UNL     1      -2.476   4.691 -33.171  1.00  0.00     0.106 A 
HETATM   20  C   UNL     1      -2.617   5.923 -32.573  1.00  0.00     0.105 A 
HETATM   21  O   UNL     1      -1.669   4.739 -34.266  1.00  0.00    -0.323 OA
HETATM   22  O   UNL     1      -1.920   6.896 -33.217  1.00  0.00    -0.323 OA
HETATM   23  C   UNL     1      -3.396   6.102 -31.452  1.00  0.00     0.040 A 
HETATM   24  C   UNL     1      -1.339   6.144 -34.303  1.00  0.00     0.352 A 
HETATM   25  C   UNL     1      -4.044   4.979 -30.931  1.00  0.00     0.018 A 
ENDBRANCH  15  17
ENDBRANCH  10  15
BRANCH   1  26
HETATM   26  C   UNL     1      -5.659  -3.655 -35.306  1.00  0.00     0.036 C 
HETATM   27  C   UNL     1      -6.829  -4.470 -34.773  1.00  0.00     0.010 C 
ENDBRANCH   1  26
TORSDOF 3
ENDMDL
MODEL 2
REMARK VINA RESULT:      -8.4      4.906      7.358
REMARK  3 active torsions:
REMARK  status: ('A' for Active; 'I' for Inactive)
REMARK    1  A    between atoms: C_2  and  C_3 
REMARK    2  A    between atoms: C_12  and  C_13 
REMARK    3  A    between atoms: C_13  and  C_14 
ROOT
HETATM    1  C   UNL     1      -4.693  -1.258 -32.566  1.00  0.00    -0.027 A 
HETATM    2  C   UNL     1      -5.048  -1.717 -33.845  1.00  0.00     0.039 A 
HETATM    3  C   UNL     1      -4.391  -2.915 -34.477  1.00  0.00     0.071 C 
HETATM    4  N   UNL     1      -6.009  -1.165 -34.603  1.00  0.00    -0.245 NA
HETATM    5  C   UNL     1      -6.611  -0.083 -34.086  1.00  0.00     0.111 A 
HETATM    6  C   UNL     1      -6.346   0.527 -32.865  1.00  0.00     0.034 A 
HETATM    7  C   UNL     1      -5.372  -0.119 -32.032  1.00  0.00    -0.038 A 
HETATM    8  C   UNL     1      -5.049   0.367 -30.641  1.00  0.00     0.050 C 
HETATM    9  S   UNL     1      -7.863   0.654 -34.960  1.00  0.00    -0.063 SA
HETATM   10  C   UNL     1      -8.074   1.872 -33.779  1.00  0.00     0.085 A 
HETATM   11  C   UNL     1      -7.176   1.718 -32.734  1.00  0.00     0.061 A 
HETATM   12  N   UNL     1      -7.104   2.571 -31.683  1.00  0.00    -0.397 N 
HETATM   13  H   UNL     1      -7.676   3.406 -31.597  1.00  0.00     0.156 HD
HETATM   14  H   UNL     1      -6.264   2.636 -31.117  1.00  0.00     0.156 HD
ENDROOT
BRANCH  10  15
HETATM   15  C   UNL     1      -9.129   2.841 -34.026  1.00  0.00     0.201 C 
HETATM   16  O   UNL     1      -8.939   4.058 -34.050  1.00  0.00    -0.286 OA
BRANCH  15  17
HETATM   17  C   UNL     1     -10.531   2.393 -34.266  1.00  0.00     0.018 A 
HETATM   18  C   UNL     1     -11.070   1.274 -33.614  1.00  0.00     0.055 A 
HETATM   19  C   UNL     1     -12.383   0.952 -33.884  1.00  0.00     0.106 A 
HETATM   20  C   UNL     1     -13.157   1.694 -34.749  1.00  0.00     0.105 A 
HETATM   21  O   UNL     1     -13.067  -0.099 -33.354  1.00  0.00    -0.323 OA
HETATM   22  O   UNL     1     -14.419   1.204 -34.867  1.00  0.00    -0.323 OA
HETATM   23  C   UNL     1     -12.663   2.807 -35.392  1.00  0.00     0.040 A 
HETATM   24  C   UNL     1     -14.364   0.081 -33.963  1.00  0.00     0.352 A 
HETATM   25  C   UNL     1     -11.335   3.161 -35.141  1.00  0.00     0.018 A 
ENDBRANCH  15  17
ENDBRANCH  10  15
BRANCH   1  26
HETATM   26  C   UNL     1      -3.580  -1.953 -31.800  1.00  0.00     0.036 C 
HETATM   27  C   UNL     1      -2.273  -1.173 -31.853  1.00  0.00     0.010 C 
ENDBRANCH   1  26
TORSDOF 3
ENDMDL
MODEL 3
REMARK VINA RESULT:      -8.0      4.080      5.131
REMARK  3 active torsions:
REMARK  status: ('A' for Active; 'I' for Inactive)
REMARK    1  A    between atoms: C_2  and  C_3 
REMARK    2  A    between atoms: C_12  and  C_13 
REMARK    3  A    between atoms: C_13  and  C_14 
ROOT
HETATM    1  C   UNL     1      -4.865  -2.808 -33.981  1.00  0.00    -0.027 A 
HETATM    2  C   UNL     1      -6.140  -2.985 -34.544  1.00  0.00     0.039 A 
HETATM    3  C   UNL     1      -6.469  -4.160 -35.427  1.00  0.00     0.071 C 
HETATM    4  N   UNL     1      -7.178  -2.161 -34.331  1.00  0.00    -0.245 NA
HETATM    5  C   UNL     1      -6.926  -1.091 -33.562  1.00  0.00     0.111 A 
HETATM    6  C   UNL     1      -5.716  -0.742 -32.973  1.00  0.00     0.034 A 
HETATM    7  C   UNL     1      -4.636  -1.672 -33.144  1.00  0.00    -0.038 A 
HETATM    8  C   UNL     1      -3.293  -1.481 -32.483  1.00  0.00     0.050 C 
HETATM    9  S   UNL     1      -8.191  -0.019 -33.211  1.00  0.00    -0.063 SA
HETATM   10  C   UNL     1      -7.170   1.009 -32.303  1.00  0.00     0.085 A 
HETATM   11  C   UNL     1      -5.867   0.536 -32.288  1.00  0.00     0.061 A 
HETATM   12  N   UNL     1      -4.848   1.182 -31.671  1.00  0.00    -0.397 N 
HETATM   13  H   UNL     1      -4.952   2.077 -31.203  1.00  0.00     0.156 HD
HETATM   14  H   UNL     1      -3.882   1.009 -31.932  1.00  0.00     0.156 HD
ENDROOT
BRANCH  10  15
HETATM   15  C   UNL     1      -7.795   2.171 -31.693  1.00  0.00     0.201 C 
HETATM   16  O   UNL     1      -7.565   2.536 -30.539  1.00  0.00    -0.286 OA
BRANCH  15  17
HETATM   17  C   UNL     1      -8.774   2.997 -32.457  1.00  0.00     0.018 A 
HETATM   18  C   UNL     1      -8.359   3.947 -33.402  1.00  0.00     0.055 A 
HETATM   19  C   UNL     1      -9.340   4.645 -34.074  1.00  0.00     0.106 A 
HETATM   20  C   UNL     1     -10.681   4.424 -33.850  1.00  0.00     0.105 A 
HETATM   21  O   UNL     1      -9.127   5.607 -35.013  1.00  0.00    -0.323 OA
HETATM   22  O   UNL     1     -11.474   5.215 -34.621  1.00  0.00    -0.323 OA
HETATM   23  C   UNL     1     -11.121   3.487 -32.943  1.00  0.00     0.040 A 
HETATM   24  C   UNL     1     -10.483   5.947 -35.373  1.00  0.00     0.352 A 
HETATM   25  C   UNL     1     -10.152   2.762 -32.243  1.00  0.00     0.018 A 
ENDBRANCH  15  17
ENDBRANCH  10  15
BRANCH   1  26
HETATM   26  C   UNL     1      -3.757  -3.799 -34.299  1.00  0.00     0.036 C 
HETATM   27  C   UNL     1      -3.719  -4.954 -33.308  1.00  0.00     0.010 C 
ENDBRANCH   1  26
TORSDOF 3
ENDMDL
MODEL 4
REMARK VINA RESULT:      -7.9      4.732      7.677
REMARK  3 active torsions:
REMARK  status: ('A' for Active; 'I' for Inactive)
REMARK    1  A    between atoms: C_2  and  C_3 
REMARK    2  A    between atoms: C_12  and  C_13 
REMARK    3  A    between atoms: C_13  and  C_14 
ROOT
HETATM    1  C   UNL     1     -11.647   2.878 -34.312  1.00  0.00    -0.027 A 
HETATM    2  C   UNL     1     -11.953   1.593 -33.835  1.00  0.00     0.039 A 
HETATM    3  C   UNL     1     -13.368   1.087 -33.744  1.00  0.00     0.071 C 
HETATM    4  N   UNL     1     -11.032   0.694 -33.451  1.00  0.00    -0.245 NA
HETATM    5  C   UNL     1      -9.756   1.107 -33.501  1.00  0.00     0.111 A 
HETATM    6  C   UNL     1      -9.289   2.355 -33.896  1.00  0.00     0.034 A 
HETATM    7  C   UNL     1     -10.277   3.278 -34.378  1.00  0.00    -0.038 A 
HETATM    8  C   UNL     1      -9.913   4.633 -34.934  1.00  0.00     0.050 C 
HETATM    9  S   UNL     1      -8.527   0.023 -33.070  1.00  0.00    -0.063 SA
HETATM   10  C   UNL     1      -7.303   1.189 -33.326  1.00  0.00     0.085 A 
HETATM   11  C   UNL     1      -7.842   2.402 -33.723  1.00  0.00     0.061 A 
HETATM   12  N   UNL     1      -7.094   3.508 -33.957  1.00  0.00    -0.397 N 
HETATM   13  H   UNL     1      -6.087   3.543 -33.826  1.00  0.00     0.156 HD
HETATM   14  H   UNL     1      -7.505   4.436 -33.927  1.00  0.00     0.156 HD
ENDROOT
BRANCH  10  15
HETATM   15  C   UNL     1      -5.933   0.750 -33.114  1.00  0.00     0.201 C 
HETATM   16  O   UNL     1      -5.061   1.467 -32.620  1.00  0.00    -0.286 OA
BRANCH  15  17
HETATM   17  C   UNL     1      -5.508  -0.626 -33.500  1.00  0.00     0.018 A 
HETATM   18  C   UNL     1      -4.533  -1.328 -32.776  1.00  0.00     0.055 A 
HETATM   19  C   UNL     1      -4.223  -2.604 -33.197  1.00  0.00     0.106 A 
HETATM   20  C   UNL     1      -4.845  -3.190 -34.277  1.00  0.00     0.105 A 
HETATM   21  O   UNL     1      -3.301  -3.425 -32.625  1.00  0.00    -0.323 OA
HETATM   22  O   UNL     1      -4.393  -4.449 -34.516  1.00  0.00    -0.323 OA
HETATM   23  C   UNL     1      -5.818  -2.535 -34.998  1.00  0.00     0.040 A 
HETATM   24  C   UNL     1      -3.431  -4.602 -33.452  1.00  0.00     0.352 A 
HETATM   25  C   UNL     1      -6.155  -1.239 -34.599  1.00  0.00     0.018 A 
ENDBRANCH  15  17
ENDBRANCH  10  15
BRANCH   1  26
HETATM   26  C   UNL     1     -12.772   3.819 -34.710  1.00  0.00     0.036 C 
HETATM   27  C   UNL     1     -13.253   4.664 -33.539  1.00  0.00     0.010 C 
ENDBRANCH   1  26
TORSDOF 3
ENDMDL
MODEL 5
REMARK VINA RESULT:      -7.9      2.996      7.702
REMARK  3 active torsions:
REMARK  status: ('A' for Active; 'I' for Inactive)
REMARK    1  A    between atoms: C_2  and  C_3 
REMARK    2  A    between atoms: C_12  and  C_13 
REMARK    3  A    between atoms: C_13  and  C_14 
ROOT
HETATM    1  C   UNL     1      -2.503   6.149 -30.968  1.00  0.00    -0.027 A 
HETATM    2  C   UNL     1      -1.560   5.150 -31.261  1.00  0.00     0.039 A 
HETATM    3  C   UNL     1      -0.081   5.430 -31.295  1.00  0.00     0.071 C 
HETATM    4  N   UNL     1      -1.874   3.867 -31.503  1.00  0.00    -0.245 NA
HETATM    5  C   UNL     1      -3.184   3.575 -31.498  1.00  0.00     0.111 A 
HETATM    6  C   UNL     1      -4.242   4.449 -31.278  1.00  0.00     0.034 A 
HETATM    7  C   UNL     1      -3.889   5.800 -30.944  1.00  0.00    -0.038 A 
HETATM    8  C   UNL     1      -4.922   6.838 -30.582  1.00  0.00     0.050 C 
HETATM    9  S   UNL     1      -3.665   1.971 -31.756  1.00  0.00    -0.063 SA
HETATM   10  C   UNL     1      -5.324   2.371 -31.654  1.00  0.00     0.085 A 
HETATM   11  C   UNL     1      -5.499   3.730 -31.440  1.00  0.00     0.061 A 
HETATM   12  N   UNL     1      -6.717   4.319 -31.357  1.00  0.00    -0.397 N 
HETATM   13  H   UNL     1      -7.593   3.819 -31.480  1.00  0.00     0.156 HD
HETATM   14  H   UNL     1      -6.831   5.314 -31.523  1.00  0.00     0.156 HD
ENDROOT
BRANCH  10  15
HETATM   15  C   UNL     1      -6.267   1.273 -31.786  1.00  0.00     0.201 C 
HETATM   16  O   UNL     1      -7.317   1.202 -31.145  1.00  0.00    -0.286 OA
BRANCH  15  17
HETATM   17  C   UNL     1      -5.998   0.149 -32.727  1.00  0.00     0.018 A 
HETATM   18  C   UNL     1      -5.051  -0.845 -32.438  1.00  0.00     0.055 A 
HETATM   19  C   UNL     1      -4.889  -1.857 -33.361  1.00  0.00     0.106 A 
HETATM   20  C   UNL     1      -5.627  -1.914 -34.522  1.00  0.00     0.105 A 
HETATM   21  O   UNL     1      -4.016  -2.895 -33.254  1.00  0.00    -0.323 OA
HETATM   22  O   UNL     1      -5.311  -2.994 -35.285  1.00  0.00    -0.323 OA
HETATM   23  C   UNL     1      -6.575  -0.965 -34.828  1.00  0.00     0.040 A 
HETATM   24  C   UNL     1      -4.305  -3.625 -34.466  1.00  0.00     0.352 A 
HETATM   25  C   UNL     1      -6.764   0.076 -33.914  1.00  0.00     0.018 A 
ENDBRANCH  15  17
ENDBRANCH  10  15
BRANCH   1  26
HETATM   26  C   UNL     1      -2.037   7.574 -30.721  1.00  0.00     0.036 C 
HETATM   27  C   UNL     1      -1.959   8.383 -32.008  1.00  0.00     0.010 C 
ENDBRANCH   1  26
TORSDOF 3
ENDMDL
MODEL 6
REMARK VINA RESULT:      -7.8      1.717      2.043
REMARK  3 active torsions:
REMARK  status: ('A' for Active; 'I' for Inactive)
REMARK    1  A    between atoms: C_2  and  C_3 
REMARK    2  A    between atoms: C_12  and  C_13 
REMARK    3  A    between atoms: C_13  and  C_14 
ROOT
HETATM    1  C   UNL     1      -5.439  -1.895 -34.088  1.00  0.00    -0.027 A 
HETATM    2  C   UNL     1      -4.499  -2.087 -33.062  1.00  0.00     0.039 A 
HETATM    3  C   UNL     1      -3.523  -3.234 -33.074  1.00  0.00     0.071 C 
HETATM    4  N   UNL     1      -4.357  -1.267 -32.009  1.00  0.00    -0.245 NA
HETATM    5  C   UNL     1      -5.217  -0.238 -31.949  1.00  0.00     0.111 A 
HETATM    6  C   UNL     1      -6.233   0.064 -32.847  1.00  0.00     0.034 A 
HETATM    7  C   UNL     1      -6.323  -0.775 -34.009  1.00  0.00    -0.038 A 
HETATM    8  C   UNL     1      -7.310  -0.513 -35.120  1.00  0.00     0.050 C 
HETATM    9  S   UNL     1      -5.083   0.867 -30.672  1.00  0.00    -0.063 SA
HETATM   10  C   UNL     1      -6.424   1.776 -31.216  1.00  0.00     0.085 A 
HETATM   11  C   UNL     1      -6.976   1.220 -32.360  1.00  0.00     0.061 A 
HETATM   12  N   UNL     1      -8.072   1.722 -32.977  1.00  0.00    -0.397 N 
HETATM   13  H   UNL     1      -8.595   2.522 -32.632  1.00  0.00     0.156 HD
HETATM   14  H   UNL     1      -8.638   1.147 -33.593  1.00  0.00     0.156 HD
ENDROOT
BRANCH  10  15
HETATM   15  C   UNL     1      -6.767   2.958 -30.442  1.00  0.00     0.201 C 
HETATM   16  O   UNL     1      -7.795   3.053 -29.770  1.00  0.00    -0.286 OA
BRANCH  15  17
HETATM   17  C   UNL     1      -5.863   4.144 -30.427  1.00  0.00     0.018 A 
HETATM   18  C   UNL     1      -5.142   4.537 -31.564  1.00  0.00     0.055 A 
HETATM   19  C   UNL     1      -4.350   5.661 -31.458  1.00  0.00     0.106 A 
HETATM   20  C   UNL     1      -4.267   6.391 -30.293  1.00  0.00     0.105 A 
HETATM   21  O   UNL     1      -3.577   6.182 -32.449  1.00  0.00    -0.323 OA
HETATM   22  O   UNL     1      -3.435   7.460 -30.409  1.00  0.00    -0.323 OA
HETATM   23  C   UNL     1      -4.975   6.043 -29.165  1.00  0.00     0.040 A 
HETATM   24  C   UNL     1      -3.018   7.336 -31.784  1.00  0.00     0.352 A 
HETATM   25  C   UNL     1      -5.786   4.907 -29.238  1.00  0.00     0.018 A 
ENDBRANCH  15  17
ENDBRANCH  10  15
BRANCH   1  26
HETATM   26  C   UNL     1      -5.520  -2.894 -35.231  1.00  0.00     0.036 C 
HETATM   27  C   UNL     1      -6.583  -3.957 -34.988  1.00  0.00     0.010 C 
ENDBRANCH   1  26
TORSDOF 3
ENDMDL
MODEL 7
REMARK VINA RESULT:      -7.6      5.532      7.994
REMARK  3 active torsions:
REMARK  status: ('A' for Active; 'I' for Inactive)
REMARK    1  A    between atoms: C_2  and  C_3 
REMARK    2  A    between atoms: C_12  and  C_13 
REMARK    3  A    between atoms: C_13  and  C_14 
ROOT
HETATM    1  C   UNL     1      -5.372  -0.486 -32.084  1.00  0.00    -0.027 A 
HETATM    2  C   UNL     1      -5.533  -1.070 -33.351  1.00  0.00     0.039 A 
HETATM    3  C   UNL     1      -4.668  -2.208 -33.825  1.00  0.00     0.071 C 
HETATM    4  N   UNL     1      -6.474  -0.701 -34.236  1.00  0.00    -0.245 NA
HETATM    5  C   UNL     1      -7.258   0.321 -33.861  1.00  0.00     0.111 A 
HETATM    6  C   UNL     1      -7.199   1.039 -32.673  1.00  0.00     0.034 A 
HETATM    7  C   UNL     1      -6.241   0.584 -31.705  1.00  0.00    -0.038 A 
HETATM    8  C   UNL     1      -6.127   1.197 -30.331  1.00  0.00     0.050 C 
HETATM    9  S   UNL     1      -8.497   0.826 -34.902  1.00  0.00    -0.063 SA
HETATM   10  C   UNL     1      -8.981   2.078 -33.844  1.00  0.00     0.085 A 
HETATM   11  C   UNL     1      -8.183   2.114 -32.711  1.00  0.00     0.061 A 
HETATM   12  N   UNL     1      -8.327   3.034 -31.728  1.00  0.00    -0.397 N 
HETATM   13  H   UNL     1      -9.006   3.789 -31.760  1.00  0.00     0.156 HD
HETATM   14  H   UNL     1      -7.565   3.248 -31.092  1.00  0.00     0.156 HD
ENDROOT
BRANCH  10  15
HETATM   15  C   UNL     1     -10.119   2.879 -34.263  1.00  0.00     0.201 C 
HETATM   16  O   UNL     1     -10.011   3.942 -34.875  1.00  0.00    -0.286 OA
BRANCH  15  17
HETATM   17  C   UNL     1     -11.511   2.438 -33.957  1.00  0.00     0.018 A 
HETATM   18  C   UNL     1     -12.247   2.995 -32.901  1.00  0.00     0.055 A 
HETATM   19  C   UNL     1     -13.534   2.538 -32.712  1.00  0.00     0.106 A 
HETATM   20  C   UNL     1     -14.099   1.581 -33.526  1.00  0.00     0.105 A 
HETATM   21  O   UNL     1     -14.388   2.954 -31.738  1.00  0.00    -0.323 OA
HETATM   22  O   UNL     1     -15.374   1.280 -33.167  1.00  0.00    -0.323 OA
HETATM   23  C   UNL     1     -13.410   1.027 -34.582  1.00  0.00     0.040 A 
HETATM   24  C   UNL     1     -15.561   2.170 -32.046  1.00  0.00     0.352 A 
HETATM   25  C   UNL     1     -12.101   1.467 -34.800  1.00  0.00     0.018 A 
ENDBRANCH  15  17
ENDBRANCH  10  15
BRANCH   1  26
HETATM   26  C   UNL     1      -4.264  -0.975 -31.166  1.00  0.00     0.036 C 
HETATM   27  C   UNL     1      -2.979  -0.178 -31.343  1.00  0.00     0.010 C 
ENDBRANCH   1  26
TORSDOF 3
ENDMDL
MODEL 8
REMARK VINA RESULT:      -7.6      4.972      7.985
REMARK  3 active torsions:
REMARK  status: ('A' for Active; 'I' for Inactive)
REMARK    1  A    between atoms: C_2  and  C_3 
REMARK    2  A    between atoms: C_12  and  C_13 
REMARK    3  A    between atoms: C_13  and  C_14 
ROOT
HETATM    1  C   UNL     1     -11.751   3.549 -32.803  1.00  0.00    -0.027 A 
HETATM    2  C   UNL     1     -11.657   3.074 -34.121  1.00  0.00     0.039 A 
HETATM    3  C   UNL     1     -12.762   3.271 -35.125  1.00  0.00     0.071 C 
HETATM    4  N   UNL     1     -10.583   2.438 -34.617  1.00  0.00    -0.245 NA
HETATM    5  C   UNL     1      -9.579   2.226 -33.753  1.00  0.00     0.111 A 
HETATM    6  C   UNL     1      -9.533   2.583 -32.410  1.00  0.00     0.034 A 
HETATM    7  C   UNL     1     -10.654   3.330 -31.914  1.00  0.00    -0.038 A 
HETATM    8  C   UNL     1     -10.703   3.873 -30.507  1.00  0.00     0.050 C 
HETATM    9  S   UNL     1      -8.170   1.464 -34.306  1.00  0.00    -0.063 SA
HETATM   10  C   UNL     1      -7.445   1.511 -32.758  1.00  0.00     0.085 A 
HETATM   11  C   UNL     1      -8.290   2.093 -31.826  1.00  0.00     0.061 A 
HETATM   12  N   UNL     1      -7.976   2.221 -30.514  1.00  0.00    -0.397 N 
HETATM   13  H   UNL     1      -7.114   1.871 -30.106  1.00  0.00     0.156 HD
HETATM   14  H   UNL     1      -8.698   2.342 -29.811  1.00  0.00     0.156 HD
ENDROOT
BRANCH  10  15
HETATM   15  C   UNL     1      -6.099   0.971 -32.654  1.00  0.00     0.201 C 
HETATM   16  O   UNL     1      -5.166   1.576 -32.125  1.00  0.00    -0.286 OA
BRANCH  15  17
HETATM   17  C   UNL     1      -5.778  -0.378 -33.201  1.00  0.00     0.018 A 
HETATM   18  C   UNL     1      -6.782  -1.269 -33.605  1.00  0.00     0.055 A 
HETATM   19  C   UNL     1      -6.384  -2.485 -34.120  1.00  0.00     0.106 A 
HETATM   20  C   UNL     1      -5.057  -2.826 -34.252  1.00  0.00     0.105 A 
HETATM   21  O   UNL     1      -7.215  -3.473 -34.552  1.00  0.00    -0.323 OA
HETATM   22  O   UNL     1      -4.888  -4.065 -34.784  1.00  0.00    -0.323 OA
HETATM   23  C   UNL     1      -4.046  -1.967 -33.882  1.00  0.00     0.040 A 
HETATM   24  C   UNL     1      -6.260  -4.462 -34.994  1.00  0.00     0.352 A 
HETATM   25  C   UNL     1      -4.415  -0.726 -33.354  1.00  0.00     0.018 A 
ENDBRANCH  15  17
ENDBRANCH  10  15
BRANCH   1  26
HETATM   26  C   UNL     1     -13.021   4.246 -32.343  1.00  0.00     0.036 C 
HETATM   27  C   UNL     1     -14.036   3.268 -31.768  1.00  0.00     0.010 C 
ENDBRANCH   1  26
TORSDOF 3
ENDMDL
MODEL 9
REMARK VINA RESULT:      -7.5      3.759      8.763
REMARK  3 active torsions:
REMARK  status: ('A' for Active; 'I' for Inactive)
REMARK    1  A    between atoms: C_2  and  C_3 
REMARK    2  A    between atoms: C_12  and  C_13 
REMARK    3  A    between atoms: C_13  and  C_14 
ROOT
HETATM    1  C   UNL     1      -0.684   7.632 -29.177  1.00  0.00    -0.027 A 
HETATM    2  C   UNL     1      -1.944   7.867 -28.603  1.00  0.00     0.039 A 
HETATM    3  C   UNL     1      -2.106   8.604 -27.300  1.00  0.00     0.071 C 
HETATM    4  N   UNL     1      -3.107   7.495 -29.162  1.00  0.00    -0.245 NA
HETATM    5  C   UNL     1      -3.010   6.821 -30.319  1.00  0.00     0.111 A 
HETATM    6  C   UNL     1      -1.847   6.463 -30.991  1.00  0.00     0.034 A 
HETATM    7  C   UNL     1      -0.616   6.934 -30.423  1.00  0.00    -0.038 A 
HETATM    8  C   UNL     1       0.719   6.711 -31.090  1.00  0.00     0.050 C 
HETATM    9  S   UNL     1      -4.431   6.347 -31.112  1.00  0.00    -0.063 SA
HETATM   10  C   UNL     1      -3.564   5.577 -32.368  1.00  0.00     0.085 A 
HETATM   11  C   UNL     1      -2.196   5.672 -32.165  1.00  0.00     0.061 A 
HETATM   12  N   UNL     1      -1.280   5.114 -32.993  1.00  0.00    -0.397 N 
HETATM   13  H   UNL     1      -1.524   4.555 -33.805  1.00  0.00     0.156 HD
HETATM   14  H   UNL     1      -0.337   4.915 -32.675  1.00  0.00     0.156 HD
ENDROOT
BRANCH  10  15
HETATM   15  C   UNL     1      -4.355   4.974 -33.428  1.00  0.00     0.201 C 
HETATM   16  O   UNL     1      -4.576   5.527 -34.507  1.00  0.00    -0.286 OA
BRANCH  15  17
HETATM   17  C   UNL     1      -4.954   3.620 -33.252  1.00  0.00     0.018 A 
HETATM   18  C   UNL     1      -4.441   2.699 -32.327  1.00  0.00     0.055 A 
HETATM   19  C   UNL     1      -5.078   1.481 -32.221  1.00  0.00     0.106 A 
HETATM   20  C   UNL     1      -6.185   1.165 -32.977  1.00  0.00     0.105 A 
HETATM   21  O   UNL     1      -4.717   0.467 -31.388  1.00  0.00    -0.323 OA
HETATM   22  O   UNL     1      -6.657  -0.082 -32.712  1.00  0.00    -0.323 OA
HETATM   23  C   UNL     1      -6.724   2.052 -33.882  1.00  0.00     0.040 A 
HETATM   24  C   UNL     1      -5.736  -0.512 -31.687  1.00  0.00     0.352 A 
HETATM   25  C   UNL     1      -6.101   3.296 -34.015  1.00  0.00     0.018 A 
ENDBRANCH  15  17
ENDBRANCH  10  15
BRANCH   1  26
HETATM   26  C   UNL     1       0.571   8.087 -28.450  1.00  0.00     0.036 C 
HETATM   27  C   UNL     1       1.066   7.047 -27.455  1.00  0.00     0.010 C 
ENDBRANCH   1  26
TORSDOF 3
ENDMDL
MODEL 10
REMARK VINA RESULT:      -7.4     16.071     17.582
REMARK  3 active torsions:
REMARK  status: ('A' for Active; 'I' for Inactive)
REMARK    1  A    between atoms: C_2  and  C_3 
REMARK    2  A    between atoms: C_12  and  C_13 
REMARK    3  A    between atoms: C_13  and  C_14 
ROOT
HETATM    1  C   UNL     1      -0.720 -14.492 -38.094  1.00  0.00    -0.027 A 
HETATM    2  C   UNL     1      -1.249 -14.215 -39.366  1.00  0.00     0.039 A 
HETATM    3  C   UNL     1      -0.389 -14.186 -40.602  1.00  0.00     0.071 C 
HETATM    4  N   UNL     1      -2.549 -13.984 -39.606  1.00  0.00    -0.245 NA
HETATM    5  C   UNL     1      -3.351 -13.985 -38.530  1.00  0.00     0.111 A 
HETATM    6  C   UNL     1      -2.984 -14.189 -37.205  1.00  0.00     0.034 A 
HETATM    7  C   UNL     1      -1.605 -14.512 -36.972  1.00  0.00    -0.038 A 
HETATM    8  C   UNL     1      -1.077 -14.857 -35.601  1.00  0.00     0.050 C 
HETATM    9  S   UNL     1      -5.014 -13.741 -38.748  1.00  0.00    -0.063 SA
HETATM   10  C   UNL     1      -5.325 -13.829 -37.070  1.00  0.00     0.085 A 
HETATM   11  C   UNL     1      -4.156 -14.028 -36.353  1.00  0.00     0.061 A 
HETATM   12  N   UNL     1      -4.115 -14.097 -35.000  1.00  0.00    -0.397 N 
HETATM   13  H   UNL     1      -4.929 -13.975 -34.406  1.00  0.00     0.156 HD
HETATM   14  H   UNL     1      -3.255 -13.920 -34.491  1.00  0.00     0.156 HD
ENDROOT
BRANCH  10  15
HETATM   15  C   UNL     1      -6.714 -13.703 -36.658  1.00  0.00     0.201 C 
HETATM   16  O   UNL     1      -7.057 -13.339 -35.533  1.00  0.00    -0.286 OA
BRANCH  15  17
HETATM   17  C   UNL     1      -7.819 -14.022 -37.608  1.00  0.00     0.018 A 
HETATM   18  C   UNL     1      -8.565 -13.015 -38.237  1.00  0.00     0.055 A 
HETATM   19  C   UNL     1      -9.552 -13.409 -39.116  1.00  0.00     0.106 A 
HETATM   20  C   UNL     1      -9.802 -14.736 -39.389  1.00  0.00     0.105 A 
HETATM   21  O   UNL     1     -10.376 -12.576 -39.808  1.00  0.00    -0.323 OA
HETATM   22  O   UNL     1     -10.812 -14.900 -40.284  1.00  0.00    -0.323 OA
HETATM   23  C   UNL     1      -9.078 -15.747 -38.801  1.00  0.00     0.040 A 
HETATM   24  C   UNL     1     -11.157 -13.527 -40.564  1.00  0.00     0.352 A 
HETATM   25  C   UNL     1      -8.070 -15.382 -37.903  1.00  0.00     0.018 A 
ENDBRANCH  15  17
ENDBRANCH  10  15
BRANCH   1  26
HETATM   26  C   UNL     1       0.773 -14.727 -37.935  1.00  0.00     0.036 C 
HETATM   27  C   UNL     1       1.125 -16.208 -37.946  1.00  0.00     0.010 C 
ENDBRANCH   1  26
TORSDOF 3
ENDMDL
