MODEL 1
REMARK VINA RESULT:      -8.4      0.000      0.000
REMARK  2 active torsions:
REMARK  status: ('A' for Active; 'I' for Inactive)
REMARK    1  A    between atoms: N_9  and  N_11 
REMARK       I    between atoms: N_11  and  C_12 
REMARK    2  A    between atoms: C_12  and  C_13 
ROOT
HETATM    1  C   UNL     1      -7.946   1.480 -31.516  1.00  0.00     0.033 C 
HETATM    2  C   UNL     1      -7.470   2.424 -32.624  1.00  0.00     0.086 C 
HETATM    3  N   UNL     1      -6.196   1.989 -33.261  1.00  0.00    -0.379 N 
HETATM    4  C   UNL     1      -4.992   2.628 -32.715  1.00  0.00     0.150 C 
HETATM    5  C   UNL     1      -6.080   0.627 -33.620  1.00  0.00     0.052 A 
HETATM    6  C   UNL     1      -6.932   0.065 -34.610  1.00  0.00     0.040 A 
HETATM    7  N   UNL     1      -7.919   0.883 -35.266  1.00  0.00    -0.246 NA
HETATM    8  C   UNL     1      -8.900   1.502 -34.426  1.00  0.00     0.077 C 
HETATM    9  N   UNL     1     -10.075   0.900 -34.379  1.00  0.00    -0.291 N 
HETATM   10  H   UNL     1     -10.134   0.054 -34.961  1.00  0.00     0.188 HD
HETATM   11  C   UNL     1      -8.555   2.719 -33.670  1.00  0.00     0.096 C 
HETATM   12  C   UNL     1      -5.115  -0.224 -33.059  1.00  0.00     0.031 A 
HETATM   13  C   UNL     1      -5.012  -1.567 -33.441  1.00  0.00     0.002 A 
HETATM   14  C   UNL     1      -5.870  -2.094 -34.403  1.00  0.00     0.002 A 
HETATM   15  C   UNL     1      -6.832  -1.278 -34.988  1.00  0.00     0.026 A 
HETATM   16  H   UNL     1      -7.300   1.651 -35.561  1.00  0.00     0.135 HD
ENDROOT
BRANCH   9  17
HETATM   17  N   UNL     1     -11.143   1.254 -33.684  1.00  0.00    -0.265 N 
HETATM   18  C   UNL     1     -12.293   1.548 -34.398  1.00  0.00     0.270 C 
HETATM   19  O   UNL     1     -12.349   1.457 -35.621  1.00  0.00    -0.266 OA
HETATM   20  H   UNL     1     -11.130   1.237 -32.673  1.00  0.00     0.190 HD
BRANCH  18  21
HETATM   21  C   UNL     1     -13.482   1.949 -33.599  1.00  0.00     0.033 A 
HETATM   22  C   UNL     1     -14.720   1.303 -33.725  1.00  0.00     0.017 A 
HETATM   23  C   UNL     1     -15.807   1.724 -32.955  1.00  0.00     0.001 A 
HETATM   24  C   UNL     1     -15.661   2.779 -32.055  1.00  0.00     0.000 A 
HETATM   25  C   UNL     1     -14.427   3.411 -31.913  1.00  0.00     0.001 A 
HETATM   26  C   UNL     1     -13.337   2.995 -32.678  1.00  0.00     0.017 A 
ENDBRANCH  18  21
ENDBRANCH   9  17
TORSDOF 2
ENDMDL
MODEL 2
REMARK VINA RESULT:      -8.4      3.978      8.490
REMARK  2 active torsions:
REMARK  status: ('A' for Active; 'I' for Inactive)
REMARK    1  A    between atoms: N_9  and  N_11 
REMARK       I    between atoms: N_11  and  C_12 
REMARK    2  A    between atoms: C_12  and  C_13 
ROOT
HETATM    1  C   UNL     1      -5.861   3.692 -34.109  1.00  0.00     0.033 C 
HETATM    2  C   UNL     1      -7.036   3.639 -33.128  1.00  0.00     0.086 C 
HETATM    3  N   UNL     1      -7.941   2.479 -33.354  1.00  0.00    -0.379 N 
HETATM    4  C   UNL     1      -9.124   2.778 -34.170  1.00  0.00     0.150 C 
HETATM    5  C   UNL     1      -7.341   1.214 -33.551  1.00  0.00     0.052 A 
HETATM    6  C   UNL     1      -6.584   0.603 -32.514  1.00  0.00     0.040 A 
HETATM    7  N   UNL     1      -6.428   1.265 -31.244  1.00  0.00    -0.246 NA
HETATM    8  C   UNL     1      -5.810   2.557 -31.265  1.00  0.00     0.077 C 
HETATM    9  N   UNL     1      -4.531   2.585 -30.935  1.00  0.00    -0.291 N 
HETATM   10  H   UNL     1      -4.140   1.663 -30.702  1.00  0.00     0.188 HD
HETATM   11  C   UNL     1      -6.597   3.739 -31.659  1.00  0.00     0.096 C 
HETATM   12  C   UNL     1      -7.482   0.487 -34.743  1.00  0.00     0.031 A 
HETATM   13  C   UNL     1      -6.888  -0.770 -34.910  1.00  0.00     0.002 A 
HETATM   14  C   UNL     1      -6.140  -1.337 -33.882  1.00  0.00     0.002 A 
HETATM   15  C   UNL     1      -5.986  -0.650 -32.682  1.00  0.00     0.026 A 
HETATM   16  H   UNL     1      -7.423   1.449 -31.052  1.00  0.00     0.135 HD
ENDROOT
BRANCH   9  17
HETATM   17  N   UNL     1      -3.728   3.635 -30.881  1.00  0.00    -0.265 N 
HETATM   18  C   UNL     1      -2.746   3.730 -31.855  1.00  0.00     0.270 C 
HETATM   19  O   UNL     1      -2.632   2.904 -32.756  1.00  0.00    -0.266 OA
HETATM   20  H   UNL     1      -3.880   4.367 -30.201  1.00  0.00     0.190 HD
BRANCH  18  21
HETATM   21  C   UNL     1      -1.852   4.915 -31.775  1.00  0.00     0.033 A 
HETATM   22  C   UNL     1      -2.089   6.082 -32.515  1.00  0.00     0.017 A 
HETATM   23  C   UNL     1      -1.212   7.164 -32.410  1.00  0.00     0.001 A 
HETATM   24  C   UNL     1      -0.108   7.091 -31.562  1.00  0.00     0.000 A 
HETATM   25  C   UNL     1       0.120   5.940 -30.809  1.00  0.00     0.001 A 
HETATM   26  C   UNL     1      -0.751   4.855 -30.910  1.00  0.00     0.017 A 
ENDBRANCH  18  21
ENDBRANCH   9  17
TORSDOF 2
ENDMDL
MODEL 3
REMARK VINA RESULT:      -8.3      4.331      8.218
REMARK  2 active torsions:
REMARK  status: ('A' for Active; 'I' for Inactive)
REMARK    1  A    between atoms: N_9  and  N_11 
REMARK       I    between atoms: N_11  and  C_12 
REMARK    2  A    between atoms: C_12  and  C_13 
ROOT
HETATM    1  C   UNL     1      -6.429   2.756 -32.962  1.00  0.00     0.033 C 
HETATM    2  C   UNL     1      -6.861   2.144 -31.626  1.00  0.00     0.086 C 
HETATM    3  N   UNL     1      -7.331   0.736 -31.748  1.00  0.00    -0.379 N 
HETATM    4  C   UNL     1      -8.787   0.586 -31.859  1.00  0.00     0.150 C 
HETATM    5  C   UNL     1      -6.544  -0.147 -32.521  1.00  0.00     0.052 A 
HETATM    6  C   UNL     1      -5.219  -0.474 -32.121  1.00  0.00     0.040 A 
HETATM    7  N   UNL     1      -4.666   0.087 -30.916  1.00  0.00    -0.246 NA
HETATM    8  C   UNL     1      -4.594   1.516 -30.847  1.00  0.00     0.077 C 
HETATM    9  N   UNL     1      -3.410   2.042 -31.107  1.00  0.00    -0.291 N 
HETATM   10  H   UNL     1      -2.684   1.347 -31.326  1.00  0.00     0.188 HD
HETATM   11  C   UNL     1      -5.802   2.296 -30.525  1.00  0.00     0.096 C 
HETATM   12  C   UNL     1      -7.025  -0.768 -33.685  1.00  0.00     0.031 A 
HETATM   13  C   UNL     1      -6.230  -1.650 -34.427  1.00  0.00     0.002 A 
HETATM   14  C   UNL     1      -4.931  -1.940 -34.019  1.00  0.00     0.002 A 
HETATM   15  C   UNL     1      -4.423  -1.351 -32.866  1.00  0.00     0.026 A 
HETATM   16  H   UNL     1      -5.427  -0.172 -30.272  1.00  0.00     0.135 HD
ENDROOT
BRANCH   9  17
HETATM   17  N   UNL     1      -3.074   3.321 -31.119  1.00  0.00    -0.265 N 
HETATM   18  C   UNL     1      -2.727   3.871 -32.343  1.00  0.00     0.270 C 
HETATM   19  O   UNL     1      -2.756   3.224 -33.386  1.00  0.00    -0.266 OA
HETATM   20  H   UNL     1      -3.143   3.881 -30.280  1.00  0.00     0.190 HD
BRANCH  18  21
HETATM   21  C   UNL     1      -2.348   5.309 -32.335  1.00  0.00     0.033 A 
HETATM   22  C   UNL     1      -1.630   5.898 -33.386  1.00  0.00     0.017 A 
HETATM   23  C   UNL     1      -1.293   7.253 -33.326  1.00  0.00     0.001 A 
HETATM   24  C   UNL     1      -1.677   8.022 -32.228  1.00  0.00     0.000 A 
HETATM   25  C   UNL     1      -2.408   7.444 -31.191  1.00  0.00     0.001 A 
HETATM   26  C   UNL     1      -2.748   6.092 -31.245  1.00  0.00     0.017 A 
ENDBRANCH  18  21
ENDBRANCH   9  17
TORSDOF 2
ENDMDL
MODEL 4
REMARK VINA RESULT:      -8.2      3.035      7.493
REMARK  2 active torsions:
REMARK  status: ('A' for Active; 'I' for Inactive)
REMARK    1  A    between atoms: N_9  and  N_11 
REMARK       I    between atoms: N_11  and  C_12 
REMARK    2  A    between atoms: C_12  and  C_13 
ROOT
HETATM    1  C   UNL     1      -9.261   0.569 -31.919  1.00  0.00     0.033 C 
HETATM    2  C   UNL     1      -9.696   1.481 -33.070  1.00  0.00     0.086 C 
HETATM    3  N   UNL     1      -9.837   2.909 -32.671  1.00  0.00    -0.379 N 
HETATM    4  C   UNL     1     -11.206   3.314 -32.329  1.00  0.00     0.150 C 
HETATM    5  C   UNL     1      -8.799   3.472 -31.894  1.00  0.00     0.052 A 
HETATM    6  C   UNL     1      -7.487   3.602 -32.426  1.00  0.00     0.040 A 
HETATM    7  N   UNL     1      -7.203   3.169 -33.769  1.00  0.00    -0.246 NA
HETATM    8  C   UNL     1      -7.446   1.789 -34.064  1.00  0.00     0.077 C 
HETATM    9  N   UNL     1      -6.381   1.007 -34.060  1.00  0.00    -0.291 N 
HETATM   10  H   UNL     1      -5.504   1.498 -33.845  1.00  0.00     0.188 HD
HETATM   11  C   UNL     1      -8.821   1.326 -34.323  1.00  0.00     0.096 C 
HETATM   12  C   UNL     1      -9.005   3.957 -30.592  1.00  0.00     0.031 A 
HETATM   13  C   UNL     1      -7.963   4.522 -29.848  1.00  0.00     0.002 A 
HETATM   14  C   UNL     1      -6.685   4.624 -30.389  1.00  0.00     0.002 A 
HETATM   15  C   UNL     1      -6.444   4.163 -31.679  1.00  0.00     0.026 A 
HETATM   16  H   UNL     1      -7.957   3.680 -34.250  1.00  0.00     0.135 HD
ENDROOT
BRANCH   9  17
HETATM   17  N   UNL     1      -6.328  -0.295 -34.290  1.00  0.00    -0.265 N 
HETATM   18  C   UNL     1      -5.200  -0.968 -33.851  1.00  0.00     0.270 C 
HETATM   19  O   UNL     1      -4.294  -0.405 -33.243  1.00  0.00    -0.266 OA
HETATM   20  H   UNL     1      -7.114  -0.779 -34.703  1.00  0.00     0.190 HD
BRANCH  18  21
HETATM   21  C   UNL     1      -5.157  -2.430 -34.122  1.00  0.00     0.033 A 
HETATM   22  C   UNL     1      -4.054  -3.223 -33.773  1.00  0.00     0.017 A 
HETATM   23  C   UNL     1      -4.061  -4.591 -34.058  1.00  0.00     0.001 A 
HETATM   24  C   UNL     1      -5.166  -5.170 -34.681  1.00  0.00     0.000 A 
HETATM   25  C   UNL     1      -6.272  -4.389 -35.011  1.00  0.00     0.001 A 
HETATM   26  C   UNL     1      -6.272  -3.022 -34.729  1.00  0.00     0.017 A 
ENDBRANCH  18  21
ENDBRANCH   9  17
TORSDOF 2
ENDMDL
MODEL 5
REMARK VINA RESULT:      -8.2      4.279      7.241
REMARK  2 active torsions:
REMARK  status: ('A' for Active; 'I' for Inactive)
REMARK    1  A    between atoms: N_9  and  N_11 
REMARK       I    between atoms: N_11  and  C_12 
REMARK    2  A    between atoms: C_12  and  C_13 
ROOT
HETATM    1  C   UNL     1      -5.320   3.136 -32.727  1.00  0.00     0.033 C 
HETATM    2  C   UNL     1      -4.801   3.317 -31.298  1.00  0.00     0.086 C 
HETATM    3  N   UNL     1      -5.322   4.543 -30.633  1.00  0.00    -0.379 N 
HETATM    4  C   UNL     1      -4.426   5.703 -30.705  1.00  0.00     0.150 C 
HETATM    5  C   UNL     1      -6.706   4.806 -30.745  1.00  0.00     0.052 A 
HETATM    6  C   UNL     1      -7.659   3.918 -30.174  1.00  0.00     0.040 A 
HETATM    7  N   UNL     1      -7.223   2.744 -29.465  1.00  0.00    -0.246 NA
HETATM    8  C   UNL     1      -6.431   1.805 -30.203  1.00  0.00     0.077 C 
HETATM    9  N   UNL     1      -7.078   0.747 -30.660  1.00  0.00    -0.291 N 
HETATM   10  H   UNL     1      -8.078   0.734 -30.422  1.00  0.00     0.188 HD
HETATM   11  C   UNL     1      -4.999   2.069 -30.424  1.00  0.00     0.096 C 
HETATM   12  C   UNL     1      -7.210   5.950 -31.383  1.00  0.00     0.031 A 
HETATM   13  C   UNL     1      -8.585   6.194 -31.470  1.00  0.00     0.002 A 
HETATM   14  C   UNL     1      -9.496   5.301 -30.914  1.00  0.00     0.002 A 
HETATM   15  C   UNL     1      -9.034   4.161 -30.266  1.00  0.00     0.026 A 
HETATM   16  H   UNL     1      -6.561   3.200 -28.820  1.00  0.00     0.135 HD
ENDROOT
BRANCH   9  17
HETATM   17  N   UNL     1      -6.592  -0.257 -31.370  1.00  0.00    -0.265 N 
HETATM   18  C   UNL     1      -6.935  -0.306 -32.712  1.00  0.00     0.270 C 
HETATM   19  O   UNL     1      -7.630   0.555 -33.244  1.00  0.00    -0.266 OA
HETATM   20  H   UNL     1      -5.941  -0.913 -30.960  1.00  0.00     0.190 HD
BRANCH  18  21
HETATM   21  C   UNL     1      -6.382  -1.444 -33.493  1.00  0.00     0.033 A 
HETATM   22  C   UNL     1      -7.203  -2.329 -34.206  1.00  0.00     0.017 A 
HETATM   23  C   UNL     1      -6.634  -3.389 -34.917  1.00  0.00     0.001 A 
HETATM   24  C   UNL     1      -5.251  -3.562 -34.927  1.00  0.00     0.000 A 
HETATM   25  C   UNL     1      -4.430  -2.672 -34.235  1.00  0.00     0.001 A 
HETATM   26  C   UNL     1      -4.992  -1.612 -33.523  1.00  0.00     0.017 A 
ENDBRANCH  18  21
ENDBRANCH   9  17
TORSDOF 2
ENDMDL
MODEL 6
REMARK VINA RESULT:      -8.1      2.731      7.022
REMARK  2 active torsions:
REMARK  status: ('A' for Active; 'I' for Inactive)
REMARK    1  A    between atoms: N_9  and  N_11 
REMARK       I    between atoms: N_11  and  C_12 
REMARK    2  A    between atoms: C_12  and  C_13 
ROOT
HETATM    1  C   UNL     1      -6.954   2.881 -33.439  1.00  0.00     0.033 C 
HETATM    2  C   UNL     1      -7.709   3.090 -32.123  1.00  0.00     0.086 C 
HETATM    3  N   UNL     1      -8.710   4.191 -32.186  1.00  0.00    -0.379 N 
HETATM    4  C   UNL     1      -8.229   5.482 -31.680  1.00  0.00     0.150 C 
HETATM    5  C   UNL     1      -9.561   4.233 -33.314  1.00  0.00     0.052 A 
HETATM    6  C   UNL     1     -10.490   3.183 -33.558  1.00  0.00     0.040 A 
HETATM    7  N   UNL     1     -10.579   2.069 -32.651  1.00  0.00    -0.246 NA
HETATM    8  C   UNL     1      -9.387   1.297 -32.463  1.00  0.00     0.077 C 
HETATM    9  N   UNL     1      -9.323   0.167 -33.145  1.00  0.00    -0.291 N 
HETATM   10  H   UNL     1     -10.150  -0.015 -33.729  1.00  0.00     0.188 HD
HETATM   11  C   UNL     1      -8.325   1.795 -31.571  1.00  0.00     0.096 C 
HETATM   12  C   UNL     1      -9.565   5.305 -34.220  1.00  0.00     0.031 A 
HETATM   13  C   UNL     1     -10.427   5.328 -35.323  1.00  0.00     0.002 A 
HETATM   14  C   UNL     1     -11.316   4.280 -35.545  1.00  0.00     0.002 A 
HETATM   15  C   UNL     1     -11.348   3.205 -34.663  1.00  0.00     0.026 A 
HETATM   16  H   UNL     1     -10.692   2.600 -31.777  1.00  0.00     0.135 HD
ENDROOT
BRANCH   9  17
HETATM   17  N   UNL     1      -8.342  -0.720 -33.159  1.00  0.00    -0.265 N 
HETATM   18  C   UNL     1      -7.602  -0.825 -34.327  1.00  0.00     0.270 C 
HETATM   19  O   UNL     1      -7.812  -0.112 -35.303  1.00  0.00    -0.266 OA
HETATM   20  H   UNL     1      -8.103  -1.239 -32.325  1.00  0.00     0.190 HD
BRANCH  18  21
HETATM   21  C   UNL     1      -6.506  -1.830 -34.324  1.00  0.00     0.033 A 
HETATM   22  C   UNL     1      -5.219  -1.531 -33.855  1.00  0.00     0.017 A 
HETATM   23  C   UNL     1      -4.222  -2.509 -33.882  1.00  0.00     0.001 A 
HETATM   24  C   UNL     1      -4.508  -3.785 -34.366  1.00  0.00     0.000 A 
HETATM   25  C   UNL     1      -5.791  -4.092 -34.814  1.00  0.00     0.001 A 
HETATM   26  C   UNL     1      -6.791  -3.120 -34.790  1.00  0.00     0.017 A 
ENDBRANCH  18  21
ENDBRANCH   9  17
TORSDOF 2
ENDMDL
MODEL 7
REMARK VINA RESULT:      -7.7      1.788      7.635
REMARK  2 active torsions:
REMARK  status: ('A' for Active; 'I' for Inactive)
REMARK    1  A    between atoms: N_9  and  N_11 
REMARK       I    between atoms: N_11  and  C_12 
REMARK    2  A    between atoms: C_12  and  C_13 
ROOT
HETATM    1  C   UNL     1     -12.300   0.097 -33.251  1.00  0.00     0.033 C 
HETATM    2  C   UNL     1     -12.952   0.646 -34.523  1.00  0.00     0.086 C 
HETATM    3  N   UNL     1     -14.102   1.552 -34.252  1.00  0.00    -0.379 N 
HETATM    4  C   UNL     1     -15.417   0.902 -34.309  1.00  0.00     0.150 C 
HETATM    5  C   UNL     1     -13.930   2.542 -33.258  1.00  0.00     0.052 A 
HETATM    6  C   UNL     1     -12.971   3.579 -33.428  1.00  0.00     0.040 A 
HETATM    7  N   UNL     1     -12.170   3.635 -34.622  1.00  0.00    -0.246 NA
HETATM    8  C   UNL     1     -11.345   2.497 -34.897  1.00  0.00     0.077 C 
HETATM    9  N   UNL     1     -10.071   2.620 -34.569  1.00  0.00    -0.291 N 
HETATM   10  H   UNL     1      -9.834   3.530 -34.154  1.00  0.00     0.188 HD
HETATM   11  C   UNL     1     -11.942   1.286 -35.488  1.00  0.00     0.096 C 
HETATM   12  C   UNL     1     -14.702   2.580 -32.086  1.00  0.00     0.031 A 
HETATM   13  C   UNL     1     -14.521   3.580 -31.122  1.00  0.00     0.002 A 
HETATM   14  C   UNL     1     -13.565   4.574 -31.309  1.00  0.00     0.002 A 
HETATM   15  C   UNL     1     -12.788   4.574 -32.462  1.00  0.00     0.026 A 
HETATM   16  H   UNL     1     -12.932   3.584 -35.313  1.00  0.00     0.135 HD
ENDROOT
BRANCH   9  17
HETATM   17  N   UNL     1      -9.106   1.726 -34.707  1.00  0.00    -0.265 N 
HETATM   18  C   UNL     1      -8.640   1.117 -33.553  1.00  0.00     0.270 C 
HETATM   19  O   UNL     1      -9.112   1.358 -32.446  1.00  0.00    -0.266 OA
HETATM   20  H   UNL     1      -8.782   1.453 -35.625  1.00  0.00     0.190 HD
BRANCH  18  21
HETATM   21  C   UNL     1      -7.552   0.118 -33.728  1.00  0.00     0.033 A 
HETATM   22  C   UNL     1      -7.441  -0.671 -34.882  1.00  0.00     0.017 A 
HETATM   23  C   UNL     1      -6.405  -1.601 -34.993  1.00  0.00     0.001 A 
HETATM   24  C   UNL     1      -5.475  -1.739 -33.964  1.00  0.00     0.000 A 
HETATM   25  C   UNL     1      -5.570  -0.942 -32.824  1.00  0.00     0.001 A 
HETATM   26  C   UNL     1      -6.603  -0.011 -32.706  1.00  0.00     0.017 A 
ENDBRANCH  18  21
ENDBRANCH   9  17
TORSDOF 2
ENDMDL
MODEL 8
REMARK VINA RESULT:      -7.6      2.523      4.225
REMARK  2 active torsions:
REMARK  status: ('A' for Active; 'I' for Inactive)
REMARK    1  A    between atoms: N_9  and  N_11 
REMARK       I    between atoms: N_11  and  C_12 
REMARK    2  A    between atoms: C_12  and  C_13 
ROOT
HETATM    1  C   UNL     1      -6.364   0.839 -33.595  1.00  0.00     0.033 C 
HETATM    2  C   UNL     1      -5.965   0.032 -32.356  1.00  0.00     0.086 C 
HETATM    3  N   UNL     1      -4.644   0.428 -31.794  1.00  0.00    -0.379 N 
HETATM    4  C   UNL     1      -3.519  -0.404 -32.237  1.00  0.00     0.150 C 
HETATM    5  C   UNL     1      -4.388   1.811 -31.648  1.00  0.00     0.052 A 
HETATM    6  C   UNL     1      -5.164   2.600 -30.755  1.00  0.00     0.040 A 
HETATM    7  N   UNL     1      -6.216   1.994 -29.981  1.00  0.00    -0.246 NA
HETATM    8  C   UNL     1      -7.268   1.356 -30.715  1.00  0.00     0.077 C 
HETATM    9  N   UNL     1      -8.378   2.060 -30.853  1.00  0.00    -0.291 N 
HETATM   10  H   UNL     1      -8.343   2.986 -30.408  1.00  0.00     0.188 HD
HETATM   11  C   UNL     1      -7.057   0.010 -31.276  1.00  0.00     0.096 C 
HETATM   12  C   UNL     1      -3.353   2.465 -32.335  1.00  0.00     0.031 A 
HETATM   13  C   UNL     1      -3.112   3.834 -32.163  1.00  0.00     0.002 A 
HETATM   14  C   UNL     1      -3.896   4.584 -31.292  1.00  0.00     0.002 A 
HETATM   15  C   UNL     1      -4.925   3.968 -30.588  1.00  0.00     0.026 A 
HETATM   16  H   UNL     1      -5.672   1.222 -29.572  1.00  0.00     0.135 HD
ENDROOT
BRANCH   9  17
HETATM   17  N   UNL     1      -9.487   1.712 -31.485  1.00  0.00    -0.265 N 
HETATM   18  C   UNL     1      -9.752   2.345 -32.689  1.00  0.00     0.270 C 
HETATM   19  O   UNL     1      -8.986   3.169 -33.181  1.00  0.00    -0.266 OA
HETATM   20  H   UNL     1     -10.070   0.965 -31.133  1.00  0.00     0.190 HD
BRANCH  18  21
HETATM   21  C   UNL     1     -11.005   1.944 -33.382  1.00  0.00     0.033 A 
HETATM   22  C   UNL     1     -11.747   2.841 -34.164  1.00  0.00     0.017 A 
HETATM   23  C   UNL     1     -12.922   2.416 -34.788  1.00  0.00     0.001 A 
HETATM   24  C   UNL     1     -13.354   1.098 -34.642  1.00  0.00     0.000 A 
HETATM   25  C   UNL     1     -12.609   0.198 -33.882  1.00  0.00     0.001 A 
HETATM   26  C   UNL     1     -11.434   0.616 -33.257  1.00  0.00     0.017 A 
ENDBRANCH  18  21
ENDBRANCH   9  17
TORSDOF 2
ENDMDL
MODEL 9
REMARK VINA RESULT:      -7.6      2.368      7.648
REMARK  2 active torsions:
REMARK  status: ('A' for Active; 'I' for Inactive)
REMARK    1  A    between atoms: N_9  and  N_11 
REMARK       I    between atoms: N_11  and  C_12 
REMARK    2  A    between atoms: C_12  and  C_13 
ROOT
HETATM    1  C   UNL     1     -11.685   1.123 -34.023  1.00  0.00     0.033 C 
HETATM    2  C   UNL     1     -11.099   2.403 -34.626  1.00  0.00     0.086 C 
HETATM    3  N   UNL     1     -11.806   3.638 -34.188  1.00  0.00    -0.379 N 
HETATM    4  C   UNL     1     -12.833   4.116 -35.122  1.00  0.00     0.150 C 
HETATM    5  C   UNL     1     -12.094   3.770 -32.811  1.00  0.00     0.052 A 
HETATM    6  C   UNL     1     -11.043   3.863 -31.858  1.00  0.00     0.040 A 
HETATM    7  N   UNL     1      -9.669   3.834 -32.289  1.00  0.00    -0.246 NA
HETATM    8  C   UNL     1      -9.245   2.667 -33.002  1.00  0.00     0.077 C 
HETATM    9  N   UNL     1      -8.578   1.774 -32.293  1.00  0.00    -0.291 N 
HETATM   10  H   UNL     1      -8.447   2.037 -31.308  1.00  0.00     0.188 HD
HETATM   11  C   UNL     1      -9.580   2.519 -34.430  1.00  0.00     0.096 C 
HETATM   12  C   UNL     1     -13.405   3.848 -32.316  1.00  0.00     0.031 A 
HETATM   13  C   UNL     1     -13.664   3.991 -30.948  1.00  0.00     0.002 A 
HETATM   14  C   UNL     1     -12.615   4.066 -30.036  1.00  0.00     0.002 A 
HETATM   15  C   UNL     1     -11.302   4.001 -30.490  1.00  0.00     0.026 A 
HETATM   16  H   UNL     1      -9.724   4.576 -33.001  1.00  0.00     0.135 HD
ENDROOT
BRANCH   9  17
HETATM   17  N   UNL     1      -8.084   0.617 -32.701  1.00  0.00    -0.265 N 
HETATM   18  C   UNL     1      -6.764   0.607 -33.125  1.00  0.00     0.270 C 
HETATM   19  O   UNL     1      -6.058   1.612 -33.097  1.00  0.00    -0.266 OA
HETATM   20  H   UNL     1      -8.630  -0.231 -32.634  1.00  0.00     0.190 HD
BRANCH  18  21
HETATM   21  C   UNL     1      -6.228  -0.702 -33.584  1.00  0.00     0.033 A 
HETATM   22  C   UNL     1      -4.881  -1.055 -33.426  1.00  0.00     0.017 A 
HETATM   23  C   UNL     1      -4.427  -2.295 -33.882  1.00  0.00     0.001 A 
HETATM   24  C   UNL     1      -5.313  -3.185 -34.486  1.00  0.00     0.000 A 
HETATM   25  C   UNL     1      -6.658  -2.846 -34.627  1.00  0.00     0.001 A 
HETATM   26  C   UNL     1      -7.118  -1.609 -34.173  1.00  0.00     0.017 A 
ENDBRANCH  18  21
ENDBRANCH   9  17
TORSDOF 2
ENDMDL
MODEL 10
REMARK VINA RESULT:      -7.6      5.987      9.329
REMARK  2 active torsions:
REMARK  status: ('A' for Active; 'I' for Inactive)
REMARK    1  A    between atoms: N_9  and  N_11 
REMARK       I    between atoms: N_11  and  C_12 
REMARK    2  A    between atoms: C_12  and  C_13 
ROOT
HETATM    1  C   UNL     1      -4.204   5.954 -30.549  1.00  0.00     0.033 C 
HETATM    2  C   UNL     1      -4.082   7.000 -31.660  1.00  0.00     0.086 C 
HETATM    3  N   UNL     1      -3.193   8.141 -31.301  1.00  0.00    -0.379 N 
HETATM    4  C   UNL     1      -3.896   9.321 -30.782  1.00  0.00     0.150 C 
HETATM    5  C   UNL     1      -1.950   7.833 -30.704  1.00  0.00     0.052 A 
HETATM    6  C   UNL     1      -0.962   7.106 -31.424  1.00  0.00     0.040 A 
HETATM    7  N   UNL     1      -1.216   6.682 -32.776  1.00  0.00    -0.246 NA
HETATM    8  C   UNL     1      -2.344   5.822 -32.978  1.00  0.00     0.077 C 
HETATM    9  N   UNL     1      -2.068   4.536 -33.098  1.00  0.00    -0.291 N 
HETATM   10  H   UNL     1      -1.066   4.316 -33.030  1.00  0.00     0.188 HD
HETATM   11  C   UNL     1      -3.702   6.393 -33.019  1.00  0.00     0.096 C 
HETATM   12  C   UNL     1      -1.609   8.247 -29.406  1.00  0.00     0.031 A 
HETATM   13  C   UNL     1      -0.365   7.941 -28.842  1.00  0.00     0.002 A 
HETATM   14  C   UNL     1       0.577   7.215 -29.566  1.00  0.00     0.002 A 
HETATM   15  C   UNL     1       0.279   6.795 -30.858  1.00  0.00     0.026 A 
HETATM   16  H   UNL     1      -1.504   7.592 -33.163  1.00  0.00     0.135 HD
ENDROOT
BRANCH   9  17
HETATM   17  N   UNL     1      -2.916   3.537 -33.282  1.00  0.00    -0.265 N 
HETATM   18  C   UNL     1      -3.125   2.681 -32.212  1.00  0.00     0.270 C 
HETATM   19  O   UNL     1      -2.584   2.846 -31.123  1.00  0.00    -0.266 OA
HETATM   20  H   UNL     1      -3.438   3.454 -34.144  1.00  0.00     0.190 HD
BRANCH  18  21
HETATM   21  C   UNL     1      -4.078   1.562 -32.440  1.00  0.00     0.033 A 
HETATM   22  C   UNL     1      -5.453   1.775 -32.613  1.00  0.00     0.017 A 
HETATM   23  C   UNL     1      -6.306   0.687 -32.817  1.00  0.00     0.001 A 
HETATM   24  C   UNL     1      -5.792  -0.608 -32.857  1.00  0.00     0.000 A 
HETATM   25  C   UNL     1      -4.423  -0.822 -32.705  1.00  0.00     0.001 A 
HETATM   26  C   UNL     1      -3.565   0.260 -32.502  1.00  0.00     0.017 A 
ENDBRANCH  18  21
ENDBRANCH   9  17
TORSDOF 2
ENDMDL
