MODEL 1
REMARK VINA RESULT:      -8.9      0.000      0.000
REMARK  3 active torsions:
REMARK  status: ('A' for Active; 'I' for Inactive)
REMARK    1  A    between atoms: C_2  and  C_3 
REMARK    2  A    between atoms: C_6  and  C_7 
REMARK       I    between atoms: C_7  and  N_8 
REMARK    3  A    between atoms: N_8  and  N_9 
ROOT
HETATM    1  C   UNL     1      -2.711   5.230 -32.459  1.00  0.00    -0.021 A 
HETATM    2  C   UNL     1      -3.872   5.055 -33.236  1.00  0.00     0.011 A 
HETATM    3  C   UNL     1      -4.612   3.863 -33.195  1.00  0.00     0.018 A 
HETATM    4  C   UNL     1      -4.207   2.810 -32.370  1.00  0.00     0.033 A 
HETATM    5  C   UNL     1      -3.064   2.982 -31.579  1.00  0.00     0.018 A 
HETATM    6  C   UNL     1      -2.334   4.174 -31.616  1.00  0.00     0.011 A 
ENDROOT
BRANCH   4   7
HETATM    7  C   UNL     1      -4.945   1.514 -32.244  1.00  0.00     0.266 C 
HETATM    8  N   UNL     1      -4.325   0.372 -32.745  1.00  0.00    -0.284 N 
HETATM    9  H   UNL     1      -3.372   0.397 -33.086  1.00  0.00     0.184 HD
HETATM   10  O   UNL     1      -6.052   1.516 -31.707  1.00  0.00    -0.266 OA
BRANCH   8  11
HETATM   11  N   UNL     1      -4.928  -0.910 -32.684  1.00  0.00    -0.220 NA
HETATM   12  C   UNL     1      -6.044  -1.102 -33.650  1.00  0.00     0.153 C 
HETATM   13  C   UNL     1      -5.890  -2.496 -34.168  1.00  0.00    -0.036 A 
HETATM   14  C   UNL     1      -4.692  -3.040 -33.711  1.00  0.00    -0.036 A 
HETATM   15  C   UNL     1      -6.724  -3.208 -35.015  1.00  0.00     0.009 A 
HETATM   16  C   UNL     1      -3.981  -2.045 -32.850  1.00  0.00     0.153 C 
HETATM   17  C   UNL     1      -4.291  -4.309 -34.091  1.00  0.00     0.009 A 
HETATM   18  C   UNL     1      -5.123  -5.038 -34.944  1.00  0.00     0.001 A 
HETATM   19  C   UNL     1      -6.332  -4.491 -35.402  1.00  0.00     0.001 A 
ENDBRANCH   8  11
ENDBRANCH   4   7
BRANCH   1  20
HETATM   20  C   UNL     1      -1.940   6.548 -32.465  1.00  0.00     0.139 A 
HETATM   21  C   UNL     1      -1.838   7.128 -33.874  1.00  0.00     0.054 C 
HETATM   22  N   UNL     1      -0.622   6.414 -31.870  1.00  0.00    -0.321 N 
HETATM   23  C   UNL     1      -0.451   7.196 -30.758  1.00  0.00     0.324 A 
HETATM   24  H   UNL     1       0.145   5.870 -32.238  1.00  0.00     0.165 HD
HETATM   25  O   UNL     1       0.584   7.285 -30.124  1.00  0.00    -0.247 OA
HETATM   26  N   UNL     1      -1.597   7.865 -30.516  1.00  0.00    -0.277 N 
HETATM   27  C   UNL     1      -2.509   7.620 -31.496  1.00  0.00     0.258 A 
HETATM   28  H   UNL     1      -1.709   8.547 -29.787  1.00  0.00     0.173 HD
HETATM   29  O   UNL     1      -3.584   8.196 -31.585  1.00  0.00    -0.270 OA
ENDBRANCH   1  20
TORSDOF 3
ENDMDL
MODEL 2
REMARK VINA RESULT:      -8.9      1.412      2.010
REMARK  3 active torsions:
REMARK  status: ('A' for Active; 'I' for Inactive)
REMARK    1  A    between atoms: C_2  and  C_3 
REMARK    2  A    between atoms: C_6  and  C_7 
REMARK       I    between atoms: C_7  and  N_8 
REMARK    3  A    between atoms: N_8  and  N_9 
ROOT
HETATM    1  C   UNL     1      -3.505   5.139 -31.072  1.00  0.00    -0.021 A 
HETATM    2  C   UNL     1      -4.700   4.839 -30.392  1.00  0.00     0.011 A 
HETATM    3  C   UNL     1      -5.215   3.533 -30.351  1.00  0.00     0.018 A 
HETATM    4  C   UNL     1      -4.541   2.489 -30.991  1.00  0.00     0.033 A 
HETATM    5  C   UNL     1      -3.341   2.775 -31.654  1.00  0.00     0.018 A 
HETATM    6  C   UNL     1      -2.827   4.075 -31.686  1.00  0.00     0.011 A 
ENDROOT
BRANCH   4   7
HETATM    7  C   UNL     1      -5.002   1.066 -30.980  1.00  0.00     0.266 C 
HETATM    8  N   UNL     1      -4.793   0.315 -32.135  1.00  0.00    -0.284 N 
HETATM    9  H   UNL     1      -4.258   0.683 -32.912  1.00  0.00     0.184 HD
HETATM   10  O   UNL     1      -5.535   0.626 -29.963  1.00  0.00    -0.266 OA
BRANCH   8  11
HETATM   11  N   UNL     1      -5.188  -1.042 -32.242  1.00  0.00    -0.220 NA
HETATM   12  C   UNL     1      -6.338  -1.270 -33.159  1.00  0.00     0.153 C 
HETATM   13  C   UNL     1      -6.018  -2.529 -33.899  1.00  0.00    -0.036 A 
HETATM   14  C   UNL     1      -4.718  -2.932 -33.605  1.00  0.00    -0.036 A 
HETATM   15  C   UNL     1      -6.802  -3.234 -34.796  1.00  0.00     0.009 A 
HETATM   16  C   UNL     1      -4.096  -1.973 -32.640  1.00  0.00     0.153 C 
HETATM   17  C   UNL     1      -4.162  -4.049 -34.203  1.00  0.00     0.009 A 
HETATM   18  C   UNL     1      -4.942  -4.771 -35.110  1.00  0.00     0.001 A 
HETATM   19  C   UNL     1      -6.254  -4.366 -35.404  1.00  0.00     0.001 A 
ENDBRANCH   8  11
ENDBRANCH   4   7
BRANCH   1  20
HETATM   20  C   UNL     1      -2.920   6.549 -31.068  1.00  0.00     0.139 A 
HETATM   21  C   UNL     1      -3.577   7.423 -30.002  1.00  0.00     0.054 C 
HETATM   22  N   UNL     1      -3.006   7.181 -32.373  1.00  0.00    -0.321 N 
HETATM   23  C   UNL     1      -1.781   7.494 -32.902  1.00  0.00     0.324 A 
HETATM   24  H   UNL     1      -3.854   7.448 -32.851  1.00  0.00     0.165 HD
HETATM   25  O   UNL     1      -1.608   8.071 -33.959  1.00  0.00    -0.247 OA
HETATM   26  N   UNL     1      -0.821   7.091 -32.044  1.00  0.00    -0.277 N 
HETATM   27  C   UNL     1      -1.376   6.595 -30.905  1.00  0.00     0.258 A 
HETATM   28  H   UNL     1       0.161   7.256 -32.178  1.00  0.00     0.173 HD
HETATM   29  O   UNL     1      -0.730   6.275 -29.916  1.00  0.00    -0.270 OA
ENDBRANCH   1  20
TORSDOF 3
ENDMDL
MODEL 3
REMARK VINA RESULT:      -8.5      5.764      8.154
REMARK  3 active torsions:
REMARK  status: ('A' for Active; 'I' for Inactive)
REMARK    1  A    between atoms: C_2  and  C_3 
REMARK    2  A    between atoms: C_6  and  C_7 
REMARK       I    between atoms: C_7  and  N_8 
REMARK    3  A    between atoms: N_8  and  N_9 
ROOT
HETATM    1  C   UNL     1     -11.215   3.231 -32.735  1.00  0.00    -0.021 A 
HETATM    2  C   UNL     1     -11.308   2.076 -33.533  1.00  0.00     0.011 A 
HETATM    3  C   UNL     1     -10.163   1.426 -34.023  1.00  0.00     0.018 A 
HETATM    4  C   UNL     1      -8.890   1.919 -33.723  1.00  0.00     0.033 A 
HETATM    5  C   UNL     1      -8.787   3.057 -32.913  1.00  0.00     0.018 A 
HETATM    6  C   UNL     1      -9.928   3.696 -32.420  1.00  0.00     0.011 A 
ENDROOT
BRANCH   4   7
HETATM    7  C   UNL     1      -7.617   1.279 -34.180  1.00  0.00     0.266 C 
HETATM    8  N   UNL     1      -7.542  -0.111 -34.126  1.00  0.00    -0.284 N 
HETATM    9  H   UNL     1      -8.350  -0.672 -33.887  1.00  0.00     0.184 HD
HETATM   10  O   UNL     1      -6.706   2.001 -34.583  1.00  0.00    -0.266 OA
BRANCH   8  11
HETATM   11  N   UNL     1      -6.387  -0.827 -34.531  1.00  0.00    -0.220 NA
HETATM   12  C   UNL     1      -5.330  -0.914 -33.488  1.00  0.00     0.153 C 
HETATM   13  C   UNL     1      -4.785  -2.303 -33.584  1.00  0.00    -0.036 A 
HETATM   14  C   UNL     1      -5.558  -3.053 -34.467  1.00  0.00    -0.036 A 
HETATM   15  C   UNL     1      -3.718  -2.868 -32.907  1.00  0.00     0.009 A 
HETATM   16  C   UNL     1      -6.658  -2.205 -35.023  1.00  0.00     0.153 C 
HETATM   17  C   UNL     1      -5.290  -4.392 -34.694  1.00  0.00     0.009 A 
HETATM   18  C   UNL     1      -4.215  -4.975 -34.019  1.00  0.00     0.001 A 
HETATM   19  C   UNL     1      -3.434  -4.217 -33.131  1.00  0.00     0.001 A 
ENDBRANCH   8  11
ENDBRANCH   4   7
BRANCH   1  20
HETATM   20  C   UNL     1     -12.459   3.903 -32.159  1.00  0.00     0.139 A 
HETATM   21  C   UNL     1     -12.088   5.026 -31.191  1.00  0.00     0.054 C 
HETATM   22  N   UNL     1     -13.351   2.951 -31.521  1.00  0.00    -0.321 N 
HETATM   23  C   UNL     1     -14.586   2.891 -32.112  1.00  0.00     0.324 A 
HETATM   24  H   UNL     1     -13.154   2.417 -30.688  1.00  0.00     0.165 HD
HETATM   25  O   UNL     1     -15.510   2.203 -31.721  1.00  0.00    -0.247 OA
HETATM   26  N   UNL     1     -14.609   3.741 -33.159  1.00  0.00    -0.277 N 
HETATM   27  C   UNL     1     -13.445   4.441 -33.232  1.00  0.00     0.258 A 
HETATM   28  H   UNL     1     -15.422   3.921 -33.722  1.00  0.00     0.173 HD
HETATM   29  O   UNL     1     -13.251   5.363 -34.012  1.00  0.00    -0.270 OA
ENDBRANCH   1  20
TORSDOF 3
ENDMDL
MODEL 4
REMARK VINA RESULT:      -8.5      2.697      9.772
REMARK  3 active torsions:
REMARK  status: ('A' for Active; 'I' for Inactive)
REMARK    1  A    between atoms: C_2  and  C_3 
REMARK    2  A    between atoms: C_6  and  C_7 
REMARK       I    between atoms: C_7  and  N_8 
REMARK    3  A    between atoms: N_8  and  N_9 
ROOT
HETATM    1  C   UNL     1      -5.350   1.710 -32.409  1.00  0.00    -0.021 A 
HETATM    2  C   UNL     1      -4.219   1.402 -31.629  1.00  0.00     0.011 A 
HETATM    3  C   UNL     1      -3.172   2.320 -31.456  1.00  0.00     0.018 A 
HETATM    4  C   UNL     1      -3.230   3.579 -32.061  1.00  0.00     0.033 A 
HETATM    5  C   UNL     1      -4.360   3.902 -32.823  1.00  0.00     0.018 A 
HETATM    6  C   UNL     1      -5.405   2.988 -32.987  1.00  0.00     0.011 A 
ENDROOT
BRANCH   4   7
HETATM    7  C   UNL     1      -2.174   4.628 -31.913  1.00  0.00     0.266 C 
HETATM    8  N   UNL     1      -2.100   5.295 -30.692  1.00  0.00    -0.284 N 
HETATM    9  H   UNL     1      -2.667   5.012 -29.903  1.00  0.00     0.184 HD
HETATM   10  O   UNL     1      -1.424   4.848 -32.862  1.00  0.00    -0.266 OA
BRANCH   8  11
HETATM   11  N   UNL     1      -1.142   6.308 -30.436  1.00  0.00    -0.220 NA
HETATM   12  C   UNL     1      -1.725   7.583 -29.934  1.00  0.00     0.153 C 
HETATM   13  C   UNL     1      -0.784   8.066 -28.878  1.00  0.00    -0.036 A 
HETATM   14  C   UNL     1       0.179   7.093 -28.622  1.00  0.00    -0.036 A 
HETATM   15  C   UNL     1      -0.809   9.255 -28.168  1.00  0.00     0.009 A 
HETATM   16  C   UNL     1      -0.054   5.906 -29.503  1.00  0.00     0.153 C 
HETATM   17  C   UNL     1       1.142   7.278 -27.646  1.00  0.00     0.009 A 
HETATM   18  C   UNL     1       1.130   8.473 -26.922  1.00  0.00     0.001 A 
HETATM   19  C   UNL     1       0.161   9.455 -27.183  1.00  0.00     0.001 A 
ENDBRANCH   8  11
ENDBRANCH   4   7
BRANCH   1  20
HETATM   20  C   UNL     1      -6.512   0.730 -32.551  1.00  0.00     0.139 A 
HETATM   21  C   UNL     1      -6.088  -0.532 -33.300  1.00  0.00     0.054 C 
HETATM   22  N   UNL     1      -7.668   1.340 -33.185  1.00  0.00    -0.321 N 
HETATM   23  C   UNL     1      -8.777   1.358 -32.379  1.00  0.00     0.324 A 
HETATM   24  H   UNL     1      -7.721   1.665 -34.138  1.00  0.00     0.165 HD
HETATM   25  O   UNL     1      -9.870   1.773 -32.713  1.00  0.00    -0.247 OA
HETATM   26  N   UNL     1      -8.457   0.811 -31.188  1.00  0.00    -0.277 N 
HETATM   27  C   UNL     1      -7.181   0.341 -31.204  1.00  0.00     0.258 A 
HETATM   28  H   UNL     1      -9.115   0.659 -30.443  1.00  0.00     0.173 HD
HETATM   29  O   UNL     1      -6.683  -0.310 -30.296  1.00  0.00    -0.270 OA
ENDBRANCH   1  20
TORSDOF 3
ENDMDL
MODEL 5
REMARK VINA RESULT:      -8.5      2.524      9.915
REMARK  3 active torsions:
REMARK  status: ('A' for Active; 'I' for Inactive)
REMARK    1  A    between atoms: C_2  and  C_3 
REMARK    2  A    between atoms: C_6  and  C_7 
REMARK       I    between atoms: C_7  and  N_8 
REMARK    3  A    between atoms: N_8  and  N_9 
ROOT
HETATM    1  C   UNL     1      -4.724   1.598 -31.828  1.00  0.00    -0.021 A 
HETATM    2  C   UNL     1      -3.524   2.010 -32.438  1.00  0.00     0.011 A 
HETATM    3  C   UNL     1      -3.011   3.304 -32.253  1.00  0.00     0.018 A 
HETATM    4  C   UNL     1      -3.689   4.223 -31.447  1.00  0.00     0.033 A 
HETATM    5  C   UNL     1      -4.874   3.816 -30.820  1.00  0.00     0.018 A 
HETATM    6  C   UNL     1      -5.377   2.524 -31.000  1.00  0.00     0.011 A 
ENDROOT
BRANCH   4   7
HETATM    7  C   UNL     1      -3.206   5.613 -31.175  1.00  0.00     0.266 C 
HETATM    8  N   UNL     1      -2.088   5.754 -30.356  1.00  0.00    -0.284 N 
HETATM    9  H   UNL     1      -1.561   4.949 -30.042  1.00  0.00     0.184 HD
HETATM   10  O   UNL     1      -3.808   6.557 -31.685  1.00  0.00    -0.266 OA
BRANCH   8  11
HETATM   11  N   UNL     1      -1.541   7.020 -30.027  1.00  0.00    -0.220 NA
HETATM   12  C   UNL     1      -2.136   7.642 -28.814  1.00  0.00     0.153 C 
HETATM   13  C   UNL     1      -0.994   8.271 -28.083  1.00  0.00    -0.036 A 
HETATM   14  C   UNL     1       0.209   7.910 -28.687  1.00  0.00    -0.036 A 
HETATM   15  C   UNL     1      -1.016   9.063 -26.947  1.00  0.00     0.009 A 
HETATM   16  C   UNL     1      -0.061   7.028 -29.865  1.00  0.00     0.153 C 
HETATM   17  C   UNL     1       1.423   8.326 -28.170  1.00  0.00     0.009 A 
HETATM   18  C   UNL     1       1.415   9.125 -27.024  1.00  0.00     0.001 A 
HETATM   19  C   UNL     1       0.203   9.492 -26.417  1.00  0.00     0.001 A 
ENDBRANCH   8  11
ENDBRANCH   4   7
BRANCH   1  20
HETATM   20  C   UNL     1      -5.250   0.174 -31.986  1.00  0.00     0.139 A 
HETATM   21  C   UNL     1      -6.635   0.019 -31.362  1.00  0.00     0.054 C 
HETATM   22  N   UNL     1      -4.331  -0.813 -31.446  1.00  0.00    -0.321 N 
HETATM   23  C   UNL     1      -3.868  -1.691 -32.391  1.00  0.00     0.324 A 
HETATM   24  H   UNL     1      -4.083  -0.926 -30.475  1.00  0.00     0.165 HD
HETATM   25  O   UNL     1      -3.128  -2.629 -32.163  1.00  0.00    -0.247 OA
HETATM   26  N   UNL     1      -4.395  -1.360 -33.588  1.00  0.00    -0.277 N 
HETATM   27  C   UNL     1      -5.277  -0.333 -33.454  1.00  0.00     0.258 A 
HETATM   28  H   UNL     1      -4.252  -1.886 -34.432  1.00  0.00     0.173 HD
HETATM   29  O   UNL     1      -5.986   0.079 -34.362  1.00  0.00    -0.270 OA
ENDBRANCH   1  20
TORSDOF 3
ENDMDL
MODEL 6
REMARK VINA RESULT:      -8.4      1.745      2.261
REMARK  3 active torsions:
REMARK  status: ('A' for Active; 'I' for Inactive)
REMARK    1  A    between atoms: C_2  and  C_3 
REMARK    2  A    between atoms: C_6  and  C_7 
REMARK       I    between atoms: C_7  and  N_8 
REMARK    3  A    between atoms: N_8  and  N_9 
ROOT
HETATM    1  C   UNL     1      -2.417   6.094 -30.905  1.00  0.00    -0.021 A 
HETATM    2  C   UNL     1      -3.783   5.888 -30.632  1.00  0.00     0.011 A 
HETATM    3  C   UNL     1      -4.430   4.692 -30.981  1.00  0.00     0.018 A 
HETATM    4  C   UNL     1      -3.723   3.666 -31.613  1.00  0.00     0.033 A 
HETATM    5  C   UNL     1      -2.359   3.854 -31.871  1.00  0.00     0.018 A 
HETATM    6  C   UNL     1      -1.716   5.043 -31.515  1.00  0.00     0.011 A 
ENDROOT
BRANCH   4   7
HETATM    7  C   UNL     1      -4.324   2.351 -31.999  1.00  0.00     0.266 C 
HETATM    8  N   UNL     1      -4.061   1.259 -31.175  1.00  0.00    -0.284 N 
HETATM    9  H   UNL     1      -3.571   1.370 -30.296  1.00  0.00     0.184 HD
HETATM   10  O   UNL     1      -5.018   2.295 -33.013  1.00  0.00    -0.266 OA
BRANCH   8  11
HETATM   11  N   UNL     1      -4.574  -0.035 -31.440  1.00  0.00    -0.220 NA
HETATM   12  C   UNL     1      -5.965  -0.040 -31.969  1.00  0.00     0.153 C 
HETATM   13  C   UNL     1      -5.989  -1.098 -33.026  1.00  0.00    -0.036 A 
HETATM   14  C   UNL     1      -4.697  -1.565 -33.255  1.00  0.00    -0.036 A 
HETATM   15  C   UNL     1      -7.064  -1.574 -33.757  1.00  0.00     0.009 A 
HETATM   16  C   UNL     1      -3.735  -0.855 -32.356  1.00  0.00     0.153 C 
HETATM   17  C   UNL     1      -4.442  -2.518 -34.226  1.00  0.00     0.009 A 
HETATM   18  C   UNL     1      -5.518  -3.009 -34.970  1.00  0.00     0.001 A 
HETATM   19  C   UNL     1      -6.821  -2.540 -34.736  1.00  0.00     0.001 A 
ENDBRANCH   8  11
ENDBRANCH   4   7
BRANCH   1  20
HETATM   20  C   UNL     1      -1.704   7.374 -30.475  1.00  0.00     0.139 A 
HETATM   21  C   UNL     1      -0.187   7.193 -30.476  1.00  0.00     0.054 C 
HETATM   22  N   UNL     1      -2.162   7.849 -29.182  1.00  0.00    -0.321 N 
HETATM   23  C   UNL     1      -2.737   9.092 -29.238  1.00  0.00     0.324 A 
HETATM   24  H   UNL     1      -2.032   7.383 -28.296  1.00  0.00     0.165 HD
HETATM   25  O   UNL     1      -3.148   9.710 -28.274  1.00  0.00    -0.247 OA
HETATM   26  N   UNL     1      -2.732   9.516 -30.518  1.00  0.00    -0.277 N 
HETATM   27  C   UNL     1      -2.083   8.625 -31.315  1.00  0.00     0.258 A 
HETATM   28  H   UNL     1      -3.049  10.423 -30.813  1.00  0.00     0.173 HD
HETATM   29  O   UNL     1      -1.828   8.824 -32.494  1.00  0.00    -0.270 OA
ENDBRANCH   1  20
TORSDOF 3
ENDMDL
MODEL 7
REMARK VINA RESULT:      -8.4      2.466      9.686
REMARK  3 active torsions:
REMARK  status: ('A' for Active; 'I' for Inactive)
REMARK    1  A    between atoms: C_2  and  C_3 
REMARK    2  A    between atoms: C_6  and  C_7 
REMARK       I    between atoms: C_7  and  N_8 
REMARK    3  A    between atoms: N_8  and  N_9 
ROOT
HETATM    1  C   UNL     1      -5.547   1.351 -32.746  1.00  0.00    -0.021 A 
HETATM    2  C   UNL     1      -4.377   1.068 -32.016  1.00  0.00     0.011 A 
HETATM    3  C   UNL     1      -3.364   2.026 -31.850  1.00  0.00     0.018 A 
HETATM    4  C   UNL     1      -3.497   3.298 -32.413  1.00  0.00     0.033 A 
HETATM    5  C   UNL     1      -4.666   3.595 -33.125  1.00  0.00     0.018 A 
HETATM    6  C   UNL     1      -5.677   2.642 -33.281  1.00  0.00     0.011 A 
ENDROOT
BRANCH   4   7
HETATM    7  C   UNL     1      -2.482   4.387 -32.267  1.00  0.00     0.266 C 
HETATM    8  N   UNL     1      -1.997   4.646 -30.987  1.00  0.00    -0.284 N 
HETATM    9  H   UNL     1      -2.242   4.055 -30.203  1.00  0.00     0.184 HD
HETATM   10  O   UNL     1      -2.121   4.995 -33.274  1.00  0.00    -0.266 OA
BRANCH   8  11
HETATM   11  N   UNL     1      -1.035   5.654 -30.727  1.00  0.00    -0.220 NA
HETATM   12  C   UNL     1      -1.620   6.969 -30.348  1.00  0.00     0.153 C 
HETATM   13  C   UNL     1      -0.743   7.500 -29.260  1.00  0.00    -0.036 A 
HETATM   14  C   UNL     1       0.175   6.526 -28.876  1.00  0.00    -0.036 A 
HETATM   15  C   UNL     1      -0.788   8.732 -28.629  1.00  0.00     0.009 A 
HETATM   16  C   UNL     1      -0.025   5.290 -29.696  1.00  0.00     0.153 C 
HETATM   17  C   UNL     1       1.073   6.753 -27.848  1.00  0.00     0.009 A 
HETATM   18  C   UNL     1       1.040   7.992 -27.203  1.00  0.00     0.001 A 
HETATM   19  C   UNL     1       0.116   8.975 -27.592  1.00  0.00     0.001 A 
ENDBRANCH   8  11
ENDBRANCH   4   7
BRANCH   1  20
HETATM   20  C   UNL     1      -6.670   0.326 -32.879  1.00  0.00     0.139 A 
HETATM   21  C   UNL     1      -7.631   0.396 -31.694  1.00  0.00     0.054 C 
HETATM   22  N   UNL     1      -6.163  -1.025 -33.048  1.00  0.00    -0.321 N 
HETATM   23  C   UNL     1      -6.532  -1.594 -34.238  1.00  0.00     0.324 A 
HETATM   24  H   UNL     1      -5.649  -1.557 -32.362  1.00  0.00     0.165 HD
HETATM   25  O   UNL     1      -6.265  -2.732 -34.576  1.00  0.00    -0.247 OA
HETATM   26  N   UNL     1      -7.260  -0.701 -34.940  1.00  0.00    -0.277 N 
HETATM   27  C   UNL     1      -7.468   0.427 -34.208  1.00  0.00     0.258 A 
HETATM   28  H   UNL     1      -7.696  -0.898 -35.824  1.00  0.00     0.173 HD
HETATM   29  O   UNL     1      -8.200   1.342 -34.559  1.00  0.00    -0.270 OA
ENDBRANCH   1  20
TORSDOF 3
ENDMDL
MODEL 8
REMARK VINA RESULT:      -8.1      3.720      9.716
REMARK  3 active torsions:
REMARK  status: ('A' for Active; 'I' for Inactive)
REMARK    1  A    between atoms: C_2  and  C_3 
REMARK    2  A    between atoms: C_6  and  C_7 
REMARK       I    between atoms: C_7  and  N_8 
REMARK    3  A    between atoms: N_8  and  N_9 
ROOT
HETATM    1  C   UNL     1      -7.602   2.616 -33.806  1.00  0.00    -0.021 A 
HETATM    2  C   UNL     1      -7.912   3.989 -33.832  1.00  0.00     0.011 A 
HETATM    3  C   UNL     1      -6.918   4.971 -33.688  1.00  0.00     0.018 A 
HETATM    4  C   UNL     1      -5.582   4.601 -33.514  1.00  0.00     0.033 A 
HETATM    5  C   UNL     1      -5.261   3.237 -33.507  1.00  0.00     0.018 A 
HETATM    6  C   UNL     1      -6.251   2.263 -33.659  1.00  0.00     0.011 A 
ENDROOT
BRANCH   4   7
HETATM    7  C   UNL     1      -4.455   5.576 -33.377  1.00  0.00     0.266 C 
HETATM    8  N   UNL     1      -4.103   5.971 -32.088  1.00  0.00    -0.284 N 
HETATM    9  H   UNL     1      -4.519   5.538 -31.273  1.00  0.00     0.184 HD
HETATM   10  O   UNL     1      -3.895   5.978 -34.395  1.00  0.00    -0.266 OA
BRANCH   8  11
HETATM   11  N   UNL     1      -3.054   6.890 -31.834  1.00  0.00    -0.220 NA
HETATM   12  C   UNL     1      -3.270   7.742 -30.633  1.00  0.00     0.153 C 
HETATM   13  C   UNL     1      -1.935   7.842 -29.967  1.00  0.00    -0.036 A 
HETATM   14  C   UNL     1      -1.031   6.985 -30.590  1.00  0.00    -0.036 A 
HETATM   15  C   UNL     1      -1.566   8.600 -28.868  1.00  0.00     0.009 A 
HETATM   16  C   UNL     1      -1.706   6.270 -31.717  1.00  0.00     0.153 C 
HETATM   17  C   UNL     1       0.267   6.856 -30.129  1.00  0.00     0.009 A 
HETATM   18  C   UNL     1       0.654   7.615 -29.021  1.00  0.00     0.001 A 
HETATM   19  C   UNL     1      -0.257   8.482 -28.396  1.00  0.00     0.001 A 
ENDBRANCH   8  11
ENDBRANCH   4   7
BRANCH   1  20
HETATM   20  C   UNL     1      -8.676   1.553 -34.018  1.00  0.00     0.139 A 
HETATM   21  C   UNL     1      -8.119   0.336 -34.753  1.00  0.00     0.054 C 
HETATM   22  N   UNL     1      -9.840   2.080 -34.709  1.00  0.00    -0.321 N 
HETATM   23  C   UNL     1     -10.988   2.005 -33.964  1.00  0.00     0.324 A 
HETATM   24  H   UNL     1      -9.867   2.412 -35.661  1.00  0.00     0.165 HD
HETATM   25  O   UNL     1     -12.091   2.340 -34.354  1.00  0.00    -0.247 OA
HETATM   26  N   UNL     1     -10.693   1.470 -32.762  1.00  0.00    -0.277 N 
HETATM   27  C   UNL     1      -9.385   1.098 -32.713  1.00  0.00     0.258 A 
HETATM   28  H   UNL     1     -11.375   1.259 -32.055  1.00  0.00     0.173 HD
HETATM   29  O   UNL     1      -8.888   0.476 -31.784  1.00  0.00    -0.270 OA
ENDBRANCH   1  20
TORSDOF 3
ENDMDL
MODEL 9
REMARK VINA RESULT:      -8.1      5.626      8.682
REMARK  3 active torsions:
REMARK  status: ('A' for Active; 'I' for Inactive)
REMARK    1  A    between atoms: C_2  and  C_3 
REMARK    2  A    between atoms: C_6  and  C_7 
REMARK       I    between atoms: C_7  and  N_8 
REMARK    3  A    between atoms: N_8  and  N_9 
ROOT
HETATM    1  C   UNL     1      -5.576  -0.738 -33.268  1.00  0.00    -0.021 A 
HETATM    2  C   UNL     1      -6.305  -0.933 -34.456  1.00  0.00     0.011 A 
HETATM    3  C   UNL     1      -7.641  -0.518 -34.576  1.00  0.00     0.018 A 
HETATM    4  C   UNL     1      -8.283   0.107 -33.503  1.00  0.00     0.033 A 
HETATM    5  C   UNL     1      -7.560   0.323 -32.323  1.00  0.00     0.018 A 
HETATM    6  C   UNL     1      -6.227  -0.084 -32.211  1.00  0.00     0.011 A 
ENDROOT
BRANCH   4   7
HETATM    7  C   UNL     1      -9.695   0.603 -33.548  1.00  0.00     0.266 C 
HETATM    8  N   UNL     1      -9.961   1.709 -34.352  1.00  0.00    -0.284 N 
HETATM    9  H   UNL     1      -9.252   2.098 -34.962  1.00  0.00     0.184 HD
HETATM   10  O   UNL     1     -10.547   0.016 -32.884  1.00  0.00    -0.266 OA
BRANCH   8  11
HETATM   11  N   UNL     1     -11.258   2.268 -34.472  1.00  0.00    -0.220 NA
HETATM   12  C   UNL     1     -12.304   1.291 -34.879  1.00  0.00     0.153 C 
HETATM   13  C   UNL     1     -13.512   1.635 -34.068  1.00  0.00    -0.036 A 
HETATM   14  C   UNL     1     -13.185   2.603 -33.122  1.00  0.00    -0.036 A 
HETATM   15  C   UNL     1     -14.787   1.099 -34.135  1.00  0.00     0.009 A 
HETATM   16  C   UNL     1     -11.741   2.972 -33.253  1.00  0.00     0.153 C 
HETATM   17  C   UNL     1     -14.121   3.059 -32.211  1.00  0.00     0.009 A 
HETATM   18  C   UNL     1     -15.412   2.528 -32.267  1.00  0.00     0.001 A 
HETATM   19  C   UNL     1     -15.743   1.555 -33.224  1.00  0.00     0.001 A 
ENDBRANCH   8  11
ENDBRANCH   4   7
BRANCH   1  20
HETATM   20  C   UNL     1      -4.107  -1.141 -33.160  1.00  0.00     0.139 A 
HETATM   21  C   UNL     1      -3.201  -0.146 -33.883  1.00  0.00     0.054 C 
HETATM   22  N   UNL     1      -3.872  -2.491 -33.642  1.00  0.00    -0.321 N 
HETATM   23  C   UNL     1      -3.386  -3.331 -32.675  1.00  0.00     0.324 A 
HETATM   24  H   UNL     1      -3.973  -2.809 -34.595  1.00  0.00     0.165 HD
HETATM   25  O   UNL     1      -3.071  -4.492 -32.858  1.00  0.00    -0.247 OA
HETATM   26  N   UNL     1      -3.287  -2.649 -31.516  1.00  0.00    -0.277 N 
HETATM   27  C   UNL     1      -3.609  -1.340 -31.702  1.00  0.00     0.258 A 
HETATM   28  H   UNL     1      -2.904  -3.029 -30.668  1.00  0.00     0.173 HD
HETATM   29  O   UNL     1      -3.483  -0.478 -30.844  1.00  0.00    -0.270 OA
ENDBRANCH   1  20
TORSDOF 3
ENDMDL
MODEL 10
REMARK VINA RESULT:      -7.9      5.206      6.323
REMARK  3 active torsions:
REMARK  status: ('A' for Active; 'I' for Inactive)
REMARK    1  A    between atoms: C_2  and  C_3 
REMARK    2  A    between atoms: C_6  and  C_7 
REMARK       I    between atoms: C_7  and  N_8 
REMARK    3  A    between atoms: N_8  and  N_9 
ROOT
HETATM    1  C   UNL     1      -4.788   5.596 -32.462  1.00  0.00    -0.021 A 
HETATM    2  C   UNL     1      -4.930   4.644 -33.489  1.00  0.00     0.011 A 
HETATM    3  C   UNL     1      -6.181   4.357 -34.059  1.00  0.00     0.018 A 
HETATM    4  C   UNL     1      -7.327   5.020 -33.613  1.00  0.00     0.033 A 
HETATM    5  C   UNL     1      -7.194   5.983 -32.604  1.00  0.00     0.018 A 
HETATM    6  C   UNL     1      -5.946   6.272 -32.045  1.00  0.00     0.011 A 
ENDROOT
BRANCH   4   7
HETATM    7  C   UNL     1      -8.695   4.796 -34.177  1.00  0.00     0.266 C 
HETATM    8  N   UNL     1      -9.382   3.658 -33.760  1.00  0.00    -0.284 N 
HETATM    9  H   UNL     1      -9.017   3.062 -33.028  1.00  0.00     0.184 HD
HETATM   10  O   UNL     1      -9.148   5.619 -34.970  1.00  0.00    -0.266 OA
BRANCH   8  11
HETATM   11  N   UNL     1     -10.683   3.341 -34.227  1.00  0.00    -0.220 NA
HETATM   12  C   UNL     1     -10.914   1.886 -34.438  1.00  0.00     0.153 C 
HETATM   13  C   UNL     1     -12.303   1.625 -33.950  1.00  0.00    -0.036 A 
HETATM   14  C   UNL     1     -12.807   2.765 -33.328  1.00  0.00    -0.036 A 
HETATM   15  C   UNL     1     -13.043   0.457 -34.014  1.00  0.00     0.009 A 
HETATM   16  C   UNL     1     -11.787   3.859 -33.374  1.00  0.00     0.153 C 
HETATM   17  C   UNL     1     -14.062   2.768 -32.746  1.00  0.00     0.009 A 
HETATM   18  C   UNL     1     -14.820   1.596 -32.804  1.00  0.00     0.001 A 
HETATM   19  C   UNL     1     -14.314   0.448 -33.434  1.00  0.00     0.001 A 
ENDBRANCH   8  11
ENDBRANCH   4   7
BRANCH   1  20
HETATM   20  C   UNL     1      -3.420   5.945 -31.883  1.00  0.00     0.139 A 
HETATM   21  C   UNL     1      -3.514   6.290 -30.398  1.00  0.00     0.054 C 
HETATM   22  N   UNL     1      -2.771   7.017 -32.617  1.00  0.00    -0.321 N 
HETATM   23  C   UNL     1      -1.587   6.637 -33.192  1.00  0.00     0.324 A 
HETATM   24  H   UNL     1      -3.083   7.976 -32.670  1.00  0.00     0.165 HD
HETATM   25  O   UNL     1      -0.847   7.377 -33.812  1.00  0.00    -0.247 OA
HETATM   26  N   UNL     1      -1.371   5.333 -32.921  1.00  0.00    -0.277 N 
HETATM   27  C   UNL     1      -2.340   4.849 -32.099  1.00  0.00     0.258 A 
HETATM   28  H   UNL     1      -0.541   4.832 -33.186  1.00  0.00     0.173 HD
HETATM   29  O   UNL     1      -2.317   3.732 -31.602  1.00  0.00    -0.270 OA
ENDBRANCH   1  20
TORSDOF 3
ENDMDL
