MODEL 1
REMARK VINA RESULT:      -8.0      0.000      0.000
REMARK  5 active torsions:
REMARK  status: ('A' for Active; 'I' for Inactive)
REMARK    1  A    between atoms: C_5  and  C_6 
REMARK       I    between atoms: C_6  and  N_7 
REMARK    2  A    between atoms: N_7  and  C_8 
REMARK    3  A    between atoms: C_8  and  C_9 
REMARK    4  A    between atoms: C_11  and  N_12 
REMARK    5  A    between atoms: N_12  and  C_13 
ROOT
HETATM    1  C   UNL     1      -5.226   0.774 -31.387  1.00  0.00     0.161 C 
ENDROOT
BRANCH   1   2
HETATM    2  N   UNL     1      -5.211  -0.578 -31.892  1.00  0.00    -0.353 N 
HETATM    3  C   UNL     1      -4.314  -0.990 -32.856  1.00  0.00     0.255 C 
HETATM    4  O   UNL     1      -3.430  -0.252 -33.280  1.00  0.00    -0.268 OA
HETATM    5  H   UNL     1      -5.947  -1.213 -31.601  1.00  0.00     0.163 HD
BRANCH   3   6
HETATM    6  C   UNL     1      -4.439  -2.383 -33.369  1.00  0.00     0.071 A 
HETATM    7  C   UNL     1      -5.436  -2.779 -34.267  1.00  0.00     0.138 A 
HETATM    8  C   UNL     1      -5.514  -4.097 -34.734  1.00  0.00    -0.022 A 
HETATM    9  F   UNL     1      -6.350  -1.892 -34.698  1.00  0.00    -0.204 F 
HETATM   10  C   UNL     1      -6.606  -4.514 -35.674  1.00  0.00     0.051 C 
HETATM   11  C   UNL     1      -4.591  -5.039 -34.264  1.00  0.00     0.010 A 
HETATM   12  C   UNL     1      -3.593  -4.660 -33.366  1.00  0.00     0.002 A 
HETATM   13  C   UNL     1      -3.514  -3.339 -32.923  1.00  0.00     0.020 A 
ENDBRANCH   3   6
ENDBRANCH   1   2
BRANCH   1  14
HETATM   14  C   UNL     1      -6.641   1.248 -31.148  1.00  0.00    -0.036 A 
HETATM   15  C   UNL     1      -7.718   0.577 -31.742  1.00  0.00     0.057 A 
HETATM   16  C   UNL     1      -9.023   1.044 -31.576  1.00  0.00     0.101 A 
HETATM   17  N   UNL     1      -9.208   2.166 -30.867  1.00  0.00    -0.353 N 
HETATM   18  H   UNL     1     -10.157   2.521 -30.808  1.00  0.00     0.166 HD
HETATM   19  C   UNL     1      -8.211   2.842 -30.281  1.00  0.00     0.090 A 
HETATM   20  C   UNL     1      -6.901   2.399 -30.405  1.00  0.00     0.026 A 
BRANCH  16  21
HETATM   21  N   UNL     1     -10.097   0.432 -32.234  1.00  0.00    -0.372 N 
HETATM   22  H   UNL     1     -10.919   0.356 -31.632  1.00  0.00     0.161 HD
BRANCH  21  23
HETATM   23  C   UNL     1     -10.374   0.661 -33.651  1.00  0.00     0.083 A 
HETATM   24  C   UNL     1     -11.537   1.502 -34.099  1.00  0.00     0.027 A 
HETATM   25  C   UNL     1     -10.137   2.024 -34.236  1.00  0.00     0.027 A 
ENDBRANCH  21  23
ENDBRANCH  16  21
ENDBRANCH   1  14
TORSDOF 5
ENDMDL
MODEL 2
REMARK VINA RESULT:      -7.9      4.616      7.447
REMARK  5 active torsions:
REMARK  status: ('A' for Active; 'I' for Inactive)
REMARK    1  A    between atoms: C_5  and  C_6 
REMARK       I    between atoms: C_6  and  N_7 
REMARK    2  A    between atoms: N_7  and  C_8 
REMARK    3  A    between atoms: C_8  and  C_9 
REMARK    4  A    between atoms: C_11  and  N_12 
REMARK    5  A    between atoms: N_12  and  C_13 
ROOT
HETATM    1  C   UNL     1      -5.521   2.117 -31.977  1.00  0.00     0.161 C 
ENDROOT
BRANCH   1   2
HETATM    2  N   UNL     1      -4.625   3.123 -32.495  1.00  0.00    -0.353 N 
HETATM    3  C   UNL     1      -3.293   3.170 -32.143  1.00  0.00     0.255 C 
HETATM    4  O   UNL     1      -2.778   2.312 -31.431  1.00  0.00    -0.268 OA
HETATM    5  H   UNL     1      -5.012   3.876 -33.055  1.00  0.00     0.163 HD
BRANCH   3   6
HETATM    6  C   UNL     1      -2.474   4.299 -32.668  1.00  0.00     0.071 A 
HETATM    7  C   UNL     1      -1.548   4.998 -31.886  1.00  0.00     0.138 A 
HETATM    8  C   UNL     1      -0.792   6.048 -32.418  1.00  0.00    -0.022 A 
HETATM    9  F   UNL     1      -1.371   4.672 -30.593  1.00  0.00    -0.204 F 
HETATM   10  C   UNL     1       0.177   6.808 -31.560  1.00  0.00     0.051 C 
HETATM   11  C   UNL     1      -0.993   6.422 -33.752  1.00  0.00     0.010 A 
HETATM   12  C   UNL     1      -1.915   5.737 -34.544  1.00  0.00     0.002 A 
HETATM   13  C   UNL     1      -2.651   4.679 -34.006  1.00  0.00     0.020 A 
ENDBRANCH   3   6
ENDBRANCH   1   2
BRANCH   1  14
HETATM   14  C   UNL     1      -5.913   1.134 -33.055  1.00  0.00    -0.036 A 
HETATM   15  C   UNL     1      -5.413  -0.176 -33.029  1.00  0.00     0.057 A 
HETATM   16  C   UNL     1      -5.721  -1.072 -34.053  1.00  0.00     0.101 A 
HETATM   17  N   UNL     1      -6.471  -0.634 -35.073  1.00  0.00    -0.353 N 
HETATM   18  H   UNL     1      -6.634  -1.285 -35.836  1.00  0.00     0.166 HD
HETATM   19  C   UNL     1      -6.971   0.607 -35.143  1.00  0.00     0.090 A 
HETATM   20  C   UNL     1      -6.706   1.522 -34.134  1.00  0.00     0.026 A 
BRANCH  16  21
HETATM   21  N   UNL     1      -5.159  -2.355 -34.082  1.00  0.00    -0.372 N 
HETATM   22  H   UNL     1      -4.984  -2.715 -33.142  1.00  0.00     0.161 HD
BRANCH  21  23
HETATM   23  C   UNL     1      -5.549  -3.353 -35.076  1.00  0.00     0.083 A 
HETATM   24  C   UNL     1      -5.493  -4.825 -34.775  1.00  0.00     0.027 A 
HETATM   25  C   UNL     1      -6.819  -4.130 -34.879  1.00  0.00     0.027 A 
ENDBRANCH  21  23
ENDBRANCH  16  21
ENDBRANCH   1  14
TORSDOF 5
ENDMDL
MODEL 3
REMARK VINA RESULT:      -7.8      2.990      4.680
REMARK  5 active torsions:
REMARK  status: ('A' for Active; 'I' for Inactive)
REMARK    1  A    between atoms: C_5  and  C_6 
REMARK       I    between atoms: C_6  and  N_7 
REMARK    2  A    between atoms: N_7  and  C_8 
REMARK    3  A    between atoms: C_8  and  C_9 
REMARK    4  A    between atoms: C_11  and  N_12 
REMARK    5  A    between atoms: N_12  and  C_13 
ROOT
HETATM    1  C   UNL     1      -7.259   1.026 -32.722  1.00  0.00     0.161 C 
ENDROOT
BRANCH   1   2
HETATM    2  N   UNL     1      -6.770  -0.312 -32.958  1.00  0.00    -0.353 N 
HETATM    3  C   UNL     1      -6.516  -0.785 -34.229  1.00  0.00     0.255 C 
HETATM    4  O   UNL     1      -6.618  -0.070 -35.221  1.00  0.00    -0.268 OA
HETATM    5  H   UNL     1      -6.708  -0.952 -32.173  1.00  0.00     0.163 HD
BRANCH   3   6
HETATM    6  C   UNL     1      -6.095  -2.207 -34.369  1.00  0.00     0.071 A 
HETATM    7  C   UNL     1      -4.847  -2.678 -33.948  1.00  0.00     0.138 A 
HETATM    8  C   UNL     1      -4.491  -4.025 -34.089  1.00  0.00    -0.022 A 
HETATM    9  F   UNL     1      -3.955  -1.835 -33.399  1.00  0.00    -0.204 F 
HETATM   10  C   UNL     1      -3.138  -4.511 -33.659  1.00  0.00     0.051 C 
HETATM   11  C   UNL     1      -5.397  -4.906 -34.692  1.00  0.00     0.010 A 
HETATM   12  C   UNL     1      -6.644  -4.450 -35.120  1.00  0.00     0.002 A 
HETATM   13  C   UNL     1      -6.994  -3.109 -34.957  1.00  0.00     0.020 A 
ENDBRANCH   3   6
ENDBRANCH   1   2
BRANCH   1  14
HETATM   14  C   UNL     1      -6.208   1.876 -32.049  1.00  0.00    -0.036 A 
HETATM   15  C   UNL     1      -5.094   2.323 -32.773  1.00  0.00     0.057 A 
HETATM   16  C   UNL     1      -4.087   3.057 -32.144  1.00  0.00     0.101 A 
HETATM   17  N   UNL     1      -4.200   3.287 -30.828  1.00  0.00    -0.353 N 
HETATM   18  H   UNL     1      -3.429   3.772 -30.379  1.00  0.00     0.166 HD
HETATM   19  C   UNL     1      -5.244   2.881 -30.094  1.00  0.00     0.090 A 
HETATM   20  C   UNL     1      -6.276   2.166 -30.686  1.00  0.00     0.026 A 
BRANCH  16  21
HETATM   21  N   UNL     1      -2.930   3.435 -32.836  1.00  0.00    -0.372 N 
HETATM   22  H   UNL     1      -2.630   2.716 -33.498  1.00  0.00     0.161 HD
BRANCH  21  23
HETATM   23  C   UNL     1      -2.688   4.815 -33.254  1.00  0.00     0.083 A 
HETATM   24  C   UNL     1      -1.470   5.193 -34.048  1.00  0.00     0.027 A 
HETATM   25  C   UNL     1      -2.819   5.176 -34.706  1.00  0.00     0.027 A 
ENDBRANCH  21  23
ENDBRANCH  16  21
ENDBRANCH   1  14
TORSDOF 5
ENDMDL
MODEL 4
REMARK VINA RESULT:      -7.8      1.449      2.175
REMARK  5 active torsions:
REMARK  status: ('A' for Active; 'I' for Inactive)
REMARK    1  A    between atoms: C_5  and  C_6 
REMARK       I    between atoms: C_6  and  N_7 
REMARK    2  A    between atoms: N_7  and  C_8 
REMARK    3  A    between atoms: C_8  and  C_9 
REMARK    4  A    between atoms: C_11  and  N_12 
REMARK    5  A    between atoms: N_12  and  C_13 
ROOT
HETATM    1  C   UNL     1      -6.560   0.901 -31.085  1.00  0.00     0.161 C 
ENDROOT
BRANCH   1   2
HETATM    2  N   UNL     1      -6.389  -0.365 -31.758  1.00  0.00    -0.353 N 
HETATM    3  C   UNL     1      -5.679  -0.479 -32.935  1.00  0.00     0.255 C 
HETATM    4  O   UNL     1      -5.090   0.475 -33.434  1.00  0.00    -0.268 OA
HETATM    5  H   UNL     1      -6.890  -1.174 -31.405  1.00  0.00     0.163 HD
BRANCH   3   6
HETATM    6  C   UNL     1      -5.634  -1.815 -33.592  1.00  0.00     0.071 A 
HETATM    7  C   UNL     1      -4.534  -2.674 -33.499  1.00  0.00     0.138 A 
HETATM    8  C   UNL     1      -4.533  -3.927 -34.124  1.00  0.00    -0.022 A 
HETATM    9  F   UNL     1      -3.444  -2.305 -32.803  1.00  0.00    -0.204 F 
HETATM   10  C   UNL     1      -3.334  -4.826 -34.039  1.00  0.00     0.051 C 
HETATM   11  C   UNL     1      -5.647  -4.308 -34.881  1.00  0.00     0.010 A 
HETATM   12  C   UNL     1      -6.750  -3.460 -34.987  1.00  0.00     0.002 A 
HETATM   13  C   UNL     1      -6.746  -2.222 -34.343  1.00  0.00     0.020 A 
ENDBRANCH   3   6
ENDBRANCH   1   2
BRANCH   1  14
HETATM   14  C   UNL     1      -7.919   1.492 -31.381  1.00  0.00    -0.036 A 
HETATM   15  C   UNL     1      -8.872   0.747 -32.089  1.00  0.00     0.057 A 
HETATM   16  C   UNL     1     -10.106   1.308 -32.420  1.00  0.00     0.101 A 
HETATM   17  N   UNL     1     -10.335   2.583 -32.076  1.00  0.00    -0.353 N 
HETATM   18  H   UNL     1     -11.215   2.989 -32.378  1.00  0.00     0.166 HD
HETATM   19  C   UNL     1      -9.456   3.334 -31.400  1.00  0.00     0.090 A 
HETATM   20  C   UNL     1      -8.225   2.807 -31.034  1.00  0.00     0.026 A 
BRANCH  16  21
HETATM   21  N   UNL     1     -11.032   0.604 -33.200  1.00  0.00    -0.372 N 
HETATM   22  H   UNL     1     -11.023  -0.397 -32.992  1.00  0.00     0.161 HD
BRANCH  21  23
HETATM   23  C   UNL     1     -12.337   1.161 -33.552  1.00  0.00     0.083 A 
HETATM   24  C   UNL     1     -12.744   1.365 -34.985  1.00  0.00     0.027 A 
HETATM   25  C   UNL     1     -13.373   0.269 -34.174  1.00  0.00     0.027 A 
ENDBRANCH  21  23
ENDBRANCH  16  21
ENDBRANCH   1  14
TORSDOF 5
ENDMDL
MODEL 5
REMARK VINA RESULT:      -7.6      1.657      2.387
REMARK  5 active torsions:
REMARK  status: ('A' for Active; 'I' for Inactive)
REMARK    1  A    between atoms: C_5  and  C_6 
REMARK       I    between atoms: C_6  and  N_7 
REMARK    2  A    between atoms: N_7  and  C_8 
REMARK    3  A    between atoms: C_8  and  C_9 
REMARK    4  A    between atoms: C_11  and  N_12 
REMARK    5  A    between atoms: N_12  and  C_13 
ROOT
HETATM    1  C   UNL     1      -7.470   1.060 -31.599  1.00  0.00     0.161 C 
ENDROOT
BRANCH   1   2
HETATM    2  N   UNL     1      -6.928  -0.189 -32.077  1.00  0.00    -0.353 N 
HETATM    3  C   UNL     1      -5.949  -0.240 -33.047  1.00  0.00     0.255 C 
HETATM    4  O   UNL     1      -5.430   0.776 -33.502  1.00  0.00    -0.268 OA
HETATM    5  H   UNL     1      -7.352  -1.055 -31.761  1.00  0.00     0.163 HD
BRANCH   3   6
HETATM    6  C   UNL     1      -5.519  -1.582 -33.531  1.00  0.00     0.071 A 
HETATM    7  C   UNL     1      -6.322  -2.395 -34.337  1.00  0.00     0.138 A 
HETATM    8  C   UNL     1      -5.879  -3.648 -34.779  1.00  0.00    -0.022 A 
HETATM    9  F   UNL     1      -7.550  -1.986 -34.702  1.00  0.00    -0.204 F 
HETATM   10  C   UNL     1      -6.762  -4.522 -35.620  1.00  0.00     0.051 C 
HETATM   11  C   UNL     1      -4.616  -4.101 -34.377  1.00  0.00     0.010 A 
HETATM   12  C   UNL     1      -3.806  -3.302 -33.570  1.00  0.00     0.002 A 
HETATM   13  C   UNL     1      -4.252  -2.048 -33.152  1.00  0.00     0.020 A 
ENDBRANCH   3   6
ENDBRANCH   1   2
BRANCH   1  14
HETATM   14  C   UNL     1      -8.605   1.530 -32.477  1.00  0.00    -0.036 A 
HETATM   15  C   UNL     1      -9.799   0.797 -32.538  1.00  0.00     0.057 A 
HETATM   16  C   UNL     1     -10.829   1.191 -33.393  1.00  0.00     0.101 A 
HETATM   17  N   UNL     1     -10.629   2.260 -34.176  1.00  0.00    -0.353 N 
HETATM   18  H   UNL     1     -11.367   2.493 -34.832  1.00  0.00     0.166 HD
HETATM   19  C   UNL     1      -9.506   2.991 -34.154  1.00  0.00     0.090 A 
HETATM   20  C   UNL     1      -8.466   2.645 -33.303  1.00  0.00     0.026 A 
BRANCH  16  21
HETATM   21  N   UNL     1     -11.991   0.420 -33.525  1.00  0.00    -0.372 N 
HETATM   22  H   UNL     1     -12.183  -0.126 -32.682  1.00  0.00     0.161 HD
BRANCH  21  23
HETATM   23  C   UNL     1     -13.168   0.902 -34.244  1.00  0.00     0.083 A 
HETATM   24  C   UNL     1     -14.529   0.308 -34.013  1.00  0.00     0.027 A 
HETATM   25  C   UNL     1     -14.214   1.683 -33.502  1.00  0.00     0.027 A 
ENDBRANCH  21  23
ENDBRANCH  16  21
ENDBRANCH   1  14
TORSDOF 5
ENDMDL
MODEL 6
REMARK VINA RESULT:      -7.6      3.990      5.853
REMARK  5 active torsions:
REMARK  status: ('A' for Active; 'I' for Inactive)
REMARK    1  A    between atoms: C_5  and  C_6 
REMARK       I    between atoms: C_6  and  N_7 
REMARK    2  A    between atoms: N_7  and  C_8 
REMARK    3  A    between atoms: C_8  and  C_9 
REMARK    4  A    between atoms: C_11  and  N_12 
REMARK    5  A    between atoms: N_12  and  C_13 
ROOT
HETATM    1  C   UNL     1      -5.934   2.297 -32.179  1.00  0.00     0.161 C 
ENDROOT
BRANCH   1   2
HETATM    2  N   UNL     1      -5.507   0.953 -32.486  1.00  0.00    -0.353 N 
HETATM    3  C   UNL     1      -5.846   0.328 -33.668  1.00  0.00     0.255 C 
HETATM    4  O   UNL     1      -6.463   0.909 -34.557  1.00  0.00    -0.268 OA
HETATM    5  H   UNL     1      -5.029   0.419 -31.767  1.00  0.00     0.163 HD
BRANCH   3   6
HETATM    6  C   UNL     1      -5.426  -1.090 -33.850  1.00  0.00     0.071 A 
HETATM    7  C   UNL     1      -6.203  -2.034 -34.528  1.00  0.00     0.138 A 
HETATM    8  C   UNL     1      -5.770  -3.356 -34.686  1.00  0.00    -0.022 A 
HETATM    9  F   UNL     1      -7.396  -1.687 -35.042  1.00  0.00    -0.204 F 
HETATM   10  C   UNL     1      -6.627  -4.366 -35.391  1.00  0.00     0.051 C 
HETATM   11  C   UNL     1      -4.546  -3.740 -34.124  1.00  0.00     0.010 A 
HETATM   12  C   UNL     1      -3.761  -2.810 -33.442  1.00  0.00     0.002 A 
HETATM   13  C   UNL     1      -4.196  -1.491 -33.308  1.00  0.00     0.020 A 
ENDBRANCH   3   6
ENDBRANCH   1   2
BRANCH   1  14
HETATM   14  C   UNL     1      -4.862   3.300 -32.535  1.00  0.00    -0.036 A 
HETATM   15  C   UNL     1      -3.752   3.473 -31.697  1.00  0.00     0.057 A 
HETATM   16  C   UNL     1      -2.789   4.441 -31.986  1.00  0.00     0.101 A 
HETATM   17  N   UNL     1      -2.977   5.219 -33.061  1.00  0.00    -0.353 N 
HETATM   18  H   UNL     1      -2.296   5.955 -33.220  1.00  0.00     0.166 HD
HETATM   19  C   UNL     1      -4.021   5.093 -33.891  1.00  0.00     0.090 A 
HETATM   20  C   UNL     1      -4.990   4.128 -33.650  1.00  0.00     0.026 A 
BRANCH  16  21
HETATM   21  N   UNL     1      -1.722   4.680 -31.112  1.00  0.00    -0.372 N 
HETATM   22  H   UNL     1      -1.621   3.934 -30.421  1.00  0.00     0.161 HD
BRANCH  21  23
HETATM   23  C   UNL     1      -0.474   5.298 -31.557  1.00  0.00     0.083 A 
HETATM   24  C   UNL     1       0.132   6.461 -30.824  1.00  0.00     0.027 A 
HETATM   25  C   UNL     1       0.773   5.107 -30.741  1.00  0.00     0.027 A 
ENDBRANCH  21  23
ENDBRANCH  16  21
ENDBRANCH   1  14
TORSDOF 5
ENDMDL
MODEL 7
REMARK VINA RESULT:      -7.5      4.282      6.234
REMARK  5 active torsions:
REMARK  status: ('A' for Active; 'I' for Inactive)
REMARK    1  A    between atoms: C_5  and  C_6 
REMARK       I    between atoms: C_6  and  N_7 
REMARK    2  A    between atoms: N_7  and  C_8 
REMARK    3  A    between atoms: C_8  and  C_9 
REMARK    4  A    between atoms: C_11  and  N_12 
REMARK    5  A    between atoms: N_12  and  C_13 
ROOT
HETATM    1  C   UNL     1      -5.182   2.516 -32.192  1.00  0.00     0.161 C 
ENDROOT
BRANCH   1   2
HETATM    2  N   UNL     1      -5.310   1.278 -32.921  1.00  0.00    -0.353 N 
HETATM    3  C   UNL     1      -5.187   0.049 -32.307  1.00  0.00     0.255 C 
HETATM    4  O   UNL     1      -5.039  -0.059 -31.093  1.00  0.00    -0.268 OA
HETATM    5  H   UNL     1      -5.393   1.316 -33.932  1.00  0.00     0.163 HD
BRANCH   3   6
HETATM    6  C   UNL     1      -5.252  -1.166 -33.166  1.00  0.00     0.071 A 
HETATM    7  C   UNL     1      -4.312  -2.200 -33.099  1.00  0.00     0.138 A 
HETATM    8  C   UNL     1      -4.412  -3.331 -33.917  1.00  0.00    -0.022 A 
HETATM    9  F   UNL     1      -3.280  -2.121 -32.240  1.00  0.00    -0.204 F 
HETATM   10  C   UNL     1      -3.380  -4.418 -33.854  1.00  0.00     0.051 C 
HETATM   11  C   UNL     1      -5.461  -3.408 -34.841  1.00  0.00     0.010 A 
HETATM   12  C   UNL     1      -6.405  -2.384 -34.923  1.00  0.00     0.002 A 
HETATM   13  C   UNL     1      -6.304  -1.270 -34.088  1.00  0.00     0.020 A 
ENDBRANCH   3   6
ENDBRANCH   1   2
BRANCH   1  14
HETATM   14  C   UNL     1      -4.352   3.516 -32.962  1.00  0.00    -0.036 A 
HETATM   15  C   UNL     1      -3.045   3.812 -32.551  1.00  0.00     0.057 A 
HETATM   16  C   UNL     1      -2.293   4.778 -33.221  1.00  0.00     0.101 A 
HETATM   17  N   UNL     1      -2.868   5.437 -34.236  1.00  0.00    -0.353 N 
HETATM   18  H   UNL     1      -2.325   6.176 -34.671  1.00  0.00     0.166 HD
HETATM   19  C   UNL     1      -4.113   5.190 -34.665  1.00  0.00     0.090 A 
HETATM   20  C   UNL     1      -4.887   4.222 -34.039  1.00  0.00     0.026 A 
BRANCH  16  21
HETATM   21  N   UNL     1      -1.019   5.142 -32.767  1.00  0.00    -0.372 N 
HETATM   22  H   UNL     1      -0.447   5.539 -33.516  1.00  0.00     0.161 HD
BRANCH  21  23
HETATM   23  C   UNL     1      -0.798   5.711 -31.439  1.00  0.00     0.083 A 
HETATM   24  C   UNL     1       0.302   5.213 -30.544  1.00  0.00     0.027 A 
HETATM   25  C   UNL     1       0.417   6.560 -31.195  1.00  0.00     0.027 A 
ENDBRANCH  21  23
ENDBRANCH  16  21
ENDBRANCH   1  14
TORSDOF 5
ENDMDL
MODEL 8
REMARK VINA RESULT:      -7.5      5.172      7.350
REMARK  5 active torsions:
REMARK  status: ('A' for Active; 'I' for Inactive)
REMARK    1  A    between atoms: C_5  and  C_6 
REMARK       I    between atoms: C_6  and  N_7 
REMARK    2  A    between atoms: N_7  and  C_8 
REMARK    3  A    between atoms: C_8  and  C_9 
REMARK    4  A    between atoms: C_11  and  N_12 
REMARK    5  A    between atoms: N_12  and  C_13 
ROOT
HETATM    1  C   UNL     1      -3.346   2.999 -31.455  1.00  0.00     0.161 C 
ENDROOT
BRANCH   1   2
HETATM    2  N   UNL     1      -4.153   2.300 -32.427  1.00  0.00    -0.353 N 
HETATM    3  C   UNL     1      -5.064   1.331 -32.062  1.00  0.00     0.255 C 
HETATM    4  O   UNL     1      -5.295   1.064 -30.886  1.00  0.00    -0.268 OA
HETATM    5  H   UNL     1      -3.970   2.457 -33.412  1.00  0.00     0.163 HD
BRANCH   3   6
HETATM    6  C   UNL     1      -5.785   0.610 -33.149  1.00  0.00     0.071 A 
HETATM    7  C   UNL     1      -5.656  -0.765 -33.369  1.00  0.00     0.138 A 
HETATM    8  C   UNL     1      -6.357  -1.407 -34.396  1.00  0.00    -0.022 A 
HETATM    9  F   UNL     1      -4.843  -1.502 -32.591  1.00  0.00    -0.204 F 
HETATM   10  C   UNL     1      -6.187  -2.879 -34.638  1.00  0.00     0.051 C 
HETATM   11  C   UNL     1      -7.178  -0.646 -35.236  1.00  0.00     0.010 A 
HETATM   12  C   UNL     1      -7.314   0.728 -35.032  1.00  0.00     0.002 A 
HETATM   13  C   UNL     1      -6.624   1.353 -33.993  1.00  0.00     0.020 A 
ENDBRANCH   3   6
ENDBRANCH   1   2
BRANCH   1  14
HETATM   14  C   UNL     1      -2.494   4.055 -32.118  1.00  0.00    -0.036 A 
HETATM   15  C   UNL     1      -1.646   4.862 -31.346  1.00  0.00     0.057 A 
HETATM   16  C   UNL     1      -0.901   5.880 -31.943  1.00  0.00     0.101 A 
HETATM   17  N   UNL     1      -1.049   6.086 -33.258  1.00  0.00    -0.353 N 
HETATM   18  H   UNL     1      -0.543   6.869 -33.661  1.00  0.00     0.166 HD
HETATM   19  C   UNL     1      -1.847   5.342 -34.037  1.00  0.00     0.090 A 
HETATM   20  C   UNL     1      -2.589   4.306 -33.486  1.00  0.00     0.026 A 
BRANCH  16  21
HETATM   21  N   UNL     1      -0.116   6.746 -31.171  1.00  0.00    -0.372 N 
HETATM   22  H   UNL     1      -0.226   7.720 -31.461  1.00  0.00     0.161 HD
BRANCH  21  23
HETATM   23  C   UNL     1       0.098   6.537 -29.740  1.00  0.00     0.083 A 
HETATM   24  C   UNL     1       0.739   7.588 -28.879  1.00  0.00     0.027 A 
HETATM   25  C   UNL     1      -0.730   7.308 -28.752  1.00  0.00     0.027 A 
ENDBRANCH  21  23
ENDBRANCH  16  21
ENDBRANCH   1  14
TORSDOF 5
ENDMDL
MODEL 9
REMARK VINA RESULT:      -7.3      2.362      3.407
REMARK  5 active torsions:
REMARK  status: ('A' for Active; 'I' for Inactive)
REMARK    1  A    between atoms: C_5  and  C_6 
REMARK       I    between atoms: C_6  and  N_7 
REMARK    2  A    between atoms: N_7  and  C_8 
REMARK    3  A    between atoms: C_8  and  C_9 
REMARK    4  A    between atoms: C_11  and  N_12 
REMARK    5  A    between atoms: N_12  and  C_13 
ROOT
HETATM    1  C   UNL     1      -7.576   1.000 -32.070  1.00  0.00     0.161 C 
ENDROOT
BRANCH   1   2
HETATM    2  N   UNL     1      -7.214  -0.326 -32.511  1.00  0.00    -0.353 N 
HETATM    3  C   UNL     1      -6.209  -0.543 -33.431  1.00  0.00     0.255 C 
HETATM    4  O   UNL     1      -5.516   0.373 -33.866  1.00  0.00    -0.268 OA
HETATM    5  H   UNL     1      -7.783  -1.110 -32.211  1.00  0.00     0.163 HD
BRANCH   3   6
HETATM    6  C   UNL     1      -5.972  -1.942 -33.883  1.00  0.00     0.071 A 
HETATM    7  C   UNL     1      -4.772  -2.625 -33.655  1.00  0.00     0.138 A 
HETATM    8  C   UNL     1      -4.590  -3.943 -34.089  1.00  0.00    -0.022 A 
HETATM    9  F   UNL     1      -3.759  -2.017 -33.013  1.00  0.00    -0.204 F 
HETATM   10  C   UNL     1      -3.288  -4.653 -33.862  1.00  0.00     0.051 C 
HETATM   11  C   UNL     1      -5.624  -4.575 -34.791  1.00  0.00     0.010 A 
HETATM   12  C   UNL     1      -6.825  -3.906 -35.029  1.00  0.00     0.002 A 
HETATM   13  C   UNL     1      -7.001  -2.598 -34.576  1.00  0.00     0.020 A 
ENDBRANCH   3   6
ENDBRANCH   1   2
BRANCH   1  14
HETATM   14  C   UNL     1      -8.985   1.345 -32.492  1.00  0.00    -0.036 A 
HETATM   15  C   UNL     1      -9.524   2.602 -32.185  1.00  0.00     0.057 A 
HETATM   16  C   UNL     1     -10.844   2.908 -32.517  1.00  0.00     0.101 A 
HETATM   17  N   UNL     1     -11.587   1.956 -33.100  1.00  0.00    -0.353 N 
HETATM   18  H   UNL     1     -12.561   2.179 -33.280  1.00  0.00     0.166 HD
HETATM   19  C   UNL     1     -11.117   0.741 -33.413  1.00  0.00     0.090 A 
HETATM   20  C   UNL     1      -9.802   0.405 -33.118  1.00  0.00     0.026 A 
BRANCH  16  21
HETATM   21  N   UNL     1     -11.419   4.128 -32.140  1.00  0.00    -0.372 N 
HETATM   22  H   UNL     1     -12.047   4.492 -32.860  1.00  0.00     0.161 HD
BRANCH  21  23
HETATM   23  C   UNL     1     -11.813   4.409 -30.761  1.00  0.00     0.083 A 
HETATM   24  C   UNL     1     -12.737   5.546 -30.423  1.00  0.00     0.027 A 
HETATM   25  C   UNL     1     -13.224   4.130 -30.328  1.00  0.00     0.027 A 
ENDBRANCH  21  23
ENDBRANCH  16  21
ENDBRANCH   1  14
TORSDOF 5
ENDMDL
MODEL 10
REMARK VINA RESULT:      -7.3      3.595      5.001
REMARK  5 active torsions:
REMARK  status: ('A' for Active; 'I' for Inactive)
REMARK    1  A    between atoms: C_5  and  C_6 
REMARK       I    between atoms: C_6  and  N_7 
REMARK    2  A    between atoms: N_7  and  C_8 
REMARK    3  A    between atoms: C_8  and  C_9 
REMARK    4  A    between atoms: C_11  and  N_12 
REMARK    5  A    between atoms: N_12  and  C_13 
ROOT
HETATM    1  C   UNL     1      -5.190   1.854 -31.324  1.00  0.00     0.161 C 
ENDROOT
BRANCH   1   2
HETATM    2  N   UNL     1      -5.393   0.587 -31.985  1.00  0.00    -0.353 N 
HETATM    3  C   UNL     1      -4.374  -0.067 -32.645  1.00  0.00     0.255 C 
HETATM    4  O   UNL     1      -3.221   0.354 -32.640  1.00  0.00    -0.268 OA
HETATM    5  H   UNL     1      -6.337   0.219 -32.049  1.00  0.00     0.163 HD
BRANCH   3   6
HETATM    6  C   UNL     1      -4.710  -1.327 -33.366  1.00  0.00     0.071 A 
HETATM    7  C   UNL     1      -3.987  -2.514 -33.204  1.00  0.00     0.138 A 
HETATM    8  C   UNL     1      -4.339  -3.680 -33.894  1.00  0.00    -0.022 A 
HETATM    9  F   UNL     1      -2.927  -2.554 -32.378  1.00  0.00    -0.204 F 
HETATM   10  C   UNL     1      -3.538  -4.939 -33.733  1.00  0.00     0.051 C 
HETATM   11  C   UNL     1      -5.419  -3.642 -34.784  1.00  0.00     0.010 A 
HETATM   12  C   UNL     1      -6.147  -2.465 -34.959  1.00  0.00     0.002 A 
HETATM   13  C   UNL     1      -5.797  -1.313 -34.251  1.00  0.00     0.020 A 
ENDBRANCH   3   6
ENDBRANCH   1   2
BRANCH   1  14
HETATM   14  C   UNL     1      -5.488   3.005 -32.256  1.00  0.00    -0.036 A 
HETATM   15  C   UNL     1      -4.453   3.607 -32.985  1.00  0.00     0.057 A 
HETATM   16  C   UNL     1      -4.708   4.710 -33.802  1.00  0.00     0.101 A 
HETATM   17  N   UNL     1      -5.957   5.195 -33.837  1.00  0.00    -0.353 N 
HETATM   18  H   UNL     1      -6.109   6.032 -34.390  1.00  0.00     0.166 HD
HETATM   19  C   UNL     1      -6.979   4.655 -33.158  1.00  0.00     0.090 A 
HETATM   20  C   UNL     1      -6.770   3.545 -32.352  1.00  0.00     0.026 A 
BRANCH  16  21
HETATM   21  N   UNL     1      -3.669   5.371 -34.467  1.00  0.00    -0.372 N 
HETATM   22  H   UNL     1      -3.765   6.387 -34.410  1.00  0.00     0.161 HD
BRANCH  21  23
HETATM   23  C   UNL     1      -2.296   4.868 -34.462  1.00  0.00     0.083 A 
HETATM   24  C   UNL     1      -1.129   5.766 -34.760  1.00  0.00     0.027 A 
HETATM   25  C   UNL     1      -1.365   5.284 -33.359  1.00  0.00     0.027 A 
ENDBRANCH  21  23
ENDBRANCH  16  21
ENDBRANCH   1  14
TORSDOF 5
ENDMDL
