MODEL 1
REMARK VINA RESULT:      -8.7      0.000      0.000
REMARK  6 active torsions:
REMARK  status: ('A' for Active; 'I' for Inactive)
REMARK    1  A    between atoms: C_2  and  C_3 
REMARK       I    between atoms: C_3  and  N_4 
REMARK    2  A    between atoms: N_4  and  C_5 
REMARK    3  A    between atoms: C_7  and  N_8 
REMARK       I    between atoms: N_8  and  C_9 
REMARK    4  A    between atoms: C_9  and  C_10 
REMARK    5  A    between atoms: C_13  and  C_14 
REMARK    6  A    between atoms: C_14  and  C_15 
ROOT
HETATM    1  N   UNL     1      -3.022   3.520 -32.685  1.00  0.00    -0.322 N 
HETATM    2  C   UNL     1      -4.125   3.295 -31.880  1.00  0.00     0.256 C 
HETATM    3  O   UNL     1      -4.463   3.956 -30.906  1.00  0.00    -0.267 OA
HETATM    4  H   UNL     1      -2.833   2.838 -33.400  1.00  0.00     0.169 HD
ENDROOT
BRANCH   1   5
HETATM    5  C   UNL     1      -2.176   4.661 -32.693  1.00  0.00     0.043 A 
HETATM    6  C   UNL     1      -1.332   4.979 -31.616  1.00  0.00     0.059 A 
HETATM    7  C   UNL     1      -0.606   6.176 -31.591  1.00  0.00     0.036 A 
HETATM    8  C   UNL     1      -0.702   7.047 -32.679  1.00  0.00     0.030 A 
HETATM    9  C   UNL     1      -1.508   6.730 -33.772  1.00  0.00     0.011 A 
HETATM   10  C   UNL     1      -2.253   5.543 -33.793  1.00  0.00    -0.035 A 
HETATM   11  C   UNL     1      -3.116   5.266 -34.994  1.00  0.00     0.050 C 
BRANCH   7  12
HETATM   12  N   UNL     1       0.184   6.608 -30.502  1.00  0.00    -0.327 N 
HETATM   13  C   UNL     1      -0.197   7.419 -29.450  1.00  0.00     0.221 C 
HETATM   14  O   UNL     1      -1.331   7.829 -29.225  1.00  0.00    -0.273 OA
HETATM   15  H   UNL     1       1.130   6.258 -30.491  1.00  0.00     0.169 HD
BRANCH  13  16
HETATM   16  C   UNL     1       0.953   7.885 -28.565  1.00  0.00     0.098 C 
HETATM   17  C   UNL     1       1.091   7.175 -27.231  1.00  0.00     0.014 C 
ENDBRANCH  13  16
ENDBRANCH   7  12
ENDBRANCH   1   5
BRANCH   2  18
HETATM   18  C   UNL     1      -4.994   2.147 -32.279  1.00  0.00     0.032 A 
HETATM   19  C   UNL     1      -5.116   0.977 -31.519  1.00  0.00     0.017 A 
HETATM   20  C   UNL     1      -5.902  -0.082 -31.984  1.00  0.00     0.008 A 
HETATM   21  C   UNL     1      -6.585   0.014 -33.208  1.00  0.00    -0.051 A 
HETATM   22  C   UNL     1      -6.492   1.204 -33.943  1.00  0.00     0.008 A 
HETATM   23  C   UNL     1      -5.705   2.260 -33.482  1.00  0.00     0.017 A 
BRANCH  21  24
HETATM   24  C   UNL     1      -7.418  -1.139 -33.721  1.00  0.00     0.120 C 
BRANCH  24  25
HETATM   25  C   UNL     1      -6.462  -2.157 -34.228  1.00  0.00     0.151 A 
HETATM   26  N   UNL     1      -5.149  -1.922 -34.378  1.00  0.00    -0.158 NA
HETATM   27  N   UNL     1      -4.719  -3.100 -34.860  1.00  0.00    -0.270 N 
HETATM   28  H   UNL     1      -3.734  -3.228 -35.056  1.00  0.00     0.190 HD
HETATM   29  C   UNL     1      -5.748  -3.972 -35.020  1.00  0.00     0.227 A 
HETATM   30  N   UNL     1      -6.867  -3.404 -34.645  1.00  0.00    -0.225 NA
ENDBRANCH  24  25
ENDBRANCH  21  24
ENDBRANCH   2  18
TORSDOF 6
ENDMDL
MODEL 2
REMARK VINA RESULT:      -8.5      2.531      2.994
REMARK  6 active torsions:
REMARK  status: ('A' for Active; 'I' for Inactive)
REMARK    1  A    between atoms: C_2  and  C_3 
REMARK       I    between atoms: C_3  and  N_4 
REMARK    2  A    between atoms: N_4  and  C_5 
REMARK    3  A    between atoms: C_7  and  N_8 
REMARK       I    between atoms: N_8  and  C_9 
REMARK    4  A    between atoms: C_9  and  C_10 
REMARK    5  A    between atoms: C_13  and  C_14 
REMARK    6  A    between atoms: C_14  and  C_15 
ROOT
HETATM    1  N   UNL     1      -3.069   3.643 -32.733  1.00  0.00    -0.322 N 
HETATM    2  C   UNL     1      -3.323   2.487 -32.016  1.00  0.00     0.256 C 
HETATM    3  O   UNL     1      -2.658   2.044 -31.088  1.00  0.00    -0.267 OA
HETATM    4  H   UNL     1      -3.664   3.829 -33.524  1.00  0.00     0.169 HD
ENDROOT
BRANCH   1   5
HETATM    5  C   UNL     1      -2.130   4.663 -32.425  1.00  0.00     0.043 A 
HETATM    6  C   UNL     1      -1.781   4.990 -31.103  1.00  0.00     0.059 A 
HETATM    7  C   UNL     1      -0.955   6.083 -30.820  1.00  0.00     0.036 A 
HETATM    8  C   UNL     1      -0.445   6.837 -31.880  1.00  0.00     0.030 A 
HETATM    9  C   UNL     1      -0.752   6.506 -33.199  1.00  0.00     0.011 A 
HETATM   10  C   UNL     1      -1.596   5.424 -33.487  1.00  0.00    -0.035 A 
HETATM   11  C   UNL     1      -1.903   5.127 -34.931  1.00  0.00     0.050 C 
BRANCH   7  12
HETATM   12  N   UNL     1      -0.642   6.531 -29.517  1.00  0.00    -0.327 N 
HETATM   13  C   UNL     1       0.266   5.986 -28.630  1.00  0.00     0.221 C 
HETATM   14  O   UNL     1       1.041   5.063 -28.862  1.00  0.00    -0.273 OA
HETATM   15  H   UNL     1      -1.131   7.362 -29.219  1.00  0.00     0.169 HD
BRANCH  13  16
HETATM   16  C   UNL     1       0.200   6.566 -27.222  1.00  0.00     0.098 C 
HETATM   17  C   UNL     1       1.373   7.436 -26.810  1.00  0.00     0.014 C 
ENDBRANCH  13  16
ENDBRANCH   7  12
ENDBRANCH   1   5
BRANCH   2  18
HETATM   18  C   UNL     1      -4.554   1.738 -32.411  1.00  0.00     0.032 A 
HETATM   19  C   UNL     1      -4.825   0.431 -31.990  1.00  0.00     0.017 A 
HETATM   20  C   UNL     1      -5.970  -0.230 -32.448  1.00  0.00     0.008 A 
HETATM   21  C   UNL     1      -6.864   0.406 -33.324  1.00  0.00    -0.051 A 
HETATM   22  C   UNL     1      -6.609   1.730 -33.708  1.00  0.00     0.008 A 
HETATM   23  C   UNL     1      -5.465   2.389 -33.255  1.00  0.00     0.017 A 
BRANCH  21  24
HETATM   24  C   UNL     1      -8.091  -0.316 -33.835  1.00  0.00     0.120 C 
BRANCH  24  25
HETATM   25  C   UNL     1      -9.256   0.542 -33.497  1.00  0.00     0.151 A 
HETATM   26  N   UNL     1      -9.616   0.829 -32.236  1.00  0.00    -0.158 NA
HETATM   27  N   UNL     1     -10.698   1.600 -32.435  1.00  0.00    -0.270 N 
HETATM   28  H   UNL     1     -11.183   1.991 -31.638  1.00  0.00     0.190 HD
HETATM   29  C   UNL     1     -10.978   1.724 -33.758  1.00  0.00     0.227 A 
HETATM   30  N   UNL     1     -10.096   1.054 -34.458  1.00  0.00    -0.225 NA
ENDBRANCH  24  25
ENDBRANCH  21  24
ENDBRANCH   2  18
TORSDOF 6
ENDMDL
MODEL 3
REMARK VINA RESULT:      -8.1      1.963      9.455
REMARK  6 active torsions:
REMARK  status: ('A' for Active; 'I' for Inactive)
REMARK    1  A    between atoms: C_2  and  C_3 
REMARK       I    between atoms: C_3  and  N_4 
REMARK    2  A    between atoms: N_4  and  C_5 
REMARK    3  A    between atoms: C_7  and  N_8 
REMARK       I    between atoms: N_8  and  C_9 
REMARK    4  A    between atoms: C_9  and  C_10 
REMARK    5  A    between atoms: C_13  and  C_14 
REMARK    6  A    between atoms: C_14  and  C_15 
ROOT
HETATM    1  N   UNL     1      -5.414   2.934 -33.323  1.00  0.00    -0.322 N 
HETATM    2  C   UNL     1      -5.048   3.357 -32.057  1.00  0.00     0.256 C 
HETATM    3  O   UNL     1      -5.611   3.081 -31.005  1.00  0.00    -0.267 OA
HETATM    4  H   UNL     1      -4.897   3.314 -34.099  1.00  0.00     0.169 HD
ENDROOT
BRANCH   1   5
HETATM    5  C   UNL     1      -6.369   1.938 -33.659  1.00  0.00     0.043 A 
HETATM    6  C   UNL     1      -6.025   0.583 -33.805  1.00  0.00     0.059 A 
HETATM    7  C   UNL     1      -6.954  -0.357 -34.263  1.00  0.00     0.036 A 
HETATM    8  C   UNL     1      -8.257   0.063 -34.546  1.00  0.00     0.030 A 
HETATM    9  C   UNL     1      -8.625   1.396 -34.373  1.00  0.00     0.011 A 
HETATM   10  C   UNL     1      -7.692   2.346 -33.934  1.00  0.00    -0.035 A 
HETATM   11  C   UNL     1      -8.148   3.773 -33.783  1.00  0.00     0.050 C 
BRANCH   7  12
HETATM   12  N   UNL     1      -6.655  -1.712 -34.528  1.00  0.00    -0.327 N 
HETATM   13  C   UNL     1      -5.453  -2.366 -34.339  1.00  0.00     0.221 C 
HETATM   14  O   UNL     1      -4.450  -1.900 -33.807  1.00  0.00    -0.273 OA
HETATM   15  H   UNL     1      -7.426  -2.263 -34.875  1.00  0.00     0.169 HD
BRANCH  13  16
HETATM   16  C   UNL     1      -5.395  -3.766 -34.938  1.00  0.00     0.098 C 
HETATM   17  C   UNL     1      -6.735  -4.413 -35.239  1.00  0.00     0.014 C 
ENDBRANCH  13  16
ENDBRANCH   7  12
ENDBRANCH   1   5
BRANCH   2  18
HETATM   18  C   UNL     1      -3.821   4.207 -31.989  1.00  0.00     0.032 A 
HETATM   19  C   UNL     1      -2.691   3.989 -32.785  1.00  0.00     0.017 A 
HETATM   20  C   UNL     1      -1.555   4.790 -32.626  1.00  0.00     0.008 A 
HETATM   21  C   UNL     1      -1.535   5.826 -31.677  1.00  0.00    -0.051 A 
HETATM   22  C   UNL     1      -2.685   6.066 -30.913  1.00  0.00     0.008 A 
HETATM   23  C   UNL     1      -3.817   5.265 -31.068  1.00  0.00     0.017 A 
BRANCH  21  24
HETATM   24  C   UNL     1      -0.300   6.678 -31.490  1.00  0.00     0.120 C 
BRANCH  24  25
HETATM   25  C   UNL     1       0.160   6.453 -30.095  1.00  0.00     0.151 A 
HETATM   26  N   UNL     1       0.404   5.233 -29.590  1.00  0.00    -0.158 NA
HETATM   27  N   UNL     1       0.773   5.533 -28.333  1.00  0.00    -0.270 N 
HETATM   28  H   UNL     1       1.042   4.788 -27.703  1.00  0.00     0.190 HD
HETATM   29  C   UNL     1       0.709   6.870 -28.107  1.00  0.00     0.227 A 
HETATM   30  N   UNL     1       0.310   7.482 -29.194  1.00  0.00    -0.225 NA
ENDBRANCH  24  25
ENDBRANCH  21  24
ENDBRANCH   2  18
TORSDOF 6
ENDMDL
MODEL 4
REMARK VINA RESULT:      -8.1      3.300     10.816
REMARK  6 active torsions:
REMARK  status: ('A' for Active; 'I' for Inactive)
REMARK    1  A    between atoms: C_2  and  C_3 
REMARK       I    between atoms: C_3  and  N_4 
REMARK    2  A    between atoms: N_4  and  C_5 
REMARK    3  A    between atoms: C_7  and  N_8 
REMARK       I    between atoms: N_8  and  C_9 
REMARK    4  A    between atoms: C_9  and  C_10 
REMARK    5  A    between atoms: C_13  and  C_14 
REMARK    6  A    between atoms: C_14  and  C_15 
ROOT
HETATM    1  N   UNL     1      -1.385   6.103 -29.966  1.00  0.00    -0.322 N 
HETATM    2  C   UNL     1      -0.204   5.887 -29.278  1.00  0.00     0.256 C 
HETATM    3  O   UNL     1       0.597   4.981 -29.471  1.00  0.00    -0.267 OA
HETATM    4  H   UNL     1      -1.977   6.846 -29.633  1.00  0.00     0.169 HD
ENDROOT
BRANCH   1   5
HETATM    5  C   UNL     1      -1.819   5.468 -31.160  1.00  0.00     0.043 A 
HETATM    6  C   UNL     1      -2.709   4.381 -31.153  1.00  0.00     0.059 A 
HETATM    7  C   UNL     1      -3.020   3.690 -32.330  1.00  0.00     0.036 A 
HETATM    8  C   UNL     1      -2.455   4.118 -33.535  1.00  0.00     0.030 A 
HETATM    9  C   UNL     1      -1.597   5.217 -33.564  1.00  0.00     0.011 A 
HETATM   10  C   UNL     1      -1.267   5.900 -32.386  1.00  0.00    -0.035 A 
HETATM   11  C   UNL     1      -0.323   7.068 -32.482  1.00  0.00     0.050 C 
BRANCH   7  12
HETATM   12  N   UNL     1      -3.826   2.531 -32.386  1.00  0.00    -0.327 N 
HETATM   13  C   UNL     1      -3.570   1.294 -31.825  1.00  0.00     0.221 C 
HETATM   14  O   UNL     1      -2.631   1.014 -31.087  1.00  0.00    -0.273 OA
HETATM   15  H   UNL     1      -4.700   2.638 -32.878  1.00  0.00     0.169 HD
BRANCH  13  16
HETATM   16  C   UNL     1      -4.528   0.193 -32.263  1.00  0.00     0.098 C 
HETATM   17  C   UNL     1      -3.931  -0.893 -33.140  1.00  0.00     0.014 C 
ENDBRANCH  13  16
ENDBRANCH   7  12
ENDBRANCH   1   5
BRANCH   2  18
HETATM   18  C   UNL     1       0.122   6.891 -28.220  1.00  0.00     0.032 A 
HETATM   19  C   UNL     1      -0.464   6.884 -26.949  1.00  0.00     0.017 A 
HETATM   20  C   UNL     1      -0.155   7.890 -26.029  1.00  0.00     0.008 A 
HETATM   21  C   UNL     1       0.750   8.912 -26.359  1.00  0.00    -0.051 A 
HETATM   22  C   UNL     1       1.365   8.890 -27.619  1.00  0.00     0.008 A 
HETATM   23  C   UNL     1       1.055   7.888 -28.539  1.00  0.00     0.017 A 
BRANCH  21  24
HETATM   24  C   UNL     1       1.068  10.012 -25.372  1.00  0.00     0.120 C 
BRANCH  24  25
HETATM   25  C   UNL     1       1.971   9.417 -24.353  1.00  0.00     0.151 A 
HETATM   26  N   UNL     1       3.036   8.662 -24.667  1.00  0.00    -0.158 NA
HETATM   27  N   UNL     1       3.515   8.355 -23.450  1.00  0.00    -0.270 N 
HETATM   28  H   UNL     1       4.353   7.793 -23.372  1.00  0.00     0.190 HD
HETATM   29  C   UNL     1       2.737   8.879 -22.468  1.00  0.00     0.227 A 
HETATM   30  N   UNL     1       1.742   9.543 -23.003  1.00  0.00    -0.225 NA
ENDBRANCH  24  25
ENDBRANCH  21  24
ENDBRANCH   2  18
TORSDOF 6
ENDMDL
MODEL 5
REMARK VINA RESULT:      -8.1      3.438      9.443
REMARK  6 active torsions:
REMARK  status: ('A' for Active; 'I' for Inactive)
REMARK    1  A    between atoms: C_2  and  C_3 
REMARK       I    between atoms: C_3  and  N_4 
REMARK    2  A    between atoms: N_4  and  C_5 
REMARK    3  A    between atoms: C_7  and  N_8 
REMARK       I    between atoms: N_8  and  C_9 
REMARK    4  A    between atoms: C_9  and  C_10 
REMARK    5  A    between atoms: C_13  and  C_14 
REMARK    6  A    between atoms: C_14  and  C_15 
ROOT
HETATM    1  N   UNL     1      -5.483   2.623 -32.872  1.00  0.00    -0.322 N 
HETATM    2  C   UNL     1      -5.130   3.790 -33.525  1.00  0.00     0.256 C 
HETATM    3  O   UNL     1      -5.729   4.316 -34.455  1.00  0.00    -0.267 OA
HETATM    4  H   UNL     1      -4.841   2.275 -32.179  1.00  0.00     0.169 HD
ENDROOT
BRANCH   1   5
HETATM    5  C   UNL     1      -6.703   1.904 -32.985  1.00  0.00     0.043 A 
HETATM    6  C   UNL     1      -7.952   2.495 -32.724  1.00  0.00     0.059 A 
HETATM    7  C   UNL     1      -9.127   1.735 -32.716  1.00  0.00     0.036 A 
HETATM    8  C   UNL     1      -9.051   0.370 -33.007  1.00  0.00     0.030 A 
HETATM    9  C   UNL     1      -7.825  -0.225 -33.302  1.00  0.00     0.011 A 
HETATM   10  C   UNL     1      -6.642   0.527 -33.292  1.00  0.00    -0.035 A 
HETATM   11  C   UNL     1      -5.349  -0.177 -33.605  1.00  0.00     0.050 C 
BRANCH   7  12
HETATM   12  N   UNL     1     -10.400   2.237 -32.366  1.00  0.00    -0.327 N 
HETATM   13  C   UNL     1     -11.401   2.670 -33.214  1.00  0.00     0.221 C 
HETATM   14  O   UNL     1     -11.394   2.599 -34.439  1.00  0.00    -0.273 OA
HETATM   15  H   UNL     1     -10.598   2.257 -31.377  1.00  0.00     0.169 HD
BRANCH  13  16
HETATM   16  C   UNL     1     -12.562   3.368 -32.515  1.00  0.00     0.098 C 
HETATM   17  C   UNL     1     -13.920   2.709 -32.671  1.00  0.00     0.014 C 
ENDBRANCH  13  16
ENDBRANCH   7  12
ENDBRANCH   1   5
BRANCH   2  18
HETATM   18  C   UNL     1      -3.909   4.478 -33.005  1.00  0.00     0.032 A 
HETATM   19  C   UNL     1      -3.867   5.138 -31.771  1.00  0.00     0.017 A 
HETATM   20  C   UNL     1      -2.707   5.811 -31.375  1.00  0.00     0.008 A 
HETATM   21  C   UNL     1      -1.570   5.828 -32.199  1.00  0.00    -0.051 A 
HETATM   22  C   UNL     1      -1.605   5.129 -33.414  1.00  0.00     0.008 A 
HETATM   23  C   UNL     1      -2.763   4.461 -33.812  1.00  0.00     0.017 A 
BRANCH  21  24
HETATM   24  C   UNL     1      -0.323   6.573 -31.780  1.00  0.00     0.120 C 
BRANCH  24  25
HETATM   25  C   UNL     1       0.207   5.869 -30.583  1.00  0.00     0.151 A 
HETATM   26  N   UNL     1       0.674   4.611 -30.617  1.00  0.00    -0.158 NA
HETATM   27  N   UNL     1       1.018   4.418 -29.333  1.00  0.00    -0.270 N 
HETATM   28  H   UNL     1       1.430   3.537 -29.055  1.00  0.00     0.190 HD
HETATM   29  C   UNL     1       0.727   5.507 -28.576  1.00  0.00     0.227 A 
HETATM   30  N   UNL     1       0.198   6.439 -29.331  1.00  0.00    -0.225 NA
ENDBRANCH  24  25
ENDBRANCH  21  24
ENDBRANCH   2  18
TORSDOF 6
ENDMDL
MODEL 6
REMARK VINA RESULT:      -8.0      2.999      9.523
REMARK  6 active torsions:
REMARK  status: ('A' for Active; 'I' for Inactive)
REMARK    1  A    between atoms: C_2  and  C_3 
REMARK       I    between atoms: C_3  and  N_4 
REMARK    2  A    between atoms: N_4  and  C_5 
REMARK    3  A    between atoms: C_7  and  N_8 
REMARK       I    between atoms: N_8  and  C_9 
REMARK    4  A    between atoms: C_9  and  C_10 
REMARK    5  A    between atoms: C_13  and  C_14 
REMARK    6  A    between atoms: C_14  and  C_15 
ROOT
HETATM    1  N   UNL     1      -4.995   2.658 -33.108  1.00  0.00    -0.322 N 
HETATM    2  C   UNL     1      -4.855   3.920 -33.658  1.00  0.00     0.256 C 
HETATM    3  O   UNL     1      -5.639   4.475 -34.418  1.00  0.00    -0.267 OA
HETATM    4  H   UNL     1      -4.222   2.309 -32.565  1.00  0.00     0.169 HD
ENDROOT
BRANCH   1   5
HETATM    5  C   UNL     1      -6.148   1.829 -33.128  1.00  0.00     0.043 A 
HETATM    6  C   UNL     1      -7.253   2.096 -33.954  1.00  0.00     0.059 A 
HETATM    7  C   UNL     1      -8.428   1.341 -33.861  1.00  0.00     0.036 A 
HETATM    8  C   UNL     1      -8.480   0.282 -32.951  1.00  0.00     0.030 A 
HETATM    9  C   UNL     1      -7.381  -0.019 -32.149  1.00  0.00     0.011 A 
HETATM   10  C   UNL     1      -6.208   0.746 -32.223  1.00  0.00    -0.035 A 
HETATM   11  C   UNL     1      -5.062   0.380 -31.320  1.00  0.00     0.050 C 
BRANCH   7  12
HETATM   12  N   UNL     1      -9.610   1.612 -34.586  1.00  0.00    -0.327 N 
HETATM   13  C   UNL     1     -10.785   2.165 -34.113  1.00  0.00     0.221 C 
HETATM   14  O   UNL     1     -10.972   2.613 -32.987  1.00  0.00    -0.273 OA
HETATM   15  H   UNL     1      -9.571   1.392 -35.570  1.00  0.00     0.169 HD
BRANCH  13  16
HETATM   16  C   UNL     1     -11.947   2.112 -35.097  1.00  0.00     0.098 C 
HETATM   17  C   UNL     1     -13.102   1.207 -34.708  1.00  0.00     0.014 C 
ENDBRANCH  13  16
ENDBRANCH   7  12
ENDBRANCH   1   5
BRANCH   2  18
HETATM   18  C   UNL     1      -3.635   4.675 -33.243  1.00  0.00     0.032 A 
HETATM   19  C   UNL     1      -2.495   4.793 -34.046  1.00  0.00     0.017 A 
HETATM   20  C   UNL     1      -1.366   5.466 -33.568  1.00  0.00     0.008 A 
HETATM   21  C   UNL     1      -1.361   6.040 -32.286  1.00  0.00    -0.051 A 
HETATM   22  C   UNL     1      -2.521   5.955 -31.503  1.00  0.00     0.008 A 
HETATM   23  C   UNL     1      -3.647   5.281 -31.978  1.00  0.00     0.017 A 
BRANCH  21  24
HETATM   24  C   UNL     1      -0.134   6.749 -31.761  1.00  0.00     0.120 C 
BRANCH  24  25
HETATM   25  C   UNL     1       0.332   5.971 -30.584  1.00  0.00     0.151 A 
HETATM   26  N   UNL     1       0.774   4.706 -30.668  1.00  0.00    -0.158 NA
HETATM   27  N   UNL     1       1.061   4.437 -29.384  1.00  0.00    -0.270 N 
HETATM   28  H   UNL     1       1.444   3.533 -29.138  1.00  0.00     0.190 HD
HETATM   29  C   UNL     1       0.761   5.490 -28.581  1.00  0.00     0.227 A 
HETATM   30  N   UNL     1       0.283   6.472 -29.304  1.00  0.00    -0.225 NA
ENDBRANCH  24  25
ENDBRANCH  21  24
ENDBRANCH   2  18
TORSDOF 6
ENDMDL
MODEL 7
REMARK VINA RESULT:      -8.0      4.551      8.139
REMARK  6 active torsions:
REMARK  status: ('A' for Active; 'I' for Inactive)
REMARK    1  A    between atoms: C_2  and  C_3 
REMARK       I    between atoms: C_3  and  N_4 
REMARK    2  A    between atoms: N_4  and  C_5 
REMARK    3  A    between atoms: C_7  and  N_8 
REMARK       I    between atoms: N_8  and  C_9 
REMARK    4  A    between atoms: C_9  and  C_10 
REMARK    5  A    between atoms: C_13  and  C_14 
REMARK    6  A    between atoms: C_14  and  C_15 
ROOT
HETATM    1  N   UNL     1       0.917   8.074 -28.000  1.00  0.00    -0.322 N 
HETATM    2  C   UNL     1       0.240   6.884 -28.199  1.00  0.00     0.256 C 
HETATM    3  O   UNL     1      -0.103   6.086 -27.335  1.00  0.00    -0.267 OA
HETATM    4  H   UNL     1       1.201   8.581 -28.822  1.00  0.00     0.169 HD
ENDROOT
BRANCH   1   5
HETATM    5  C   UNL     1       1.172   8.727 -26.765  1.00  0.00     0.043 A 
HETATM    6  C   UNL     1       2.143   8.269 -25.858  1.00  0.00     0.059 A 
HETATM    7  C   UNL     1       2.287   8.850 -24.592  1.00  0.00     0.036 A 
HETATM    8  C   UNL     1       1.466   9.928 -24.247  1.00  0.00     0.030 A 
HETATM    9  C   UNL     1       0.521  10.417 -25.148  1.00  0.00     0.011 A 
HETATM   10  C   UNL     1       0.360   9.825 -26.409  1.00  0.00    -0.035 A 
HETATM   11  C   UNL     1      -0.688  10.390 -27.330  1.00  0.00     0.050 C 
BRANCH   7  12
HETATM   12  N   UNL     1       3.170   8.382 -23.594  1.00  0.00    -0.327 N 
HETATM   13  C   UNL     1       4.483   8.756 -23.383  1.00  0.00     0.221 C 
HETATM   14  O   UNL     1       5.087   9.645 -23.974  1.00  0.00    -0.273 OA
HETATM   15  H   UNL     1       2.776   7.711 -22.951  1.00  0.00     0.169 HD
BRANCH  13  16
HETATM   16  C   UNL     1       5.228   7.896 -22.369  1.00  0.00     0.098 C 
HETATM   17  C   UNL     1       5.068   8.300 -20.915  1.00  0.00     0.014 C 
ENDBRANCH  13  16
ENDBRANCH   7  12
ENDBRANCH   1   5
BRANCH   2  18
HETATM   18  C   UNL     1      -0.128   6.579 -29.615  1.00  0.00     0.032 A 
HETATM   19  C   UNL     1       0.344   5.456 -30.306  1.00  0.00     0.017 A 
HETATM   20  C   UNL     1       0.004   5.266 -31.649  1.00  0.00     0.008 A 
HETATM   21  C   UNL     1      -0.818   6.186 -32.319  1.00  0.00    -0.051 A 
HETATM   22  C   UNL     1      -1.322   7.285 -31.610  1.00  0.00     0.008 A 
HETATM   23  C   UNL     1      -0.981   7.478 -30.271  1.00  0.00     0.017 A 
BRANCH  21  24
HETATM   24  C   UNL     1      -1.168   5.991 -33.777  1.00  0.00     0.120 C 
BRANCH  24  25
HETATM   25  C   UNL     1      -2.533   5.404 -33.809  1.00  0.00     0.151 A 
HETATM   26  N   UNL     1      -2.852   4.254 -33.193  1.00  0.00    -0.158 NA
HETATM   27  N   UNL     1      -4.152   4.134 -33.508  1.00  0.00    -0.270 N 
HETATM   28  H   UNL     1      -4.680   3.346 -33.154  1.00  0.00     0.190 HD
HETATM   29  C   UNL     1      -4.562   5.153 -34.306  1.00  0.00     0.227 A 
HETATM   30  N   UNL     1      -3.560   5.967 -34.530  1.00  0.00    -0.225 NA
ENDBRANCH  24  25
ENDBRANCH  21  24
ENDBRANCH   2  18
TORSDOF 6
ENDMDL
MODEL 8
REMARK VINA RESULT:      -7.8      6.397      9.113
REMARK  6 active torsions:
REMARK  status: ('A' for Active; 'I' for Inactive)
REMARK    1  A    between atoms: C_2  and  C_3 
REMARK       I    between atoms: C_3  and  N_4 
REMARK    2  A    between atoms: N_4  and  C_5 
REMARK    3  A    between atoms: C_7  and  N_8 
REMARK       I    between atoms: N_8  and  C_9 
REMARK    4  A    between atoms: C_9  and  C_10 
REMARK    5  A    between atoms: C_13  and  C_14 
REMARK    6  A    between atoms: C_14  and  C_15 
ROOT
HETATM    1  N   UNL     1      -9.078   2.268 -33.442  1.00  0.00    -0.322 N 
HETATM    2  C   UNL     1      -8.816   1.226 -32.570  1.00  0.00     0.256 C 
HETATM    3  O   UNL     1      -9.471   0.920 -31.581  1.00  0.00    -0.267 OA
HETATM    4  H   UNL     1      -8.398   2.442 -34.163  1.00  0.00     0.169 HD
ENDROOT
BRANCH   1   5
HETATM    5  C   UNL     1     -10.253   3.064 -33.509  1.00  0.00     0.043 A 
HETATM    6  C   UNL     1     -11.537   2.527 -33.315  1.00  0.00     0.059 A 
HETATM    7  C   UNL     1     -12.686   3.302 -33.515  1.00  0.00     0.036 A 
HETATM    8  C   UNL     1     -12.541   4.643 -33.880  1.00  0.00     0.030 A 
HETATM    9  C   UNL     1     -11.273   5.201 -34.043  1.00  0.00     0.011 A 
HETATM   10  C   UNL     1     -10.120   4.424 -33.864  1.00  0.00    -0.035 A 
HETATM   11  C   UNL     1      -8.781   5.080 -34.070  1.00  0.00     0.050 C 
BRANCH   7  12
HETATM   12  N   UNL     1     -14.006   2.807 -33.435  1.00  0.00    -0.327 N 
HETATM   13  C   UNL     1     -14.891   2.919 -32.380  1.00  0.00     0.221 C 
HETATM   14  O   UNL     1     -14.712   3.564 -31.351  1.00  0.00    -0.273 OA
HETATM   15  H   UNL     1     -14.340   2.337 -34.264  1.00  0.00     0.169 HD
BRANCH  13  16
HETATM   16  C   UNL     1     -16.153   2.078 -32.522  1.00  0.00     0.098 C 
HETATM   17  C   UNL     1     -17.431   2.709 -31.999  1.00  0.00     0.014 C 
ENDBRANCH  13  16
ENDBRANCH   7  12
ENDBRANCH   1   5
BRANCH   2  18
HETATM   18  C   UNL     1      -7.628   0.384 -32.908  1.00  0.00     0.032 A 
HETATM   19  C   UNL     1      -6.771  -0.157 -31.942  1.00  0.00     0.017 A 
HETATM   20  C   UNL     1      -5.645  -0.887 -32.334  1.00  0.00     0.008 A 
HETATM   21  C   UNL     1      -5.362  -1.096 -33.694  1.00  0.00    -0.051 A 
HETATM   22  C   UNL     1      -6.248  -0.588 -34.655  1.00  0.00     0.008 A 
HETATM   23  C   UNL     1      -7.370   0.143 -34.265  1.00  0.00     0.017 A 
BRANCH  21  24
HETATM   24  C   UNL     1      -4.133  -1.868 -34.118  1.00  0.00     0.120 C 
BRANCH  24  25
HETATM   25  C   UNL     1      -4.553  -3.286 -34.262  1.00  0.00     0.151 A 
HETATM   26  N   UNL     1      -3.835  -4.316 -33.790  1.00  0.00    -0.158 NA
HETATM   27  N   UNL     1      -4.591  -5.363 -34.160  1.00  0.00    -0.270 N 
HETATM   28  H   UNL     1      -4.299  -6.300 -33.915  1.00  0.00     0.190 HD
HETATM   29  C   UNL     1      -5.686  -4.958 -34.854  1.00  0.00     0.227 A 
HETATM   30  N   UNL     1      -5.686  -3.651 -34.951  1.00  0.00    -0.225 NA
ENDBRANCH  24  25
ENDBRANCH  21  24
ENDBRANCH   2  18
TORSDOF 6
ENDMDL
MODEL 9
REMARK VINA RESULT:      -7.7      4.916      6.558
REMARK  6 active torsions:
REMARK  status: ('A' for Active; 'I' for Inactive)
REMARK    1  A    between atoms: C_2  and  C_3 
REMARK       I    between atoms: C_3  and  N_4 
REMARK    2  A    between atoms: N_4  and  C_5 
REMARK    3  A    between atoms: C_7  and  N_8 
REMARK       I    between atoms: N_8  and  C_9 
REMARK    4  A    between atoms: C_9  and  C_10 
REMARK    5  A    between atoms: C_13  and  C_14 
REMARK    6  A    between atoms: C_14  and  C_15 
ROOT
HETATM    1  N   UNL     1      -7.261   2.017 -32.275  1.00  0.00    -0.322 N 
HETATM    2  C   UNL     1      -7.706   1.881 -33.578  1.00  0.00     0.256 C 
HETATM    3  O   UNL     1      -7.012   1.870 -34.588  1.00  0.00    -0.267 OA
HETATM    4  H   UNL     1      -7.965   2.090 -31.558  1.00  0.00     0.169 HD
ENDROOT
BRANCH   1   5
HETATM    5  C   UNL     1      -5.921   1.962 -31.808  1.00  0.00     0.043 A 
HETATM    6  C   UNL     1      -5.150   3.117 -31.595  1.00  0.00     0.059 A 
HETATM    7  C   UNL     1      -3.794   3.033 -31.260  1.00  0.00     0.036 A 
HETATM    8  C   UNL     1      -3.213   1.772 -31.104  1.00  0.00     0.030 A 
HETATM    9  C   UNL     1      -3.972   0.615 -31.278  1.00  0.00     0.011 A 
HETATM   10  C   UNL     1      -5.326   0.693 -31.633  1.00  0.00    -0.035 A 
HETATM   11  C   UNL     1      -6.087  -0.591 -31.821  1.00  0.00     0.050 C 
BRANCH   7  12
HETATM   12  N   UNL     1      -2.934   4.146 -31.128  1.00  0.00    -0.327 N 
HETATM   13  C   UNL     1      -2.074   4.669 -32.074  1.00  0.00     0.221 C 
HETATM   14  O   UNL     1      -1.981   4.312 -33.244  1.00  0.00    -0.273 OA
HETATM   15  H   UNL     1      -2.979   4.621 -30.238  1.00  0.00     0.169 HD
BRANCH  13  16
HETATM   16  C   UNL     1      -1.118   5.730 -31.541  1.00  0.00     0.098 C 
HETATM   17  C   UNL     1       0.282   5.250 -31.206  1.00  0.00     0.014 C 
ENDBRANCH  13  16
ENDBRANCH   7  12
ENDBRANCH   1   5
BRANCH   2  18
HETATM   18  C   UNL     1      -9.179   1.697 -33.743  1.00  0.00     0.032 A 
HETATM   19  C   UNL     1      -9.893   0.647 -33.152  1.00  0.00     0.017 A 
HETATM   20  C   UNL     1     -11.262   0.504 -33.398  1.00  0.00     0.008 A 
HETATM   21  C   UNL     1     -11.941   1.409 -34.230  1.00  0.00    -0.051 A 
HETATM   22  C   UNL     1     -11.229   2.483 -34.784  1.00  0.00     0.008 A 
HETATM   23  C   UNL     1      -9.862   2.625 -34.542  1.00  0.00     0.017 A 
BRANCH  21  24
HETATM   24  C   UNL     1     -13.417   1.242 -34.513  1.00  0.00     0.120 C 
BRANCH  24  25
HETATM   25  C   UNL     1     -14.138   1.913 -33.401  1.00  0.00     0.151 A 
HETATM   26  N   UNL     1     -13.730   3.068 -32.851  1.00  0.00    -0.158 NA
HETATM   27  N   UNL     1     -14.667   3.262 -31.909  1.00  0.00    -0.270 N 
HETATM   28  H   UNL     1     -14.627   4.092 -31.330  1.00  0.00     0.190 HD
HETATM   29  C   UNL     1     -15.563   2.242 -31.888  1.00  0.00     0.227 A 
HETATM   30  N   UNL     1     -15.251   1.363 -32.808  1.00  0.00    -0.225 NA
ENDBRANCH  24  25
ENDBRANCH  21  24
ENDBRANCH   2  18
TORSDOF 6
ENDMDL
MODEL 10
REMARK VINA RESULT:      -7.6      2.554      9.928
REMARK  6 active torsions:
REMARK  status: ('A' for Active; 'I' for Inactive)
REMARK    1  A    between atoms: C_2  and  C_3 
REMARK       I    between atoms: C_3  and  N_4 
REMARK    2  A    between atoms: N_4  and  C_5 
REMARK    3  A    between atoms: C_7  and  N_8 
REMARK       I    between atoms: N_8  and  C_9 
REMARK    4  A    between atoms: C_9  and  C_10 
REMARK    5  A    between atoms: C_13  and  C_14 
REMARK    6  A    between atoms: C_14  and  C_15 
ROOT
HETATM    1  N   UNL     1      -3.236   4.327 -31.257  1.00  0.00    -0.322 N 
HETATM    2  C   UNL     1      -2.013   4.778 -31.721  1.00  0.00     0.256 C 
HETATM    3  O   UNL     1      -1.510   4.531 -32.810  1.00  0.00    -0.267 OA
HETATM    4  H   UNL     1      -3.474   4.551 -30.305  1.00  0.00     0.169 HD
ENDROOT
BRANCH   1   5
HETATM    5  C   UNL     1      -4.253   3.670 -32.000  1.00  0.00     0.043 A 
HETATM    6  C   UNL     1      -4.432   2.277 -31.961  1.00  0.00     0.059 A 
HETATM    7  C   UNL     1      -5.354   1.639 -32.799  1.00  0.00     0.036 A 
HETATM    8  C   UNL     1      -6.131   2.416 -33.663  1.00  0.00     0.030 A 
HETATM    9  C   UNL     1      -5.991   3.803 -33.689  1.00  0.00     0.011 A 
HETATM   10  C   UNL     1      -5.055   4.444 -32.866  1.00  0.00    -0.035 A 
HETATM   11  C   UNL     1      -4.941   5.943 -32.952  1.00  0.00     0.050 C 
BRANCH   7  12
HETATM   12  N   UNL     1      -5.518   0.239 -32.887  1.00  0.00    -0.327 N 
HETATM   13  C   UNL     1      -4.588  -0.699 -33.291  1.00  0.00     0.221 C 
HETATM   14  O   UNL     1      -3.409  -0.483 -33.554  1.00  0.00    -0.273 OA
HETATM   15  H   UNL     1      -6.420  -0.107 -32.595  1.00  0.00     0.169 HD
BRANCH  13  16
HETATM   16  C   UNL     1      -5.152  -2.100 -33.493  1.00  0.00     0.098 C 
HETATM   17  C   UNL     1      -5.309  -2.548 -34.935  1.00  0.00     0.014 C 
ENDBRANCH  13  16
ENDBRANCH   7  12
ENDBRANCH   1   5
BRANCH   2  18
HETATM   18  C   UNL     1      -1.264   5.682 -30.797  1.00  0.00     0.032 A 
HETATM   19  C   UNL     1      -1.593   7.030 -30.608  1.00  0.00     0.017 A 
HETATM   20  C   UNL     1      -0.811   7.832 -29.770  1.00  0.00     0.008 A 
HETATM   21  C   UNL     1       0.304   7.300 -29.103  1.00  0.00    -0.051 A 
HETATM   22  C   UNL     1       0.603   5.940 -29.263  1.00  0.00     0.008 A 
HETATM   23  C   UNL     1      -0.175   5.139 -30.101  1.00  0.00     0.017 A 
BRANCH  21  24
HETATM   24  C   UNL     1       1.162   8.172 -28.214  1.00  0.00     0.120 C 
BRANCH  24  25
HETATM   25  C   UNL     1       0.263   8.719 -27.165  1.00  0.00     0.151 A 
HETATM   26  N   UNL     1       0.027  10.031 -27.011  1.00  0.00    -0.158 NA
HETATM   27  N   UNL     1      -0.811  10.032 -25.961  1.00  0.00    -0.270 N 
HETATM   28  H   UNL     1      -1.183  10.910 -25.622  1.00  0.00     0.190 HD
HETATM   29  C   UNL     1      -1.023   8.772 -25.500  1.00  0.00     0.227 A 
HETATM   30  N   UNL     1      -0.346   7.918 -26.227  1.00  0.00    -0.225 NA
ENDBRANCH  24  25
ENDBRANCH  21  24
ENDBRANCH   2  18
TORSDOF 6
ENDMDL
