MODEL 1
REMARK VINA RESULT:      -9.1      0.000      0.000
REMARK  7 active torsions:
REMARK  status: ('A' for Active; 'I' for Inactive)
REMARK    1  A    between atoms: C_2  and  C_3 
REMARK    2  A    between atoms: C_3  and  N_4 
REMARK    3  A    between atoms: C_10  and  N_11 
REMARK       I    between atoms: N_11  and  C_12 
REMARK    4  A    between atoms: C_12  and  C_13 
REMARK    5  A    between atoms: C_13  and  N_14 
REMARK       I    between atoms: N_14  and  C_15 
REMARK       I    between atoms: C_15  and  N_16 
REMARK    6  A    between atoms: N_16  and  C_17 
REMARK    7  A    between atoms: C_17  and  C_18 
ROOT
HETATM    1  N   UNL     1      -5.544   3.273 -32.500  1.00  0.00    -0.325 N 
HETATM    2  C   UNL     1      -5.609   1.914 -32.252  1.00  0.00     0.239 C 
HETATM    3  O   UNL     1      -4.778   1.090 -32.626  1.00  0.00    -0.271 OA
HETATM    4  H   UNL     1      -6.385   3.797 -32.257  1.00  0.00     0.169 HD
ENDROOT
BRANCH   2   5
HETATM    5  C   UNL     1      -6.888   1.477 -31.534  1.00  0.00     0.227 C 
BRANCH   5   6
HETATM    6  N   UNL     1      -8.055   1.499 -32.402  1.00  0.00    -0.334 N 
HETATM    7  C   UNL     1      -8.074   0.876 -33.616  1.00  0.00     0.316 C 
HETATM    8  N   UNL     1      -7.446  -0.333 -33.636  1.00  0.00    -0.339 N 
HETATM    9  O   UNL     1      -8.591   1.414 -34.583  1.00  0.00    -0.247 OA
HETATM   10  H   UNL     1      -7.805  -0.950 -32.920  1.00  0.00     0.164 HD
HETATM   11  H   UNL     1      -8.522   2.397 -32.473  1.00  0.00     0.164 HD
BRANCH   8  12
HETATM   12  C   UNL     1      -7.149  -0.976 -34.901  1.00  0.00     0.162 C 
BRANCH  12  13
HETATM   13  C   UNL     1      -6.293  -2.190 -34.641  1.00  0.00    -0.040 A 
HETATM   14  C   UNL     1      -4.984  -2.070 -34.156  1.00  0.00     0.012 A 
HETATM   15  C   UNL     1      -4.202  -3.210 -33.952  1.00  0.00     0.043 A 
HETATM   16  C   UNL     1      -4.732  -4.467 -34.227  1.00  0.00     0.116 A 
HETATM   17  F   UNL     1      -3.975  -5.556 -34.040  1.00  0.00    -0.206 F 
HETATM   18  C   UNL     1      -6.030  -4.609 -34.696  1.00  0.00     0.043 A 
HETATM   19  C   UNL     1      -6.812  -3.473 -34.902  1.00  0.00     0.012 A 
ENDBRANCH  12  13
ENDBRANCH   8  12
ENDBRANCH   5   6
ENDBRANCH   2   5
BRANCH   1  20
HETATM   20  C   UNL     1      -4.545   3.993 -33.190  1.00  0.00     0.043 A 
HETATM   21  C   UNL     1      -3.261   4.294 -32.738  1.00  0.00     0.002 A 
HETATM   22  C   UNL     1      -2.591   4.004 -31.434  1.00  0.00     0.276 C 
HETATM   23  C   UNL     1      -2.370   5.025 -33.548  1.00  0.00    -0.022 A 
HETATM   24  N   UNL     1      -1.307   4.849 -31.405  1.00  0.00    -0.063 N 
HETATM   25  H   UNL     1      -0.538   4.230 -31.131  1.00  0.00     0.280 HD
HETATM   26  C   UNL     1      -1.071   5.253 -32.852  1.00  0.00     0.274 C 
HETATM   27  C   UNL     1      -2.719   5.456 -34.817  1.00  0.00     0.009 A 
HETATM   28  C   UNL     1      -4.003   5.180 -35.270  1.00  0.00     0.003 A 
HETATM   29  C   UNL     1      -4.905   4.473 -34.461  1.00  0.00     0.030 A 
BRANCH  24  30
HETATM   30  C   UNL     1      -1.355   6.027 -30.471  1.00  0.00     0.239 C 
BRANCH  30  31
HETATM   31  C   UNL     1      -0.210   6.025 -29.443  1.00  0.00     0.003 C 
HETATM   32  C   UNL     1       0.517   7.372 -29.501  1.00  0.00     0.011 C 
HETATM   33  C   UNL     1       0.791   4.891 -29.664  1.00  0.00     0.011 C 
ENDBRANCH  30  31
ENDBRANCH  24  30
ENDBRANCH   1  20
TORSDOF 7
ENDMDL
MODEL 2
REMARK VINA RESULT:      -9.1      1.720      2.349
REMARK  7 active torsions:
REMARK  status: ('A' for Active; 'I' for Inactive)
REMARK    1  A    between atoms: C_2  and  C_3 
REMARK    2  A    between atoms: C_3  and  N_4 
REMARK    3  A    between atoms: C_10  and  N_11 
REMARK       I    between atoms: N_11  and  C_12 
REMARK    4  A    between atoms: C_12  and  C_13 
REMARK    5  A    between atoms: C_13  and  N_14 
REMARK       I    between atoms: N_14  and  C_15 
REMARK       I    between atoms: C_15  and  N_16 
REMARK    6  A    between atoms: N_16  and  C_17 
REMARK    7  A    between atoms: C_17  and  C_18 
ROOT
HETATM    1  N   UNL     1      -2.847   3.450 -31.958  1.00  0.00    -0.325 N 
HETATM    2  C   UNL     1      -4.039   3.359 -31.263  1.00  0.00     0.239 C 
HETATM    3  O   UNL     1      -4.708   4.317 -30.884  1.00  0.00    -0.271 OA
HETATM    4  H   UNL     1      -2.340   2.571 -32.064  1.00  0.00     0.169 HD
ENDROOT
BRANCH   2   5
HETATM    5  C   UNL     1      -4.434   1.925 -30.900  1.00  0.00     0.227 C 
BRANCH   5   6
HETATM    6  N   UNL     1      -5.874   1.719 -30.911  1.00  0.00    -0.334 N 
HETATM    7  C   UNL     1      -6.534   1.237 -32.003  1.00  0.00     0.316 C 
HETATM    8  N   UNL     1      -5.872   0.249 -32.669  1.00  0.00    -0.339 N 
HETATM    9  O   UNL     1      -7.609   1.709 -32.339  1.00  0.00    -0.247 OA
HETATM   10  H   UNL     1      -5.618  -0.509 -32.050  1.00  0.00     0.164 HD
HETATM   11  H   UNL     1      -6.418   2.460 -30.484  1.00  0.00     0.164 HD
BRANCH   8  12
HETATM   12  C   UNL     1      -6.315  -0.162 -33.987  1.00  0.00     0.162 C 
BRANCH  12  13
HETATM   13  C   UNL     1      -5.940  -1.607 -34.198  1.00  0.00    -0.040 A 
HETATM   14  C   UNL     1      -4.623  -2.053 -34.017  1.00  0.00     0.012 A 
HETATM   15  C   UNL     1      -4.297  -3.392 -34.248  1.00  0.00     0.043 A 
HETATM   16  C   UNL     1      -5.285  -4.282 -34.653  1.00  0.00     0.116 A 
HETATM   17  F   UNL     1      -4.965  -5.562 -34.884  1.00  0.00    -0.206 F 
HETATM   18  C   UNL     1      -6.597  -3.864 -34.828  1.00  0.00     0.043 A 
HETATM   19  C   UNL     1      -6.926  -2.529 -34.599  1.00  0.00     0.012 A 
ENDBRANCH  12  13
ENDBRANCH   8  12
ENDBRANCH   5   6
ENDBRANCH   2   5
BRANCH   1  20
HETATM   20  C   UNL     1      -2.168   4.611 -32.389  1.00  0.00     0.043 A 
HETATM   21  C   UNL     1      -1.118   5.259 -31.744  1.00  0.00     0.002 A 
HETATM   22  C   UNL     1      -0.446   4.972 -30.439  1.00  0.00     0.276 C 
HETATM   23  C   UNL     1      -0.537   6.414 -32.302  1.00  0.00    -0.022 A 
HETATM   24  N   UNL     1       0.417   6.202 -30.112  1.00  0.00    -0.063 N 
HETATM   25  H   UNL     1       1.351   5.864 -29.860  1.00  0.00     0.280 HD
HETATM   26  C   UNL     1       0.546   6.951 -31.429  1.00  0.00     0.274 C 
HETATM   27  C   UNL     1      -0.967   6.938 -33.510  1.00  0.00     0.009 A 
HETATM   28  C   UNL     1      -2.027   6.313 -34.153  1.00  0.00     0.003 A 
HETATM   29  C   UNL     1      -2.627   5.176 -33.592  1.00  0.00     0.030 A 
BRANCH  24  30
HETATM   30  C   UNL     1      -0.118   7.062 -29.001  1.00  0.00     0.239 C 
BRANCH  30  31
HETATM   31  C   UNL     1       0.856   7.185 -27.815  1.00  0.00     0.003 C 
HETATM   32  C   UNL     1       0.120   6.818 -26.523  1.00  0.00     0.011 C 
HETATM   33  C   UNL     1       1.465   8.581 -27.682  1.00  0.00     0.011 C 
ENDBRANCH  30  31
ENDBRANCH  24  30
ENDBRANCH   1  20
TORSDOF 7
ENDMDL
MODEL 3
REMARK VINA RESULT:      -8.6      3.911      9.899
REMARK  7 active torsions:
REMARK  status: ('A' for Active; 'I' for Inactive)
REMARK    1  A    between atoms: C_2  and  C_3 
REMARK    2  A    between atoms: C_3  and  N_4 
REMARK    3  A    between atoms: C_10  and  N_11 
REMARK       I    between atoms: N_11  and  C_12 
REMARK    4  A    between atoms: C_12  and  C_13 
REMARK    5  A    between atoms: C_13  and  N_14 
REMARK       I    between atoms: N_14  and  C_15 
REMARK       I    between atoms: C_15  and  N_16 
REMARK    6  A    between atoms: N_16  and  C_17 
REMARK    7  A    between atoms: C_17  and  C_18 
ROOT
HETATM    1  N   UNL     1      -4.239   2.052 -32.365  1.00  0.00    -0.325 N 
HETATM    2  C   UNL     1      -4.699   2.860 -31.341  1.00  0.00     0.239 C 
HETATM    3  O   UNL     1      -5.732   2.670 -30.704  1.00  0.00    -0.271 OA
HETATM    4  H   UNL     1      -3.452   2.429 -32.893  1.00  0.00     0.169 HD
ENDROOT
BRANCH   2   5
HETATM    5  C   UNL     1      -3.846   4.110 -31.110  1.00  0.00     0.227 C 
BRANCH   5   6
HETATM    6  N   UNL     1      -2.423   3.859 -31.285  1.00  0.00    -0.334 N 
HETATM    7  C   UNL     1      -1.493   4.855 -31.220  1.00  0.00     0.316 C 
HETATM    8  N   UNL     1      -1.732   5.784 -30.252  1.00  0.00    -0.339 N 
HETATM    9  O   UNL     1      -0.560   4.888 -32.009  1.00  0.00    -0.247 OA
HETATM   10  H   UNL     1      -1.849   5.354 -29.345  1.00  0.00     0.164 HD
HETATM   11  H   UNL     1      -2.188   3.222 -32.038  1.00  0.00     0.164 HD
BRANCH   8  12
HETATM   12  C   UNL     1      -0.992   7.031 -30.245  1.00  0.00     0.162 C 
BRANCH  12  13
HETATM   13  C   UNL     1      -0.272   7.162 -28.926  1.00  0.00    -0.040 A 
HETATM   14  C   UNL     1      -0.679   6.438 -27.797  1.00  0.00     0.012 A 
HETATM   15  C   UNL     1      -0.012   6.601 -26.580  1.00  0.00     0.043 A 
HETATM   16  C   UNL     1       1.062   7.480 -26.495  1.00  0.00     0.116 A 
HETATM   17  F   UNL     1       1.690   7.641 -25.323  1.00  0.00    -0.206 F 
HETATM   18  C   UNL     1       1.489   8.199 -27.603  1.00  0.00     0.043 A 
HETATM   19  C   UNL     1       0.825   8.039 -28.819  1.00  0.00     0.012 A 
ENDBRANCH  12  13
ENDBRANCH   8  12
ENDBRANCH   5   6
ENDBRANCH   2   5
BRANCH   1  20
HETATM   20  C   UNL     1      -4.815   0.869 -32.877  1.00  0.00     0.043 A 
HETATM   21  C   UNL     1      -5.903   0.769 -33.742  1.00  0.00     0.002 A 
HETATM   22  C   UNL     1      -6.783   1.824 -34.332  1.00  0.00     0.276 C 
HETATM   23  C   UNL     1      -6.365  -0.491 -34.169  1.00  0.00    -0.022 A 
HETATM   24  N   UNL     1      -7.989   1.094 -34.944  1.00  0.00    -0.063 N 
HETATM   25  H   UNL     1      -8.117   1.454 -35.895  1.00  0.00     0.280 HD
HETATM   26  C   UNL     1      -7.550  -0.357 -35.064  1.00  0.00     0.274 C 
HETATM   27  C   UNL     1      -5.756  -1.668 -33.769  1.00  0.00     0.009 A 
HETATM   28  C   UNL     1      -4.684  -1.583 -32.889  1.00  0.00     0.003 A 
HETATM   29  C   UNL     1      -4.232  -0.333 -32.440  1.00  0.00     0.030 A 
BRANCH  24  30
HETATM   30  C   UNL     1      -9.272   1.254 -34.176  1.00  0.00     0.239 C 
BRANCH  30  31
HETATM   31  C   UNL     1      -9.442   0.201 -33.066  1.00  0.00     0.003 C 
HETATM   32  C   UNL     1     -10.912  -0.226 -33.002  1.00  0.00     0.011 C 
HETATM   33  C   UNL     1      -8.991   0.700 -31.693  1.00  0.00     0.011 C 
ENDBRANCH  30  31
ENDBRANCH  24  30
ENDBRANCH   1  20
TORSDOF 7
ENDMDL
MODEL 4
REMARK VINA RESULT:      -8.3      4.113     10.112
REMARK  7 active torsions:
REMARK  status: ('A' for Active; 'I' for Inactive)
REMARK    1  A    between atoms: C_2  and  C_3 
REMARK    2  A    between atoms: C_3  and  N_4 
REMARK    3  A    between atoms: C_10  and  N_11 
REMARK       I    between atoms: N_11  and  C_12 
REMARK    4  A    between atoms: C_12  and  C_13 
REMARK    5  A    between atoms: C_13  and  N_14 
REMARK       I    between atoms: N_14  and  C_15 
REMARK       I    between atoms: C_15  and  N_16 
REMARK    6  A    between atoms: N_16  and  C_17 
REMARK    7  A    between atoms: C_17  and  C_18 
ROOT
HETATM    1  N   UNL     1      -2.934   3.582 -31.290  1.00  0.00    -0.325 N 
HETATM    2  C   UNL     1      -2.684   4.520 -32.274  1.00  0.00     0.239 C 
HETATM    3  O   UNL     1      -3.503   4.902 -33.107  1.00  0.00    -0.271 OA
HETATM    4  H   UNL     1      -2.111   3.261 -30.779  1.00  0.00     0.169 HD
ENDROOT
BRANCH   2   5
HETATM    5  C   UNL     1      -1.231   4.999 -32.316  1.00  0.00     0.227 C 
BRANCH   5   6
HETATM    6  N   UNL     1      -1.102   6.361 -32.812  1.00  0.00    -0.334 N 
HETATM    7  C   UNL     1      -1.336   7.450 -32.024  1.00  0.00     0.316 C 
HETATM    8  N   UNL     1      -0.878   7.327 -30.746  1.00  0.00    -0.339 N 
HETATM    9  O   UNL     1      -1.941   8.416 -32.462  1.00  0.00    -0.247 OA
HETATM   10  H   UNL     1       0.103   7.082 -30.725  1.00  0.00     0.164 HD
HETATM   11  H   UNL     1      -1.488   6.520 -33.737  1.00  0.00     0.164 HD
BRANCH   8  12
HETATM   12  C   UNL     1      -1.292   8.277 -29.732  1.00  0.00     0.162 C 
BRANCH  12  13
HETATM   13  C   UNL     1      -0.313   8.222 -28.586  1.00  0.00    -0.040 A 
HETATM   14  C   UNL     1       0.453   7.075 -28.333  1.00  0.00     0.012 A 
HETATM   15  C   UNL     1       1.331   7.041 -27.247  1.00  0.00     0.043 A 
HETATM   16  C   UNL     1       1.447   8.154 -26.420  1.00  0.00     0.116 A 
HETATM   17  F   UNL     1       2.281   8.112 -25.374  1.00  0.00    -0.206 F 
HETATM   18  C   UNL     1       0.707   9.304 -26.659  1.00  0.00     0.043 A 
HETATM   19  C   UNL     1      -0.171   9.340 -27.742  1.00  0.00     0.012 A 
ENDBRANCH  12  13
ENDBRANCH   8  12
ENDBRANCH   5   6
ENDBRANCH   2   5
BRANCH   1  20
HETATM   20  C   UNL     1      -4.137   2.894 -31.017  1.00  0.00     0.043 A 
HETATM   21  C   UNL     1      -4.431   1.564 -31.312  1.00  0.00     0.002 A 
HETATM   22  C   UNL     1      -3.626   0.517 -32.015  1.00  0.00     0.276 C 
HETATM   23  C   UNL     1      -5.683   1.015 -30.974  1.00  0.00    -0.022 A 
HETATM   24  N   UNL     1      -4.589  -0.642 -32.319  1.00  0.00    -0.063 N 
HETATM   25  H   UNL     1      -4.135  -1.507 -32.010  1.00  0.00     0.280 HD
HETATM   26  C   UNL     1      -5.785  -0.408 -31.409  1.00  0.00     0.274 C 
HETATM   27  C   UNL     1      -6.656   1.757 -30.325  1.00  0.00     0.009 A 
HETATM   28  C   UNL     1      -6.383   3.089 -30.044  1.00  0.00     0.003 A 
HETATM   29  C   UNL     1      -5.147   3.651 -30.400  1.00  0.00     0.030 A 
BRANCH  24  30
HETATM   30  C   UNL     1      -4.973  -0.773 -33.767  1.00  0.00     0.239 C 
BRANCH  30  31
HETATM   31  C   UNL     1      -6.489  -0.949 -33.971  1.00  0.00     0.003 C 
HETATM   32  C   UNL     1      -6.765  -2.374 -34.461  1.00  0.00     0.011 C 
HETATM   33  C   UNL     1      -7.081   0.058 -34.958  1.00  0.00     0.011 C 
ENDBRANCH  30  31
ENDBRANCH  24  30
ENDBRANCH   1  20
TORSDOF 7
ENDMDL
MODEL 5
REMARK VINA RESULT:      -8.1      1.855      2.555
REMARK  7 active torsions:
REMARK  status: ('A' for Active; 'I' for Inactive)
REMARK    1  A    between atoms: C_2  and  C_3 
REMARK    2  A    between atoms: C_3  and  N_4 
REMARK    3  A    between atoms: C_10  and  N_11 
REMARK       I    between atoms: N_11  and  C_12 
REMARK    4  A    between atoms: C_12  and  C_13 
REMARK    5  A    between atoms: C_13  and  N_14 
REMARK       I    between atoms: N_14  and  C_15 
REMARK       I    between atoms: C_15  and  N_16 
REMARK    6  A    between atoms: N_16  and  C_17 
REMARK    7  A    between atoms: C_17  and  C_18 
ROOT
HETATM    1  N   UNL     1      -5.327   5.272 -32.979  1.00  0.00    -0.325 N 
HETATM    2  C   UNL     1      -6.305   4.382 -33.384  1.00  0.00     0.239 C 
HETATM    3  O   UNL     1      -6.118   3.421 -34.126  1.00  0.00    -0.271 OA
HETATM    4  H   UNL     1      -5.671   6.100 -32.492  1.00  0.00     0.169 HD
ENDROOT
BRANCH   2   5
HETATM    5  C   UNL     1      -7.711   4.748 -32.902  1.00  0.00     0.227 C 
BRANCH   5   6
HETATM    6  N   UNL     1      -7.967   4.314 -31.538  1.00  0.00    -0.334 N 
HETATM    7  C   UNL     1      -8.354   3.041 -31.237  1.00  0.00     0.316 C 
HETATM    8  N   UNL     1      -7.731   2.077 -31.970  1.00  0.00    -0.339 N 
HETATM    9  O   UNL     1      -9.218   2.836 -30.398  1.00  0.00    -0.247 OA
HETATM   10  H   UNL     1      -6.725   2.160 -31.914  1.00  0.00     0.164 HD
HETATM   11  H   UNL     1      -8.487   4.972 -30.967  1.00  0.00     0.164 HD
BRANCH   8  12
HETATM   12  C   UNL     1      -8.232   0.716 -31.956  1.00  0.00     0.162 C 
BRANCH  12  13
HETATM   13  C   UNL     1      -7.248  -0.173 -32.675  1.00  0.00    -0.040 A 
HETATM   14  C   UNL     1      -5.957  -0.387 -32.174  1.00  0.00     0.012 A 
HETATM   15  C   UNL     1      -5.055  -1.192 -32.876  1.00  0.00     0.043 A 
HETATM   16  C   UNL     1      -5.447  -1.784 -34.071  1.00  0.00     0.116 A 
HETATM   17  F   UNL     1      -4.576  -2.546 -34.745  1.00  0.00    -0.206 F 
HETATM   18  C   UNL     1      -6.724  -1.595 -34.579  1.00  0.00     0.043 A 
HETATM   19  C   UNL     1      -7.626  -0.791 -33.882  1.00  0.00     0.012 A 
ENDBRANCH  12  13
ENDBRANCH   8  12
ENDBRANCH   5   6
ENDBRANCH   2   5
BRANCH   1  20
HETATM   20  C   UNL     1      -3.951   5.269 -33.294  1.00  0.00     0.043 A 
HETATM   21  C   UNL     1      -2.883   5.222 -32.401  1.00  0.00     0.002 A 
HETATM   22  C   UNL     1      -2.859   5.207 -30.905  1.00  0.00     0.276 C 
HETATM   23  C   UNL     1      -1.555   5.223 -32.870  1.00  0.00    -0.022 A 
HETATM   24  N   UNL     1      -1.403   5.470 -30.489  1.00  0.00    -0.063 N 
HETATM   25  H   UNL     1      -1.149   4.760 -29.795  1.00  0.00     0.280 HD
HETATM   26  C   UNL     1      -0.583   5.197 -31.740  1.00  0.00     0.274 C 
HETATM   27  C   UNL     1      -1.256   5.253 -34.222  1.00  0.00     0.009 A 
HETATM   28  C   UNL     1      -2.312   5.321 -35.123  1.00  0.00     0.003 A 
HETATM   29  C   UNL     1      -3.637   5.345 -34.663  1.00  0.00     0.030 A 
BRANCH  24  30
HETATM   30  C   UNL     1      -1.155   6.837 -29.915  1.00  0.00     0.239 C 
BRANCH  30  31
HETATM   31  C   UNL     1       0.251   6.986 -29.305  1.00  0.00     0.003 C 
HETATM   32  C   UNL     1       0.565   5.744 -28.465  1.00  0.00     0.011 C 
HETATM   33  C   UNL     1       0.401   8.241 -28.445  1.00  0.00     0.011 C 
ENDBRANCH  30  31
ENDBRANCH  24  30
ENDBRANCH   1  20
TORSDOF 7
ENDMDL
MODEL 6
REMARK VINA RESULT:      -8.1      3.609      7.816
REMARK  7 active torsions:
REMARK  status: ('A' for Active; 'I' for Inactive)
REMARK    1  A    between atoms: C_2  and  C_3 
REMARK    2  A    between atoms: C_3  and  N_4 
REMARK    3  A    between atoms: C_10  and  N_11 
REMARK       I    between atoms: N_11  and  C_12 
REMARK    4  A    between atoms: C_12  and  C_13 
REMARK    5  A    between atoms: C_13  and  N_14 
REMARK       I    between atoms: N_14  and  C_15 
REMARK       I    between atoms: C_15  and  N_16 
REMARK    6  A    between atoms: N_16  and  C_17 
REMARK    7  A    between atoms: C_17  and  C_18 
ROOT
HETATM    1  N   UNL     1      -8.344   2.030 -34.084  1.00  0.00    -0.325 N 
HETATM    2  C   UNL     1      -7.726   3.059 -33.398  1.00  0.00     0.239 C 
HETATM    3  O   UNL     1      -8.262   3.753 -32.537  1.00  0.00    -0.271 OA
HETATM    4  H   UNL     1      -7.813   1.655 -34.871  1.00  0.00     0.169 HD
ENDROOT
BRANCH   2   5
HETATM    5  C   UNL     1      -6.299   3.349 -33.871  1.00  0.00     0.227 C 
BRANCH   5   6
HETATM    6  N   UNL     1      -5.353   3.452 -32.771  1.00  0.00    -0.334 N 
HETATM    7  C   UNL     1      -4.968   2.370 -32.036  1.00  0.00     0.316 C 
HETATM    8  N   UNL     1      -4.781   1.233 -32.763  1.00  0.00    -0.339 N 
HETATM    9  O   UNL     1      -4.848   2.453 -30.822  1.00  0.00    -0.247 OA
HETATM   10  H   UNL     1      -4.138   1.384 -33.529  1.00  0.00     0.164 HD
HETATM   11  H   UNL     1      -5.490   4.249 -32.159  1.00  0.00     0.164 HD
BRANCH   8  12
HETATM   12  C   UNL     1      -4.642  -0.044 -32.092  1.00  0.00     0.162 C 
BRANCH  12  13
HETATM   13  C   UNL     1      -5.103  -1.137 -33.024  1.00  0.00    -0.040 A 
HETATM   14  C   UNL     1      -4.237  -2.160 -33.435  1.00  0.00     0.012 A 
HETATM   15  C   UNL     1      -4.682  -3.143 -34.322  1.00  0.00     0.043 A 
HETATM   16  C   UNL     1      -5.990  -3.106 -34.792  1.00  0.00     0.116 A 
HETATM   17  F   UNL     1      -6.408  -4.045 -35.651  1.00  0.00    -0.206 F 
HETATM   18  C   UNL     1      -6.868  -2.109 -34.390  1.00  0.00     0.043 A 
HETATM   19  C   UNL     1      -6.426  -1.126 -33.505  1.00  0.00     0.012 A 
ENDBRANCH  12  13
ENDBRANCH   8  12
ENDBRANCH   5   6
ENDBRANCH   2   5
BRANCH   1  20
HETATM   20  C   UNL     1      -9.664   1.550 -33.946  1.00  0.00     0.043 A 
HETATM   21  C   UNL     1     -10.830   2.145 -34.426  1.00  0.00     0.002 A 
HETATM   22  C   UNL     1     -11.041   3.432 -35.157  1.00  0.00     0.276 C 
HETATM   23  C   UNL     1     -12.083   1.541 -34.209  1.00  0.00    -0.022 A 
HETATM   24  N   UNL     1     -12.555   3.701 -35.138  1.00  0.00    -0.063 N 
HETATM   25  H   UNL     1     -12.839   3.929 -36.096  1.00  0.00     0.280 HD
HETATM   26  C   UNL     1     -13.186   2.364 -34.783  1.00  0.00     0.274 C 
HETATM   27  C   UNL     1     -12.210   0.337 -33.536  1.00  0.00     0.009 A 
HETATM   28  C   UNL     1     -11.058  -0.255 -33.035  1.00  0.00     0.003 A 
HETATM   29  C   UNL     1      -9.807   0.352 -33.225  1.00  0.00     0.030 A 
BRANCH  24  30
HETATM   30  C   UNL     1     -12.981   4.811 -34.217  1.00  0.00     0.239 C 
BRANCH  30  31
HETATM   31  C   UNL     1     -13.542   4.298 -32.879  1.00  0.00     0.003 C 
HETATM   32  C   UNL     1     -14.765   5.137 -32.495  1.00  0.00     0.011 C 
HETATM   33  C   UNL     1     -12.517   4.333 -31.745  1.00  0.00     0.011 C 
ENDBRANCH  30  31
ENDBRANCH  24  30
ENDBRANCH   1  20
TORSDOF 7
ENDMDL
MODEL 7
REMARK VINA RESULT:      -8.1      2.214      3.375
REMARK  7 active torsions:
REMARK  status: ('A' for Active; 'I' for Inactive)
REMARK    1  A    between atoms: C_2  and  C_3 
REMARK    2  A    between atoms: C_3  and  N_4 
REMARK    3  A    between atoms: C_10  and  N_11 
REMARK       I    between atoms: N_11  and  C_12 
REMARK    4  A    between atoms: C_12  and  C_13 
REMARK    5  A    between atoms: C_13  and  N_14 
REMARK       I    between atoms: N_14  and  C_15 
REMARK       I    between atoms: C_15  and  N_16 
REMARK    6  A    between atoms: N_16  and  C_17 
REMARK    7  A    between atoms: C_17  and  C_18 
ROOT
HETATM    1  N   UNL     1      -7.360   2.592 -31.029  1.00  0.00    -0.325 N 
HETATM    2  C   UNL     1      -8.639   2.447 -31.533  1.00  0.00     0.239 C 
HETATM    3  O   UNL     1      -9.367   3.372 -31.884  1.00  0.00    -0.271 OA
HETATM    4  H   UNL     1      -6.948   1.743 -30.641  1.00  0.00     0.169 HD
ENDROOT
BRANCH   2   5
HETATM    5  C   UNL     1      -9.142   1.001 -31.532  1.00  0.00     0.227 C 
BRANCH   5   6
HETATM    6  N   UNL     1      -9.480   0.523 -32.863  1.00  0.00    -0.334 N 
HETATM    7  C   UNL     1      -8.531   0.260 -33.807  1.00  0.00     0.316 C 
HETATM    8  N   UNL     1      -7.406  -0.336 -33.322  1.00  0.00    -0.339 N 
HETATM    9  O   UNL     1      -8.706   0.584 -34.972  1.00  0.00    -0.247 OA
HETATM   10  H   UNL     1      -7.626  -1.175 -32.802  1.00  0.00     0.164 HD
HETATM   11  H   UNL     1     -10.274   0.982 -33.297  1.00  0.00     0.164 HD
BRANCH   8  12
HETATM   12  C   UNL     1      -6.217  -0.423 -34.146  1.00  0.00     0.162 C 
BRANCH  12  13
HETATM   13  C   UNL     1      -5.833  -1.874 -34.296  1.00  0.00    -0.040 A 
HETATM   14  C   UNL     1      -4.527  -2.314 -34.039  1.00  0.00     0.012 A 
HETATM   15  C   UNL     1      -4.191  -3.659 -34.214  1.00  0.00     0.043 A 
HETATM   16  C   UNL     1      -5.161  -4.562 -34.639  1.00  0.00     0.116 A 
HETATM   17  F   UNL     1      -4.831  -5.847 -34.815  1.00  0.00    -0.206 F 
HETATM   18  C   UNL     1      -6.463  -4.150 -34.888  1.00  0.00     0.043 A 
HETATM   19  C   UNL     1      -6.800  -2.808 -34.715  1.00  0.00     0.012 A 
ENDBRANCH  12  13
ENDBRANCH   8  12
ENDBRANCH   5   6
ENDBRANCH   2   5
BRANCH   1  20
HETATM   20  C   UNL     1      -6.623   3.781 -30.831  1.00  0.00     0.043 A 
HETATM   21  C   UNL     1      -6.074   4.603 -31.813  1.00  0.00     0.002 A 
HETATM   22  C   UNL     1      -6.052   4.468 -33.302  1.00  0.00     0.276 C 
HETATM   23  C   UNL     1      -5.362   5.765 -31.458  1.00  0.00    -0.022 A 
HETATM   24  N   UNL     1      -5.039   5.501 -33.819  1.00  0.00    -0.063 N 
HETATM   25  H   UNL     1      -5.489   6.019 -34.580  1.00  0.00     0.280 HD
HETATM   26  C   UNL     1      -4.843   6.471 -32.664  1.00  0.00     0.274 C 
HETATM   27  C   UNL     1      -5.195   6.146 -30.137  1.00  0.00     0.009 A 
HETATM   28  C   UNL     1      -5.720   5.324 -29.148  1.00  0.00     0.003 A 
HETATM   29  C   UNL     1      -6.410   4.152 -29.492  1.00  0.00     0.030 A 
BRANCH  24  30
HETATM   30  C   UNL     1      -3.745   4.915 -34.314  1.00  0.00     0.239 C 
BRANCH  30  31
HETATM   31  C   UNL     1      -2.519   5.425 -33.538  1.00  0.00     0.003 C 
HETATM   32  C   UNL     1      -1.397   5.747 -34.530  1.00  0.00     0.011 C 
HETATM   33  C   UNL     1      -2.013   4.428 -32.495  1.00  0.00     0.011 C 
ENDBRANCH  30  31
ENDBRANCH  24  30
ENDBRANCH   1  20
TORSDOF 7
ENDMDL
MODEL 8
REMARK VINA RESULT:      -8.0      2.558      3.761
REMARK  7 active torsions:
REMARK  status: ('A' for Active; 'I' for Inactive)
REMARK    1  A    between atoms: C_2  and  C_3 
REMARK    2  A    between atoms: C_3  and  N_4 
REMARK    3  A    between atoms: C_10  and  N_11 
REMARK       I    between atoms: N_11  and  C_12 
REMARK    4  A    between atoms: C_12  and  C_13 
REMARK    5  A    between atoms: C_13  and  N_14 
REMARK       I    between atoms: N_14  and  C_15 
REMARK       I    between atoms: C_15  and  N_16 
REMARK    6  A    between atoms: N_16  and  C_17 
REMARK    7  A    between atoms: C_17  and  C_18 
ROOT
HETATM    1  N   UNL     1      -7.638   4.510 -30.500  1.00  0.00    -0.325 N 
HETATM    2  C   UNL     1      -7.853   3.144 -30.515  1.00  0.00     0.239 C 
HETATM    3  O   UNL     1      -7.111   2.309 -30.003  1.00  0.00    -0.271 OA
HETATM    4  H   UNL     1      -8.262   5.052 -31.099  1.00  0.00     0.169 HD
ENDROOT
BRANCH   2   5
HETATM    5  C   UNL     1      -9.077   2.719 -31.331  1.00  0.00     0.227 C 
BRANCH   5   6
HETATM    6  N   UNL     1      -9.373   1.301 -31.203  1.00  0.00    -0.334 N 
HETATM    7  C   UNL     1      -9.227   0.428 -32.241  1.00  0.00     0.316 C 
HETATM    8  N   UNL     1      -8.126   0.652 -33.012  1.00  0.00    -0.339 N 
HETATM    9  O   UNL     1     -10.059  -0.443 -32.443  1.00  0.00    -0.247 OA
HETATM   10  H   UNL     1      -7.282   0.679 -32.456  1.00  0.00     0.164 HD
HETATM   11  H   UNL     1     -10.220   1.082 -30.690  1.00  0.00     0.164 HD
BRANCH   8  12
HETATM   12  C   UNL     1      -7.990  -0.012 -34.294  1.00  0.00     0.162 C 
BRANCH  12  13
HETATM   13  C   UNL     1      -6.823  -0.965 -34.227  1.00  0.00    -0.040 A 
HETATM   14  C   UNL     1      -6.890  -2.243 -34.801  1.00  0.00     0.012 A 
HETATM   15  C   UNL     1      -5.804  -3.117 -34.698  1.00  0.00     0.043 A 
HETATM   16  C   UNL     1      -4.654  -2.711 -34.030  1.00  0.00     0.116 A 
HETATM   17  F   UNL     1      -3.621  -3.557 -33.925  1.00  0.00    -0.206 F 
HETATM   18  C   UNL     1      -4.562  -1.447 -33.465  1.00  0.00     0.043 A 
HETATM   19  C   UNL     1      -5.644  -0.573 -33.564  1.00  0.00     0.012 A 
ENDBRANCH  12  13
ENDBRANCH   8  12
ENDBRANCH   5   6
ENDBRANCH   2   5
BRANCH   1  20
HETATM   20  C   UNL     1      -6.578   5.226 -29.903  1.00  0.00     0.043 A 
HETATM   21  C   UNL     1      -5.468   5.774 -30.543  1.00  0.00     0.002 A 
HETATM   22  C   UNL     1      -5.049   5.736 -31.978  1.00  0.00     0.276 C 
HETATM   23  C   UNL     1      -4.488   6.468 -29.808  1.00  0.00    -0.022 A 
HETATM   24  N   UNL     1      -3.596   6.234 -32.021  1.00  0.00    -0.063 N 
HETATM   25  H   UNL     1      -3.536   6.946 -32.757  1.00  0.00     0.280 HD
HETATM   26  C   UNL     1      -3.383   6.939 -30.691  1.00  0.00     0.274 C 
HETATM   27  C   UNL     1      -4.592   6.651 -28.439  1.00  0.00     0.009 A 
HETATM   28  C   UNL     1      -5.684   6.092 -27.786  1.00  0.00     0.003 A 
HETATM   29  C   UNL     1      -6.653   5.378 -28.508  1.00  0.00     0.030 A 
BRANCH  24  30
HETATM   30  C   UNL     1      -2.575   5.162 -32.283  1.00  0.00     0.239 C 
BRANCH  30  31
HETATM   31  C   UNL     1      -1.827   5.357 -33.615  1.00  0.00     0.003 C 
HETATM   32  C   UNL     1      -1.075   6.691 -33.575  1.00  0.00     0.011 C 
HETATM   33  C   UNL     1      -2.753   5.324 -34.832  1.00  0.00     0.011 C 
ENDBRANCH  30  31
ENDBRANCH  24  30
ENDBRANCH   1  20
TORSDOF 7
ENDMDL
MODEL 9
REMARK VINA RESULT:      -7.9      2.548      3.477
REMARK  7 active torsions:
REMARK  status: ('A' for Active; 'I' for Inactive)
REMARK    1  A    between atoms: C_2  and  C_3 
REMARK    2  A    between atoms: C_3  and  N_4 
REMARK    3  A    between atoms: C_10  and  N_11 
REMARK       I    between atoms: N_11  and  C_12 
REMARK    4  A    between atoms: C_12  and  C_13 
REMARK    5  A    between atoms: C_13  and  N_14 
REMARK       I    between atoms: N_14  and  C_15 
REMARK       I    between atoms: C_15  and  N_16 
REMARK    6  A    between atoms: N_16  and  C_17 
REMARK    7  A    between atoms: C_17  and  C_18 
ROOT
HETATM    1  N   UNL     1      -6.976   4.329 -30.079  1.00  0.00    -0.325 N 
HETATM    2  C   UNL     1      -6.834   2.964 -30.254  1.00  0.00     0.239 C 
HETATM    3  O   UNL     1      -5.865   2.305 -29.885  1.00  0.00    -0.271 OA
HETATM    4  H   UNL     1      -7.763   4.748 -30.575  1.00  0.00     0.169 HD
ENDROOT
BRANCH   2   5
HETATM    5  C   UNL     1      -7.969   2.322 -31.056  1.00  0.00     0.227 C 
BRANCH   5   6
HETATM    6  N   UNL     1      -7.763   2.414 -32.493  1.00  0.00    -0.334 N 
HETATM    7  C   UNL     1      -6.697   1.834 -33.116  1.00  0.00     0.316 C 
HETATM    8  N   UNL     1      -6.362   0.606 -32.630  1.00  0.00    -0.339 N 
HETATM    9  O   UNL     1      -6.101   2.423 -34.006  1.00  0.00    -0.247 OA
HETATM   10  H   UNL     1      -7.154  -0.022 -32.633  1.00  0.00     0.164 HD
HETATM   11  H   UNL     1      -7.936   3.329 -32.895  1.00  0.00     0.164 HD
BRANCH   8  12
HETATM   12  C   UNL     1      -5.100  -0.002 -33.001  1.00  0.00     0.162 C 
BRANCH  12  13
HETATM   13  C   UNL     1      -5.374  -1.333 -33.657  1.00  0.00    -0.040 A 
HETATM   14  C   UNL     1      -4.336  -2.222 -33.967  1.00  0.00     0.012 A 
HETATM   15  C   UNL     1      -4.616  -3.435 -34.602  1.00  0.00     0.043 A 
HETATM   16  C   UNL     1      -5.931  -3.760 -34.918  1.00  0.00     0.116 A 
HETATM   17  F   UNL     1      -6.192  -4.920 -35.535  1.00  0.00    -0.206 F 
HETATM   18  C   UNL     1      -6.975  -2.900 -34.609  1.00  0.00     0.043 A 
HETATM   19  C   UNL     1      -6.699  -1.688 -33.977  1.00  0.00     0.012 A 
ENDBRANCH  12  13
ENDBRANCH   8  12
ENDBRANCH   5   6
ENDBRANCH   2   5
BRANCH   1  20
HETATM   20  C   UNL     1      -6.092   5.231 -29.449  1.00  0.00     0.043 A 
HETATM   21  C   UNL     1      -4.976   5.847 -30.012  1.00  0.00     0.002 A 
HETATM   22  C   UNL     1      -4.371   5.717 -31.374  1.00  0.00     0.276 C 
HETATM   23  C   UNL     1      -4.186   6.731 -29.253  1.00  0.00    -0.022 A 
HETATM   24  N   UNL     1      -2.991   6.389 -31.304  1.00  0.00    -0.063 N 
HETATM   25  H   UNL     1      -2.916   7.024 -32.105  1.00  0.00     0.280 HD
HETATM   26  C   UNL     1      -3.035   7.247 -30.048  1.00  0.00     0.274 C 
HETATM   27  C   UNL     1      -4.489   7.037 -27.937  1.00  0.00     0.009 A 
HETATM   28  C   UNL     1      -5.586   6.413 -27.357  1.00  0.00     0.003 A 
HETATM   29  C   UNL     1      -6.365   5.512 -28.099  1.00  0.00     0.030 A 
BRANCH  24  30
HETATM   30  C   UNL     1      -1.829   5.434 -31.317  1.00  0.00     0.239 C 
BRANCH  30  31
HETATM   31  C   UNL     1      -0.630   5.958 -32.128  1.00  0.00     0.003 C 
HETATM   32  C   UNL     1       0.412   6.533 -31.164  1.00  0.00     0.011 C 
HETATM   33  C   UNL     1      -1.021   7.019 -33.157  1.00  0.00     0.011 C 
ENDBRANCH  30  31
ENDBRANCH  24  30
ENDBRANCH   1  20
TORSDOF 7
ENDMDL
MODEL 10
REMARK VINA RESULT:      -7.9      2.057      2.758
REMARK  7 active torsions:
REMARK  status: ('A' for Active; 'I' for Inactive)
REMARK    1  A    between atoms: C_2  and  C_3 
REMARK    2  A    between atoms: C_3  and  N_4 
REMARK    3  A    between atoms: C_10  and  N_11 
REMARK       I    between atoms: N_11  and  C_12 
REMARK    4  A    between atoms: C_12  and  C_13 
REMARK    5  A    between atoms: C_13  and  N_14 
REMARK       I    between atoms: N_14  and  C_15 
REMARK       I    between atoms: C_15  and  N_16 
REMARK    6  A    between atoms: N_16  and  C_17 
REMARK    7  A    between atoms: C_17  and  C_18 
ROOT
HETATM    1  N   UNL     1      -4.504   3.852 -33.142  1.00  0.00    -0.325 N 
HETATM    2  C   UNL     1      -5.633   4.311 -33.797  1.00  0.00     0.239 C 
HETATM    3  O   UNL     1      -5.773   5.444 -34.249  1.00  0.00    -0.271 OA
HETATM    4  H   UNL     1      -4.604   2.941 -32.695  1.00  0.00     0.169 HD
ENDROOT
BRANCH   2   5
HETATM    5  C   UNL     1      -6.778   3.296 -33.838  1.00  0.00     0.227 C 
BRANCH   5   6
HETATM    6  N   UNL     1      -6.814   2.442 -32.660  1.00  0.00    -0.334 N 
HETATM    7  C   UNL     1      -7.271   1.157 -32.703  1.00  0.00     0.316 C 
HETATM    8  N   UNL     1      -6.907   0.469 -33.822  1.00  0.00    -0.339 N 
HETATM    9  O   UNL     1      -7.975   0.717 -31.808  1.00  0.00    -0.247 OA
HETATM   10  H   UNL     1      -5.906   0.490 -33.961  1.00  0.00     0.164 HD
HETATM   11  H   UNL     1      -7.142   2.892 -31.812  1.00  0.00     0.164 HD
BRANCH   8  12
HETATM   12  C   UNL     1      -7.539  -0.798 -34.133  1.00  0.00     0.162 C 
BRANCH  12  13
HETATM   13  C   UNL     1      -6.476  -1.865 -34.219  1.00  0.00    -0.040 A 
HETATM   14  C   UNL     1      -6.765  -3.145 -34.709  1.00  0.00     0.012 A 
HETATM   15  C   UNL     1      -5.769  -4.124 -34.750  1.00  0.00     0.043 A 
HETATM   16  C   UNL     1      -4.486  -3.820 -34.308  1.00  0.00     0.116 A 
HETATM   17  F   UNL     1      -3.537  -4.764 -34.339  1.00  0.00    -0.206 F 
HETATM   18  C   UNL     1      -4.175  -2.554 -33.829  1.00  0.00     0.043 A 
HETATM   19  C   UNL     1      -5.168  -1.576 -33.786  1.00  0.00     0.012 A 
ENDBRANCH  12  13
ENDBRANCH   8  12
ENDBRANCH   5   6
ENDBRANCH   2   5
BRANCH   1  20
HETATM   20  C   UNL     1      -3.304   4.544 -32.872  1.00  0.00     0.043 A 
HETATM   21  C   UNL     1      -2.962   5.208 -31.696  1.00  0.00     0.002 A 
HETATM   22  C   UNL     1      -3.737   5.427 -30.435  1.00  0.00     0.276 C 
HETATM   23  C   UNL     1      -1.717   5.855 -31.574  1.00  0.00    -0.022 A 
HETATM   24  N   UNL     1      -2.971   6.488 -29.630  1.00  0.00    -0.063 N 
HETATM   25  H   UNL     1      -2.872   6.136 -28.673  1.00  0.00     0.280 HD
HETATM   26  C   UNL     1      -1.581   6.521 -30.247  1.00  0.00     0.274 C 
HETATM   27  C   UNL     1      -0.783   5.844 -32.597  1.00  0.00     0.009 A 
HETATM   28  C   UNL     1      -1.120   5.203 -33.782  1.00  0.00     0.003 A 
HETATM   29  C   UNL     1      -2.368   4.576 -33.920  1.00  0.00     0.030 A 
BRANCH  24  30
HETATM   30  C   UNL     1      -3.626   7.841 -29.597  1.00  0.00     0.239 C 
BRANCH  30  31
HETATM   31  C   UNL     1      -2.615   8.996 -29.481  1.00  0.00     0.003 C 
HETATM   32  C   UNL     1      -2.707   9.603 -28.078  1.00  0.00     0.011 C 
HETATM   33  C   UNL     1      -2.830  10.088 -30.530  1.00  0.00     0.011 C 
ENDBRANCH  30  31
ENDBRANCH  24  30
ENDBRANCH   1  20
TORSDOF 7
ENDMDL
