MODEL 1
REMARK VINA RESULT:      -7.8      0.000      0.000
REMARK  6 active torsions:
REMARK  status: ('A' for Active; 'I' for Inactive)
REMARK    1  A    between atoms: C_2  and  C_3 
REMARK    2  A    between atoms: C_5  and  N_6 
REMARK       I    between atoms: N_6  and  C_7 
REMARK       I    between atoms: C_7  and  N_8 
REMARK    3  A    between atoms: N_8  and  C_9 
REMARK    4  A    between atoms: C_9  and  C_10 
REMARK    5  A    between atoms: C_11  and  N_12 
REMARK    6  A    between atoms: C_19  and  O_20 
ROOT
HETATM    1  N   UNL     1      -4.424  -0.536 -31.609  1.00  0.00    -0.306 N 
HETATM    2  C   UNL     1      -3.576   0.508 -31.465  1.00  0.00     0.321 C 
HETATM    3  N   UNL     1      -4.057   1.757 -31.707  1.00  0.00    -0.338 N 
HETATM    4  O   UNL     1      -2.466   0.325 -30.971  1.00  0.00    -0.247 OA
HETATM    5  H   UNL     1      -4.149  -1.355 -31.077  1.00  0.00     0.171 HD
HETATM    6  H   UNL     1      -5.055   1.847 -31.845  1.00  0.00     0.164 HD
ENDROOT
BRANCH   1   7
HETATM    7  C   UNL     1      -5.551  -0.754 -32.421  1.00  0.00     0.070 A 
HETATM    8  C   UNL     1      -6.779  -0.110 -32.220  1.00  0.00     0.040 A 
HETATM    9  C   UNL     1      -7.843  -0.267 -33.131  1.00  0.00    -0.048 A 
HETATM   10  C   UNL     1      -7.625  -1.106 -34.240  1.00  0.00     0.011 A 
HETATM   11  C   UNL     1      -6.401  -1.751 -34.449  1.00  0.00     0.039 A 
HETATM   12  C   UNL     1      -5.353  -1.562 -33.556  1.00  0.00     0.095 A 
BRANCH   9  13
HETATM   13  C   UNL     1      -9.150   0.542 -32.996  1.00  0.00    -0.024 C 
HETATM   14  C   UNL     1      -9.009   1.472 -31.774  1.00  0.00     0.019 C 
HETATM   15  C   UNL     1     -10.388  -0.360 -32.788  1.00  0.00     0.019 C 
HETATM   16  C   UNL     1      -9.444   1.412 -34.239  1.00  0.00     0.019 C 
ENDBRANCH   9  13
BRANCH  12  17
HETATM   17  O   UNL     1      -4.098  -2.109 -33.676  1.00  0.00    -0.354 OA
HETATM   18  C   UNL     1      -4.021  -3.517 -33.880  1.00  0.00     0.210 C 
ENDBRANCH  12  17
ENDBRANCH   1   7
BRANCH   3  19
HETATM   19  C   UNL     1      -3.251   2.946 -31.489  1.00  0.00     0.166 C 
BRANCH  19  20
HETATM   20  C   UNL     1      -3.214   3.891 -32.674  1.00  0.00     0.003 A 
HETATM   21  C   UNL     1      -4.375   4.387 -33.300  1.00  0.00     0.106 A 
HETATM   22  N   UNL     1      -4.238   5.249 -34.320  1.00  0.00    -0.352 N 
HETATM   23  H   UNL     1      -5.094   5.615 -34.723  1.00  0.00     0.166 HD
HETATM   24  C   UNL     1      -3.062   5.685 -34.780  1.00  0.00     0.089 A 
HETATM   25  C   UNL     1      -1.887   5.243 -34.202  1.00  0.00     0.018 A 
HETATM   26  C   UNL     1      -1.966   4.332 -33.153  1.00  0.00     0.014 A 
BRANCH  21  27
HETATM   27  N   UNL     1      -5.653   4.202 -32.835  1.00  0.00    -0.385 N 
HETATM   28  H   UNL     1      -6.378   4.018 -33.544  1.00  0.00     0.157 HD
HETATM   29  H   UNL     1      -6.038   4.730 -32.065  1.00  0.00     0.157 HD
ENDBRANCH  21  27
ENDBRANCH  19  20
ENDBRANCH   3  19
TORSDOF 6
ENDMDL
MODEL 2
REMARK VINA RESULT:      -7.7      2.712      6.965
REMARK  6 active torsions:
REMARK  status: ('A' for Active; 'I' for Inactive)
REMARK    1  A    between atoms: C_2  and  C_3 
REMARK    2  A    between atoms: C_5  and  N_6 
REMARK       I    between atoms: N_6  and  C_7 
REMARK       I    between atoms: C_7  and  N_8 
REMARK    3  A    between atoms: N_8  and  C_9 
REMARK    4  A    between atoms: C_9  and  C_10 
REMARK    5  A    between atoms: C_11  and  N_12 
REMARK    6  A    between atoms: C_19  and  O_20 
ROOT
HETATM    1  N   UNL     1      -7.331   1.647 -33.477  1.00  0.00    -0.306 N 
HETATM    2  C   UNL     1      -7.485   0.561 -34.268  1.00  0.00     0.321 C 
HETATM    3  N   UNL     1      -6.593  -0.458 -34.133  1.00  0.00    -0.338 N 
HETATM    4  O   UNL     1      -8.497   0.450 -34.957  1.00  0.00    -0.247 OA
HETATM    5  H   UNL     1      -8.187   2.176 -33.348  1.00  0.00     0.171 HD
HETATM    6  H   UNL     1      -5.951  -0.406 -33.354  1.00  0.00     0.164 HD
ENDROOT
BRANCH   1   7
HETATM    7  C   UNL     1      -6.209   2.249 -32.880  1.00  0.00     0.070 A 
HETATM    8  C   UNL     1      -5.389   3.172 -33.543  1.00  0.00     0.040 A 
HETATM    9  C   UNL     1      -4.349   3.842 -32.867  1.00  0.00    -0.048 A 
HETATM   10  C   UNL     1      -4.161   3.535 -31.507  1.00  0.00     0.011 A 
HETATM   11  C   UNL     1      -4.976   2.616 -30.837  1.00  0.00     0.039 A 
HETATM   12  C   UNL     1      -6.015   1.986 -31.511  1.00  0.00     0.095 A 
BRANCH   9  13
HETATM   13  C   UNL     1      -3.529   4.958 -33.547  1.00  0.00    -0.024 C 
HETATM   14  C   UNL     1      -3.795   6.274 -32.787  1.00  0.00     0.019 C 
HETATM   15  C   UNL     1      -3.914   5.159 -35.031  1.00  0.00     0.019 C 
HETATM   16  C   UNL     1      -2.008   4.680 -33.522  1.00  0.00     0.019 C 
ENDBRANCH   9  13
BRANCH  12  17
HETATM   17  O   UNL     1      -6.903   1.098 -30.952  1.00  0.00    -0.354 OA
HETATM   18  C   UNL     1      -6.374  -0.138 -30.483  1.00  0.00     0.210 C 
ENDBRANCH  12  17
ENDBRANCH   1   7
BRANCH   3  19
HETATM   19  C   UNL     1      -6.732  -1.701 -34.871  1.00  0.00     0.166 C 
BRANCH  19  20
HETATM   20  C   UNL     1      -5.750  -2.779 -34.450  1.00  0.00     0.003 A 
HETATM   21  C   UNL     1      -5.928  -4.143 -34.752  1.00  0.00     0.106 A 
HETATM   22  N   UNL     1      -4.984  -5.016 -34.367  1.00  0.00    -0.352 N 
HETATM   23  H   UNL     1      -5.126  -5.984 -34.634  1.00  0.00     0.166 HD
HETATM   24  C   UNL     1      -3.866  -4.674 -33.722  1.00  0.00     0.089 A 
HETATM   25  C   UNL     1      -3.628  -3.350 -33.406  1.00  0.00     0.018 A 
HETATM   26  C   UNL     1      -4.582  -2.401 -33.761  1.00  0.00     0.014 A 
BRANCH  21  27
HETATM   27  N   UNL     1      -6.910  -4.641 -35.573  1.00  0.00    -0.385 N 
HETATM   28  H   UNL     1      -7.660  -5.181 -35.117  1.00  0.00     0.157 HD
HETATM   29  H   UNL     1      -6.721  -5.006 -36.495  1.00  0.00     0.157 HD
ENDBRANCH  21  27
ENDBRANCH  19  20
ENDBRANCH   3  19
TORSDOF 6
ENDMDL
MODEL 3
REMARK VINA RESULT:      -7.7      2.188      6.867
REMARK  6 active torsions:
REMARK  status: ('A' for Active; 'I' for Inactive)
REMARK    1  A    between atoms: C_2  and  C_3 
REMARK    2  A    between atoms: C_5  and  N_6 
REMARK       I    between atoms: N_6  and  C_7 
REMARK       I    between atoms: C_7  and  N_8 
REMARK    3  A    between atoms: N_8  and  C_9 
REMARK    4  A    between atoms: C_9  and  C_10 
REMARK    5  A    between atoms: C_11  and  N_12 
REMARK    6  A    between atoms: C_19  and  O_20 
ROOT
HETATM    1  N   UNL     1      -4.378   2.136 -31.151  1.00  0.00    -0.306 N 
HETATM    2  C   UNL     1      -4.283   0.791 -31.248  1.00  0.00     0.321 C 
HETATM    3  N   UNL     1      -3.520   0.276 -32.249  1.00  0.00    -0.338 N 
HETATM    4  O   UNL     1      -4.742   0.084 -30.354  1.00  0.00    -0.247 OA
HETATM    5  H   UNL     1      -4.624   2.458 -30.221  1.00  0.00     0.171 HD
HETATM    6  H   UNL     1      -2.955   0.927 -32.778  1.00  0.00     0.164 HD
ENDROOT
BRANCH   1   7
HETATM    7  C   UNL     1      -4.306   3.175 -32.097  1.00  0.00     0.070 A 
HETATM    8  C   UNL     1      -3.165   3.968 -32.281  1.00  0.00     0.040 A 
HETATM    9  C   UNL     1      -3.097   4.915 -33.323  1.00  0.00    -0.048 A 
HETATM   10  C   UNL     1      -4.223   5.041 -34.157  1.00  0.00     0.011 A 
HETATM   11  C   UNL     1      -5.365   4.253 -33.980  1.00  0.00     0.039 A 
HETATM   12  C   UNL     1      -5.405   3.303 -32.967  1.00  0.00     0.095 A 
BRANCH   9  13
HETATM   13  C   UNL     1      -1.800   5.696 -33.622  1.00  0.00    -0.024 C 
HETATM   14  C   UNL     1      -0.784   5.376 -32.505  1.00  0.00     0.019 C 
HETATM   15  C   UNL     1      -2.021   7.225 -33.663  1.00  0.00     0.019 C 
HETATM   16  C   UNL     1      -1.169   5.307 -34.979  1.00  0.00     0.019 C 
ENDBRANCH   9  13
BRANCH  12  17
HETATM   17  O   UNL     1      -6.452   2.446 -32.720  1.00  0.00    -0.354 OA
HETATM   18  C   UNL     1      -7.301   2.128 -33.818  1.00  0.00     0.210 C 
ENDBRANCH  12  17
ENDBRANCH   1   7
BRANCH   3  19
HETATM   19  C   UNL     1      -3.282  -1.152 -32.376  1.00  0.00     0.166 C 
BRANCH  19  20
HETATM   20  C   UNL     1      -4.239  -1.853 -33.321  1.00  0.00     0.003 A 
HETATM   21  C   UNL     1      -4.153  -3.226 -33.626  1.00  0.00     0.106 A 
HETATM   22  N   UNL     1      -5.070  -3.762 -34.446  1.00  0.00    -0.352 N 
HETATM   23  H   UNL     1      -5.001  -4.760 -34.614  1.00  0.00     0.166 HD
HETATM   24  C   UNL     1      -6.080  -3.078 -34.990  1.00  0.00     0.089 A 
HETATM   25  C   UNL     1      -6.225  -1.730 -34.722  1.00  0.00     0.018 A 
HETATM   26  C   UNL     1      -5.291  -1.114 -33.895  1.00  0.00     0.014 A 
BRANCH  21  27
HETATM   27  N   UNL     1      -3.307  -4.113 -33.006  1.00  0.00    -0.385 N 
HETATM   28  H   UNL     1      -3.398  -5.102 -33.280  1.00  0.00     0.157 HD
HETATM   29  H   UNL     1      -3.051  -4.037 -32.033  1.00  0.00     0.157 HD
ENDBRANCH  21  27
ENDBRANCH  19  20
ENDBRANCH   3  19
TORSDOF 6
ENDMDL
MODEL 4
REMARK VINA RESULT:      -7.6      2.715      5.999
REMARK  6 active torsions:
REMARK  status: ('A' for Active; 'I' for Inactive)
REMARK    1  A    between atoms: C_2  and  C_3 
REMARK    2  A    between atoms: C_5  and  N_6 
REMARK       I    between atoms: N_6  and  C_7 
REMARK       I    between atoms: C_7  and  N_8 
REMARK    3  A    between atoms: N_8  and  C_9 
REMARK    4  A    between atoms: C_9  and  C_10 
REMARK    5  A    between atoms: C_11  and  N_12 
REMARK    6  A    between atoms: C_19  and  O_20 
ROOT
HETATM    1  N   UNL     1      -4.662   1.679 -31.598  1.00  0.00    -0.306 N 
HETATM    2  C   UNL     1      -3.973   0.544 -31.851  1.00  0.00     0.321 C 
HETATM    3  N   UNL     1      -4.476  -0.314 -32.780  1.00  0.00    -0.338 N 
HETATM    4  O   UNL     1      -2.852   0.394 -31.371  1.00  0.00    -0.247 OA
HETATM    5  H   UNL     1      -4.089   2.421 -31.210  1.00  0.00     0.171 HD
HETATM    6  H   UNL     1      -5.262   0.011 -33.327  1.00  0.00     0.164 HD
ENDROOT
BRANCH   1   7
HETATM    7  C   UNL     1      -6.027   2.010 -31.666  1.00  0.00     0.070 A 
HETATM    8  C   UNL     1      -6.902   1.471 -32.619  1.00  0.00     0.040 A 
HETATM    9  C   UNL     1      -8.285   1.737 -32.573  1.00  0.00    -0.048 A 
HETATM   10  C   UNL     1      -8.747   2.576 -31.541  1.00  0.00     0.011 A 
HETATM   11  C   UNL     1      -7.882   3.116 -30.585  1.00  0.00     0.039 A 
HETATM   12  C   UNL     1      -6.524   2.820 -30.628  1.00  0.00     0.095 A 
BRANCH   9  13
HETATM   13  C   UNL     1      -9.275   1.043 -33.531  1.00  0.00    -0.024 C 
HETATM   14  C   UNL     1      -8.463   0.425 -34.688  1.00  0.00     0.019 C 
HETATM   15  C   UNL     1     -10.314   2.021 -34.126  1.00  0.00     0.019 C 
HETATM   16  C   UNL     1     -10.078  -0.086 -32.843  1.00  0.00     0.019 C 
ENDBRANCH   9  13
BRANCH  12  17
HETATM   17  O   UNL     1      -5.585   3.259 -29.724  1.00  0.00    -0.354 OA
HETATM   18  C   UNL     1      -5.500   4.664 -29.509  1.00  0.00     0.210 C 
ENDBRANCH  12  17
ENDBRANCH   1   7
BRANCH   3  19
HETATM   19  C   UNL     1      -3.760  -1.510 -33.187  1.00  0.00     0.166 C 
BRANCH  19  20
HETATM   20  C   UNL     1      -4.639  -2.561 -33.838  1.00  0.00     0.003 A 
HETATM   21  C   UNL     1      -4.260  -3.913 -33.963  1.00  0.00     0.106 A 
HETATM   22  N   UNL     1      -5.123  -4.774 -34.523  1.00  0.00    -0.352 N 
HETATM   23  H   UNL     1      -4.834  -5.745 -34.562  1.00  0.00     0.166 HD
HETATM   24  C   UNL     1      -6.338  -4.437 -34.965  1.00  0.00     0.089 A 
HETATM   25  C   UNL     1      -6.772  -3.129 -34.862  1.00  0.00     0.018 A 
HETATM   26  C   UNL     1      -5.912  -2.186 -34.309  1.00  0.00     0.014 A 
BRANCH  21  27
HETATM   27  N   UNL     1      -3.142  -4.467 -33.391  1.00  0.00    -0.385 N 
HETATM   28  H   UNL     1      -2.297  -3.878 -33.369  1.00  0.00     0.157 HD
HETATM   29  H   UNL     1      -2.893  -5.439 -33.503  1.00  0.00     0.157 HD
ENDBRANCH  21  27
ENDBRANCH  19  20
ENDBRANCH   3  19
TORSDOF 6
ENDMDL
MODEL 5
REMARK VINA RESULT:      -7.4      3.866      7.234
REMARK  6 active torsions:
REMARK  status: ('A' for Active; 'I' for Inactive)
REMARK    1  A    between atoms: C_2  and  C_3 
REMARK    2  A    between atoms: C_5  and  N_6 
REMARK       I    between atoms: N_6  and  C_7 
REMARK       I    between atoms: C_7  and  N_8 
REMARK    3  A    between atoms: N_8  and  C_9 
REMARK    4  A    between atoms: C_9  and  C_10 
REMARK    5  A    between atoms: C_11  and  N_12 
REMARK    6  A    between atoms: C_19  and  O_20 
ROOT
HETATM    1  N   UNL     1      -8.556   1.688 -30.983  1.00  0.00    -0.306 N 
HETATM    2  C   UNL     1      -9.454   2.421 -31.679  1.00  0.00     0.321 C 
HETATM    3  N   UNL     1      -9.733   2.042 -32.956  1.00  0.00    -0.338 N 
HETATM    4  O   UNL     1     -10.105   3.290 -31.104  1.00  0.00    -0.247 OA
HETATM    5  H   UNL     1      -8.662   1.769 -29.977  1.00  0.00     0.171 HD
HETATM    6  H   UNL     1      -9.359   1.154 -33.263  1.00  0.00     0.164 HD
ENDROOT
BRANCH   1   7
HETATM    7  C   UNL     1      -7.442   0.919 -31.363  1.00  0.00     0.070 A 
HETATM    8  C   UNL     1      -7.458   0.024 -32.441  1.00  0.00     0.040 A 
HETATM    9  C   UNL     1      -6.284  -0.634 -32.861  1.00  0.00    -0.048 A 
HETATM   10  C   UNL     1      -5.102  -0.366 -32.145  1.00  0.00     0.011 A 
HETATM   11  C   UNL     1      -5.077   0.528 -31.069  1.00  0.00     0.039 A 
HETATM   12  C   UNL     1      -6.237   1.190 -30.686  1.00  0.00     0.095 A 
BRANCH   9  13
HETATM   13  C   UNL     1      -6.259  -1.514 -34.128  1.00  0.00    -0.024 C 
HETATM   14  C   UNL     1      -4.826  -2.058 -34.301  1.00  0.00     0.019 C 
HETATM   15  C   UNL     1      -6.648  -0.733 -35.403  1.00  0.00     0.019 C 
HETATM   16  C   UNL     1      -7.228  -2.717 -34.037  1.00  0.00     0.019 C 
ENDBRANCH   9  13
BRANCH  12  17
HETATM   17  O   UNL     1      -6.328   2.116 -29.674  1.00  0.00    -0.354 OA
HETATM   18  C   UNL     1      -5.610   3.334 -29.844  1.00  0.00     0.210 C 
ENDBRANCH  12  17
ENDBRANCH   1   7
BRANCH   3  19
HETATM   19  C   UNL     1     -10.751   2.708 -33.749  1.00  0.00     0.166 C 
BRANCH  19  20
HETATM   20  C   UNL     1     -12.084   1.984 -33.774  1.00  0.00     0.003 A 
HETATM   21  C   UNL     1     -13.314   2.641 -33.970  1.00  0.00     0.106 A 
HETATM   22  N   UNL     1     -14.437   1.907 -34.012  1.00  0.00    -0.352 N 
HETATM   23  H   UNL     1     -15.300   2.407 -34.193  1.00  0.00     0.166 HD
HETATM   24  C   UNL     1     -14.467   0.577 -33.893  1.00  0.00     0.089 A 
HETATM   25  C   UNL     1     -13.293  -0.127 -33.708  1.00  0.00     0.018 A 
HETATM   26  C   UNL     1     -12.098   0.583 -33.635  1.00  0.00     0.014 A 
BRANCH  21  27
HETATM   27  N   UNL     1     -13.448   3.966 -34.305  1.00  0.00    -0.385 N 
HETATM   28  H   UNL     1     -13.958   4.560 -33.635  1.00  0.00     0.157 HD
HETATM   29  H   UNL     1     -13.612   4.278 -35.251  1.00  0.00     0.157 HD
ENDBRANCH  21  27
ENDBRANCH  19  20
ENDBRANCH   3  19
TORSDOF 6
ENDMDL
MODEL 6
REMARK VINA RESULT:      -7.4      1.971      3.860
REMARK  6 active torsions:
REMARK  status: ('A' for Active; 'I' for Inactive)
REMARK    1  A    between atoms: C_2  and  C_3 
REMARK    2  A    between atoms: C_5  and  N_6 
REMARK       I    between atoms: N_6  and  C_7 
REMARK       I    between atoms: C_7  and  N_8 
REMARK    3  A    between atoms: N_8  and  C_9 
REMARK    4  A    between atoms: C_9  and  C_10 
REMARK    5  A    between atoms: C_11  and  N_12 
REMARK    6  A    between atoms: C_19  and  O_20 
ROOT
HETATM    1  N   UNL     1      -6.094   0.892 -31.320  1.00  0.00    -0.306 N 
HETATM    2  C   UNL     1      -5.551   2.123 -31.190  1.00  0.00     0.321 C 
HETATM    3  N   UNL     1      -5.785   3.030 -32.176  1.00  0.00    -0.338 N 
HETATM    4  O   UNL     1      -5.011   2.440 -30.133  1.00  0.00    -0.247 OA
HETATM    5  H   UNL     1      -6.209   0.406 -30.436  1.00  0.00     0.171 HD
HETATM    6  H   UNL     1      -6.466   2.777 -32.881  1.00  0.00     0.164 HD
ENDROOT
BRANCH   1   7
HETATM    7  C   UNL     1      -6.437   0.105 -32.434  1.00  0.00     0.070 A 
HETATM    8  C   UNL     1      -5.625  -0.925 -32.926  1.00  0.00     0.040 A 
HETATM    9  C   UNL     1      -6.065  -1.766 -33.969  1.00  0.00    -0.048 A 
HETATM   10  C   UNL     1      -7.343  -1.518 -34.502  1.00  0.00     0.011 A 
HETATM   11  C   UNL     1      -8.161  -0.493 -34.016  1.00  0.00     0.039 A 
HETATM   12  C   UNL     1      -7.724   0.309 -32.968  1.00  0.00     0.095 A 
BRANCH   9  13
HETATM   13  C   UNL     1      -5.239  -2.987 -34.426  1.00  0.00    -0.024 C 
HETATM   14  C   UNL     1      -6.198  -4.189 -34.549  1.00  0.00     0.019 C 
HETATM   15  C   UNL     1      -4.115  -3.352 -33.430  1.00  0.00     0.019 C 
HETATM   16  C   UNL     1      -4.557  -2.766 -35.796  1.00  0.00     0.019 C 
ENDBRANCH   9  13
BRANCH  12  17
HETATM   17  O   UNL     1      -8.450   1.318 -32.382  1.00  0.00    -0.354 OA
HETATM   18  C   UNL     1      -9.819   1.431 -32.755  1.00  0.00     0.210 C 
ENDBRANCH  12  17
ENDBRANCH   1   7
BRANCH   3  19
HETATM   19  C   UNL     1      -5.324   4.404 -32.081  1.00  0.00     0.166 C 
BRANCH  19  20
HETATM   20  C   UNL     1      -4.092   4.699 -32.914  1.00  0.00     0.003 A 
HETATM   21  C   UNL     1      -2.778   4.547 -32.428  1.00  0.00     0.106 A 
HETATM   22  N   UNL     1      -1.752   4.799 -33.255  1.00  0.00    -0.352 N 
HETATM   23  H   UNL     1      -0.821   4.642 -32.885  1.00  0.00     0.166 HD
HETATM   24  C   UNL     1      -1.892   5.176 -34.529  1.00  0.00     0.089 A 
HETATM   25  C   UNL     1      -3.154   5.333 -35.068  1.00  0.00     0.018 A 
HETATM   26  C   UNL     1      -4.258   5.107 -34.252  1.00  0.00     0.014 A 
BRANCH  21  27
HETATM   27  N   UNL     1      -2.453   3.983 -31.219  1.00  0.00    -0.385 N 
HETATM   28  H   UNL     1      -2.737   3.002 -31.078  1.00  0.00     0.157 HD
HETATM   29  H   UNL     1      -2.493   4.492 -30.348  1.00  0.00     0.157 HD
ENDBRANCH  21  27
ENDBRANCH  19  20
ENDBRANCH   3  19
TORSDOF 6
ENDMDL
MODEL 7
REMARK VINA RESULT:      -7.4      5.060      7.169
REMARK  6 active torsions:
REMARK  status: ('A' for Active; 'I' for Inactive)
REMARK    1  A    between atoms: C_2  and  C_3 
REMARK    2  A    between atoms: C_5  and  N_6 
REMARK       I    between atoms: N_6  and  C_7 
REMARK       I    between atoms: C_7  and  N_8 
REMARK    3  A    between atoms: N_8  and  C_9 
REMARK    4  A    between atoms: C_9  and  C_10 
REMARK    5  A    between atoms: C_11  and  N_12 
REMARK    6  A    between atoms: C_19  and  O_20 
ROOT
HETATM    1  N   UNL     1      -1.348   5.057 -31.730  1.00  0.00    -0.306 N 
HETATM    2  C   UNL     1      -0.379   5.549 -30.927  1.00  0.00     0.321 C 
HETATM    3  N   UNL     1      -0.295   5.065 -29.659  1.00  0.00    -0.338 N 
HETATM    4  O   UNL     1       0.486   6.284 -31.399  1.00  0.00    -0.247 OA
HETATM    5  H   UNL     1      -1.143   5.157 -32.719  1.00  0.00     0.171 HD
HETATM    6  H   UNL     1      -0.872   4.265 -29.433  1.00  0.00     0.164 HD
ENDROOT
BRANCH   1   7
HETATM    7  C   UNL     1      -2.627   4.528 -31.480  1.00  0.00     0.070 A 
HETATM    8  C   UNL     1      -2.950   3.177 -31.667  1.00  0.00     0.040 A 
HETATM    9  C   UNL     1      -4.209   2.669 -31.288  1.00  0.00    -0.048 A 
HETATM   10  C   UNL     1      -5.129   3.575 -30.729  1.00  0.00     0.011 A 
HETATM   11  C   UNL     1      -4.815   4.924 -30.538  1.00  0.00     0.039 A 
HETATM   12  C   UNL     1      -3.559   5.403 -30.890  1.00  0.00     0.095 A 
BRANCH   9  13
HETATM   13  C   UNL     1      -4.527   1.161 -31.361  1.00  0.00    -0.024 C 
HETATM   14  C   UNL     1      -5.525   0.830 -30.231  1.00  0.00     0.019 C 
HETATM   15  C   UNL     1      -3.271   0.278 -31.183  1.00  0.00     0.019 C 
HETATM   16  C   UNL     1      -5.166   0.751 -32.709  1.00  0.00     0.019 C 
ENDBRANCH   9  13
BRANCH  12  17
HETATM   17  O   UNL     1      -3.122   6.695 -30.715  1.00  0.00    -0.354 OA
HETATM   18  C   UNL     1      -3.271   7.258 -29.416  1.00  0.00     0.210 C 
ENDBRANCH  12  17
ENDBRANCH   1   7
BRANCH   3  19
HETATM   19  C   UNL     1       0.769   5.463 -28.754  1.00  0.00     0.166 C 
BRANCH  19  20
HETATM   20  C   UNL     1       0.447   6.693 -27.928  1.00  0.00     0.003 A 
HETATM   21  C   UNL     1      -0.380   6.661 -26.788  1.00  0.00     0.106 A 
HETATM   22  N   UNL     1      -0.576   7.798 -26.102  1.00  0.00    -0.352 N 
HETATM   23  H   UNL     1      -1.145   7.731 -25.265  1.00  0.00     0.166 HD
HETATM   24  C   UNL     1      -0.023   8.971 -26.422  1.00  0.00     0.089 A 
HETATM   25  C   UNL     1       0.806   9.066 -27.524  1.00  0.00     0.018 A 
HETATM   26  C   UNL     1       1.030   7.924 -28.287  1.00  0.00     0.014 A 
BRANCH  21  27
HETATM   27  N   UNL     1      -0.865   5.516 -26.206  1.00  0.00    -0.385 N 
HETATM   28  H   UNL     1      -0.172   4.792 -25.969  1.00  0.00     0.157 HD
HETATM   29  H   UNL     1      -1.741   5.092 -26.476  1.00  0.00     0.157 HD
ENDBRANCH  21  27
ENDBRANCH  19  20
ENDBRANCH   3  19
TORSDOF 6
ENDMDL
MODEL 8
REMARK VINA RESULT:      -7.2      2.759      4.433
REMARK  6 active torsions:
REMARK  status: ('A' for Active; 'I' for Inactive)
REMARK    1  A    between atoms: C_2  and  C_3 
REMARK    2  A    between atoms: C_5  and  N_6 
REMARK       I    between atoms: N_6  and  C_7 
REMARK       I    between atoms: C_7  and  N_8 
REMARK    3  A    between atoms: N_8  and  C_9 
REMARK    4  A    between atoms: C_9  and  C_10 
REMARK    5  A    between atoms: C_11  and  N_12 
REMARK    6  A    between atoms: C_19  and  O_20 
ROOT
HETATM    1  N   UNL     1      -7.474   3.104 -32.790  1.00  0.00    -0.306 N 
HETATM    2  C   UNL     1      -6.777   4.223 -32.489  1.00  0.00     0.321 C 
HETATM    3  N   UNL     1      -5.738   4.563 -33.298  1.00  0.00    -0.338 N 
HETATM    4  O   UNL     1      -7.189   4.978 -31.611  1.00  0.00    -0.247 OA
HETATM    5  H   UNL     1      -8.416   3.102 -32.412  1.00  0.00     0.171 HD
HETATM    6  H   UNL     1      -5.633   4.039 -34.157  1.00  0.00     0.164 HD
ENDROOT
BRANCH   1   7
HETATM    7  C   UNL     1      -7.130   1.900 -33.430  1.00  0.00     0.070 A 
HETATM    8  C   UNL     1      -5.980   1.165 -33.116  1.00  0.00     0.040 A 
HETATM    9  C   UNL     1      -5.739  -0.097 -33.698  1.00  0.00    -0.048 A 
HETATM   10  C   UNL     1      -6.692  -0.577 -34.615  1.00  0.00     0.011 A 
HETATM   11  C   UNL     1      -7.844   0.150 -34.933  1.00  0.00     0.039 A 
HETATM   12  C   UNL     1      -8.080   1.379 -34.328  1.00  0.00     0.095 A 
BRANCH   9  13
HETATM   13  C   UNL     1      -4.549  -0.976 -33.259  1.00  0.00    -0.024 C 
HETATM   14  C   UNL     1      -4.582  -2.272 -34.096  1.00  0.00     0.019 C 
HETATM   15  C   UNL     1      -4.610  -1.355 -31.762  1.00  0.00     0.019 C 
HETATM   16  C   UNL     1      -3.184  -0.286 -33.482  1.00  0.00     0.019 C 
ENDBRANCH   9  13
BRANCH  12  17
HETATM   17  O   UNL     1      -9.191   2.164 -34.530  1.00  0.00    -0.354 OA
HETATM   18  C   UNL     1     -10.454   1.596 -34.203  1.00  0.00     0.210 C 
ENDBRANCH  12  17
ENDBRANCH   1   7
BRANCH   3  19
HETATM   19  C   UNL     1      -4.991   5.794 -33.112  1.00  0.00     0.166 C 
BRANCH  19  20
HETATM   20  C   UNL     1      -3.603   5.591 -32.533  1.00  0.00     0.003 A 
HETATM   21  C   UNL     1      -3.356   5.464 -31.152  1.00  0.00     0.106 A 
HETATM   22  N   UNL     1      -2.096   5.250 -30.741  1.00  0.00    -0.352 N 
HETATM   23  H   UNL     1      -1.959   5.125 -29.744  1.00  0.00     0.166 HD
HETATM   24  C   UNL     1      -1.049   5.134 -31.562  1.00  0.00     0.089 A 
HETATM   25  C   UNL     1      -1.228   5.240 -32.929  1.00  0.00     0.018 A 
HETATM   26  C   UNL     1      -2.510   5.483 -33.413  1.00  0.00     0.014 A 
BRANCH  21  27
HETATM   27  N   UNL     1      -4.329   5.360 -30.190  1.00  0.00    -0.385 N 
HETATM   28  H   UNL     1      -5.050   6.096 -30.183  1.00  0.00     0.157 HD
HETATM   29  H   UNL     1      -4.140   5.041 -29.250  1.00  0.00     0.157 HD
ENDBRANCH  21  27
ENDBRANCH  19  20
ENDBRANCH   3  19
TORSDOF 6
ENDMDL
MODEL 9
REMARK VINA RESULT:      -7.1      2.467      7.069
REMARK  6 active torsions:
REMARK  status: ('A' for Active; 'I' for Inactive)
REMARK    1  A    between atoms: C_2  and  C_3 
REMARK    2  A    between atoms: C_5  and  N_6 
REMARK       I    between atoms: N_6  and  C_7 
REMARK       I    between atoms: C_7  and  N_8 
REMARK    3  A    between atoms: N_8  and  C_9 
REMARK    4  A    between atoms: C_9  and  C_10 
REMARK    5  A    between atoms: C_11  and  N_12 
REMARK    6  A    between atoms: C_19  and  O_20 
ROOT
HETATM    1  N   UNL     1      -4.755   2.801 -30.348  1.00  0.00    -0.306 N 
HETATM    2  C   UNL     1      -5.531   1.705 -30.500  1.00  0.00     0.321 C 
HETATM    3  N   UNL     1      -5.867   1.332 -31.765  1.00  0.00    -0.338 N 
HETATM    4  O   UNL     1      -5.773   0.992 -29.529  1.00  0.00    -0.247 OA
HETATM    5  H   UNL     1      -4.243   2.815 -29.472  1.00  0.00     0.171 HD
HETATM    6  H   UNL     1      -5.403   1.813 -32.524  1.00  0.00     0.164 HD
ENDROOT
BRANCH   1   7
HETATM    7  C   UNL     1      -4.588   3.973 -31.107  1.00  0.00     0.070 A 
HETATM    8  C   UNL     1      -3.376   4.331 -31.712  1.00  0.00     0.040 A 
HETATM    9  C   UNL     1      -3.288   5.451 -32.563  1.00  0.00    -0.048 A 
HETATM   10  C   UNL     1      -4.462   6.201 -32.767  1.00  0.00     0.011 A 
HETATM   11  C   UNL     1      -5.676   5.850 -32.169  1.00  0.00     0.039 A 
HETATM   12  C   UNL     1      -5.752   4.726 -31.355  1.00  0.00     0.095 A 
BRANCH   9  13
HETATM   13  C   UNL     1      -1.997   5.776 -33.343  1.00  0.00    -0.024 C 
HETATM   14  C   UNL     1      -0.797   5.337 -32.478  1.00  0.00     0.019 C 
HETATM   15  C   UNL     1      -1.854   7.282 -33.656  1.00  0.00     0.019 C 
HETATM   16  C   UNL     1      -1.916   5.036 -34.698  1.00  0.00     0.019 C 
ENDBRANCH   9  13
BRANCH  12  17
HETATM   17  O   UNL     1      -6.893   4.260 -30.745  1.00  0.00    -0.354 OA
HETATM   18  C   UNL     1      -8.086   4.254 -31.522  1.00  0.00     0.210 C 
ENDBRANCH  12  17
ENDBRANCH   1   7
BRANCH   3  19
HETATM   19  C   UNL     1      -6.617   0.117 -32.033  1.00  0.00     0.166 C 
BRANCH  19  20
HETATM   20  C   UNL     1      -5.878  -0.884 -32.900  1.00  0.00     0.003 A 
HETATM   21  C   UNL     1      -4.576  -1.339 -32.612  1.00  0.00     0.106 A 
HETATM   22  N   UNL     1      -4.020  -2.254 -33.421  1.00  0.00    -0.352 N 
HETATM   23  H   UNL     1      -3.098  -2.588 -33.163  1.00  0.00     0.166 HD
HETATM   24  C   UNL     1      -4.630  -2.782 -34.486  1.00  0.00     0.089 A 
HETATM   25  C   UNL     1      -5.911  -2.384 -34.815  1.00  0.00     0.018 A 
HETATM   26  C   UNL     1      -6.531  -1.421 -34.025  1.00  0.00     0.014 A 
BRANCH  21  27
HETATM   27  N   UNL     1      -3.886  -1.055 -31.459  1.00  0.00    -0.385 N 
HETATM   28  H   UNL     1      -4.313  -0.364 -30.826  1.00  0.00     0.157 HD
HETATM   29  H   UNL     1      -2.879  -0.992 -31.424  1.00  0.00     0.157 HD
ENDBRANCH  21  27
ENDBRANCH  19  20
ENDBRANCH   3  19
TORSDOF 6
ENDMDL
MODEL 10
REMARK VINA RESULT:      -7.1      3.797      8.291
REMARK  6 active torsions:
REMARK  status: ('A' for Active; 'I' for Inactive)
REMARK    1  A    between atoms: C_2  and  C_3 
REMARK    2  A    between atoms: C_5  and  N_6 
REMARK       I    between atoms: N_6  and  C_7 
REMARK       I    between atoms: C_7  and  N_8 
REMARK    3  A    between atoms: N_8  and  C_9 
REMARK    4  A    between atoms: C_9  and  C_10 
REMARK    5  A    between atoms: C_11  and  N_12 
REMARK    6  A    between atoms: C_19  and  O_20 
ROOT
HETATM    1  N   UNL     1      -3.641   5.915 -31.574  1.00  0.00    -0.306 N 
HETATM    2  C   UNL     1      -4.528   4.901 -31.468  1.00  0.00     0.321 C 
HETATM    3  N   UNL     1      -4.413   4.062 -30.404  1.00  0.00    -0.338 N 
HETATM    4  O   UNL     1      -5.496   4.859 -32.225  1.00  0.00    -0.247 OA
HETATM    5  H   UNL     1      -3.980   6.692 -32.132  1.00  0.00     0.171 HD
HETATM    6  H   UNL     1      -3.758   4.326 -29.679  1.00  0.00     0.164 HD
ENDROOT
BRANCH   1   7
HETATM    7  C   UNL     1      -2.307   6.073 -31.156  1.00  0.00     0.070 A 
HETATM    8  C   UNL     1      -1.944   6.755 -29.987  1.00  0.00     0.040 A 
HETATM    9  C   UNL     1      -0.605   6.782 -29.545  1.00  0.00    -0.048 A 
HETATM   10  C   UNL     1       0.349   6.111 -30.333  1.00  0.00     0.011 A 
HETATM   11  C   UNL     1      -0.006   5.427 -31.500  1.00  0.00     0.039 A 
HETATM   12  C   UNL     1      -1.334   5.385 -31.906  1.00  0.00     0.095 A 
BRANCH   9  13
HETATM   13  C   UNL     1      -0.214   7.411 -28.191  1.00  0.00    -0.024 C 
HETATM   14  C   UNL     1      -1.296   8.443 -27.816  1.00  0.00     0.019 C 
HETATM   15  C   UNL     1       1.155   8.127 -28.242  1.00  0.00     0.019 C 
HETATM   16  C   UNL     1      -0.122   6.367 -27.054  1.00  0.00     0.019 C 
ENDBRANCH   9  13
BRANCH  12  17
HETATM   17  O   UNL     1      -1.808   4.716 -33.010  1.00  0.00    -0.354 OA
HETATM   18  C   UNL     1      -1.467   5.248 -34.286  1.00  0.00     0.210 C 
ENDBRANCH  12  17
ENDBRANCH   1   7
BRANCH   3  19
HETATM   19  C   UNL     1      -5.374   3.002 -30.154  1.00  0.00     0.166 C 
BRANCH  19  20
HETATM   20  C   UNL     1      -4.980   1.662 -30.744  1.00  0.00     0.003 A 
HETATM   21  C   UNL     1      -5.871   0.576 -30.852  1.00  0.00     0.106 A 
HETATM   22  N   UNL     1      -5.437  -0.559 -31.423  1.00  0.00    -0.352 N 
HETATM   23  H   UNL     1      -6.115  -1.307 -31.520  1.00  0.00     0.166 HD
HETATM   24  C   UNL     1      -4.206  -0.728 -31.913  1.00  0.00     0.089 A 
HETATM   25  C   UNL     1      -3.289   0.303 -31.846  1.00  0.00     0.018 A 
HETATM   26  C   UNL     1      -3.675   1.498 -31.246  1.00  0.00     0.014 A 
BRANCH  21  27
HETATM   27  N   UNL     1      -7.216   0.638 -30.584  1.00  0.00    -0.385 N 
HETATM   28  H   UNL     1      -7.837   0.120 -31.223  1.00  0.00     0.157 HD
HETATM   29  H   UNL     1      -7.671   1.477 -30.252  1.00  0.00     0.157 HD
ENDBRANCH  21  27
ENDBRANCH  19  20
ENDBRANCH   3  19
TORSDOF 6
ENDMDL
