MODEL 1
REMARK VINA RESULT:      -8.3      0.000      0.000
REMARK  10 active torsions:
REMARK  status: ('A' for Active; 'I' for Inactive)
REMARK    1  A    between atoms: C_2  and  O_3 
REMARK    2  A    between atoms: O_3  and  C_4 
REMARK    3  A    between atoms: C_7  and  C_8 
REMARK    4  A    between atoms: C_8  and  C_9 
REMARK    5  A    between atoms: C_10  and  C_11 
REMARK    6  A    between atoms: C_13  and  N_14 
REMARK    7  A    between atoms: N_20  and  C_21 
REMARK    8  A    between atoms: C_21  and  C_22 
REMARK    9  A    between atoms: C_22  and  N_23 
REMARK   10  A    between atoms: C_34  and  O_35 
ROOT
HETATM    1  C   UNL     1      -5.150   0.267 -32.959  1.00  0.00     0.059 C 
HETATM    2  C   UNL     1      -4.946   1.746 -32.859  1.00  0.00     0.161 C 
HETATM    3  N   UNL     1      -3.686   1.803 -32.118  1.00  0.00    -0.332 N 
HETATM    4  C   UNL     1      -3.332   0.560 -31.637  1.00  0.00     0.278 C 
HETATM    5  O   UNL     1      -2.395   0.343 -30.888  1.00  0.00    -0.265 OA
HETATM    6  C   UNL     1      -4.247  -0.423 -32.242  1.00  0.00     0.146 C 
ENDROOT
BRANCH   1   7
HETATM    7  C   UNL     1      -6.219  -0.461 -33.671  1.00  0.00     0.193 C 
HETATM    8  O   UNL     1      -5.923  -1.464 -34.318  1.00  0.00    -0.287 OA
BRANCH   7   9
HETATM    9  C   UNL     1      -7.636  -0.049 -33.581  1.00  0.00     0.015 A 
HETATM   10  C   UNL     1      -8.439  -0.312 -32.467  1.00  0.00     0.018 A 
HETATM   11  C   UNL     1      -9.770   0.134 -32.435  1.00  0.00     0.038 A 
HETATM   12  C   UNL     1     -10.286   0.887 -33.489  1.00  0.00     0.069 A 
HETATM   13  C   UNL     1      -9.470   1.166 -34.588  1.00  0.00     0.038 A 
HETATM   14  C   UNL     1      -8.152   0.707 -34.637  1.00  0.00     0.018 A 
BRANCH  12  15
HETATM   15  O   UNL     1     -11.535   1.423 -33.581  1.00  0.00    -0.347 OA
BRANCH  15  16
HETATM   16  C   UNL     1     -12.356   1.162 -34.722  1.00  0.00     0.120 C 
HETATM   17  C   UNL     1     -12.738   2.491 -35.364  1.00  0.00     0.040 C 
HETATM   18  C   UNL     1     -13.600   0.432 -34.221  1.00  0.00     0.040 C 
ENDBRANCH  15  16
ENDBRANCH  12  15
ENDBRANCH   7   9
ENDBRANCH   1   7
BRANCH   2  19
HETATM   19  C   UNL     1      -6.054   2.509 -32.158  1.00  0.00    -0.028 A 
HETATM   20  C   UNL     1      -6.744   3.514 -32.858  1.00  0.00     0.045 A 
HETATM   21  C   UNL     1      -7.766   4.247 -32.230  1.00  0.00     0.103 A 
HETATM   22  C   UNL     1      -8.122   3.984 -30.905  1.00  0.00     0.036 A 
HETATM   23  C   UNL     1      -7.440   2.989 -30.205  1.00  0.00     0.003 A 
HETATM   24  C   UNL     1      -6.411   2.267 -30.819  1.00  0.00     0.010 A 
BRANCH  21  25
HETATM   25  N   UNL     1      -8.435   5.325 -32.970  1.00  0.00    -0.116 N 
HETATM   26  O   UNL     1      -8.234   5.375 -34.192  1.00  0.00    -0.532 OA
HETATM   27  O   UNL     1      -9.118   6.130 -32.328  1.00  0.00    -0.532 OA
ENDBRANCH  21  25
ENDBRANCH   2  19
BRANCH   6  28
HETATM   28  O   UNL     1      -4.129  -1.769 -32.060  1.00  0.00    -0.355 OA
HETATM   29  H   UNL     1      -3.587  -2.124 -32.803  1.00  0.00     0.218 HD
ENDBRANCH   6  28
BRANCH   3  30
HETATM   30  C   UNL     1      -3.008   3.039 -31.749  1.00  0.00     0.155 C 
BRANCH  30  31
HETATM   31  C   UNL     1      -2.866   4.042 -32.930  1.00  0.00     0.254 C 
BRANCH  31  32
HETATM   32  N   UNL     1      -1.504   4.752 -32.967  1.00  0.00    -0.066 N 
HETATM   33  H   UNL     1      -0.818   3.995 -33.127  1.00  0.00     0.280 HD
HETATM   34  C   UNL     1      -1.119   5.378 -31.619  1.00  0.00     0.262 C 
HETATM   35  C   UNL     1      -1.800   6.749 -31.386  1.00  0.00     0.260 C 
HETATM   36  N   UNL     1      -1.541   7.686 -32.536  1.00  0.00    -0.072 N 
HETATM   37  H   UNL     1      -0.555   7.990 -32.565  1.00  0.00     0.277 HD
HETATM   38  H   UNL     1      -2.069   8.563 -32.380  1.00  0.00     0.277 HD
HETATM   39  C   UNL     1      -1.971   7.121 -33.871  1.00  0.00     0.260 C 
HETATM   40  C   UNL     1      -1.309   5.743 -34.130  1.00  0.00     0.262 C 
ENDBRANCH  31  32
ENDBRANCH  30  31
ENDBRANCH   3  30
TORSDOF 10
ENDMDL
MODEL 2
REMARK VINA RESULT:      -8.3      3.491      7.318
REMARK  10 active torsions:
REMARK  status: ('A' for Active; 'I' for Inactive)
REMARK    1  A    between atoms: C_2  and  O_3 
REMARK    2  A    between atoms: O_3  and  C_4 
REMARK    3  A    between atoms: C_7  and  C_8 
REMARK    4  A    between atoms: C_8  and  C_9 
REMARK    5  A    between atoms: C_10  and  C_11 
REMARK    6  A    between atoms: C_13  and  N_14 
REMARK    7  A    between atoms: N_20  and  C_21 
REMARK    8  A    between atoms: C_21  and  C_22 
REMARK    9  A    between atoms: C_22  and  N_23 
REMARK   10  A    between atoms: C_34  and  O_35 
ROOT
HETATM    1  C   UNL     1      -7.270   3.845 -33.076  1.00  0.00     0.059 C 
HETATM    2  C   UNL     1      -8.707   4.166 -33.345  1.00  0.00     0.161 C 
HETATM    3  N   UNL     1      -9.021   5.018 -32.198  1.00  0.00    -0.332 N 
HETATM    4  C   UNL     1      -8.004   4.997 -31.267  1.00  0.00     0.278 C 
HETATM    5  O   UNL     1      -8.056   5.520 -30.166  1.00  0.00    -0.265 OA
HETATM    6  C   UNL     1      -6.863   4.293 -31.877  1.00  0.00     0.146 C 
ENDROOT
BRANCH   1   7
HETATM    7  C   UNL     1      -6.334   3.076 -33.918  1.00  0.00     0.193 C 
HETATM    8  O   UNL     1      -5.510   3.686 -34.598  1.00  0.00    -0.287 OA
BRANCH   7   9
HETATM    9  C   UNL     1      -6.324   1.597 -33.923  1.00  0.00     0.015 A 
HETATM   10  C   UNL     1      -5.839   0.833 -32.858  1.00  0.00     0.018 A 
HETATM   11  C   UNL     1      -5.886  -0.569 -32.916  1.00  0.00     0.038 A 
HETATM   12  C   UNL     1      -6.464  -1.210 -34.011  1.00  0.00     0.069 A 
HETATM   13  C   UNL     1      -6.968  -0.438 -35.061  1.00  0.00     0.038 A 
HETATM   14  C   UNL     1      -6.904   0.956 -35.021  1.00  0.00     0.018 A 
BRANCH  12  15
HETATM   15  O   UNL     1      -6.621  -2.551 -34.189  1.00  0.00    -0.347 OA
BRANCH  15  16
HETATM   16  C   UNL     1      -5.772  -3.271 -35.087  1.00  0.00     0.120 C 
HETATM   17  C   UNL     1      -6.449  -4.588 -35.449  1.00  0.00     0.040 C 
HETATM   18  C   UNL     1      -4.459  -3.527 -34.352  1.00  0.00     0.040 C 
ENDBRANCH  15  16
ENDBRANCH  12  15
ENDBRANCH   7   9
ENDBRANCH   1   7
BRANCH   2  19
HETATM   19  C   UNL     1      -9.635   2.968 -33.437  1.00  0.00    -0.028 A 
HETATM   20  C   UNL     1     -10.692   2.989 -34.362  1.00  0.00     0.045 A 
HETATM   21  C   UNL     1     -11.575   1.900 -34.460  1.00  0.00     0.103 A 
HETATM   22  C   UNL     1     -11.413   0.775 -33.649  1.00  0.00     0.036 A 
HETATM   23  C   UNL     1     -10.367   0.749 -32.727  1.00  0.00     0.003 A 
HETATM   24  C   UNL     1      -9.494   1.837 -32.613  1.00  0.00     0.010 A 
BRANCH  21  25
HETATM   25  N   UNL     1     -12.700   1.970 -35.401  1.00  0.00    -0.116 N 
HETATM   26  O   UNL     1     -13.781   1.498 -35.018  1.00  0.00    -0.532 OA
HETATM   27  O   UNL     1     -12.492   2.453 -36.519  1.00  0.00    -0.532 OA
ENDBRANCH  21  25
ENDBRANCH   2  19
BRANCH   6  28
HETATM   28  O   UNL     1      -5.649   4.166 -31.270  1.00  0.00    -0.355 OA
HETATM   29  H   UNL     1      -5.312   5.075 -31.086  1.00  0.00     0.218 HD
ENDBRANCH   6  28
BRANCH   3  30
HETATM   30  C   UNL     1     -10.322   5.631 -31.965  1.00  0.00     0.155 C 
BRANCH  30  31
HETATM   31  C   UNL     1     -11.252   4.778 -31.054  1.00  0.00     0.254 C 
BRANCH  31  32
HETATM   32  N   UNL     1     -12.717   5.243 -31.071  1.00  0.00    -0.066 N 
HETATM   33  H   UNL     1     -12.780   5.936 -30.307  1.00  0.00     0.280 HD
HETATM   34  C   UNL     1     -13.702   4.126 -30.698  1.00  0.00     0.262 C 
HETATM   35  C   UNL     1     -14.012   3.187 -31.890  1.00  0.00     0.260 C 
HETATM   36  N   UNL     1     -14.475   3.968 -33.091  1.00  0.00    -0.072 N 
HETATM   37  H   UNL     1     -15.414   4.371 -32.945  1.00  0.00     0.277 HD
HETATM   38  H   UNL     1     -14.601   3.317 -33.886  1.00  0.00     0.277 HD
HETATM   39  C   UNL     1     -13.491   5.033 -33.521  1.00  0.00     0.260 C 
HETATM   40  C   UNL     1     -13.156   5.987 -32.346  1.00  0.00     0.262 C 
ENDBRANCH  31  32
ENDBRANCH  30  31
ENDBRANCH   3  30
TORSDOF 10
ENDMDL
MODEL 3
REMARK VINA RESULT:      -8.0      2.514      8.866
REMARK  10 active torsions:
REMARK  status: ('A' for Active; 'I' for Inactive)
REMARK    1  A    between atoms: C_2  and  O_3 
REMARK    2  A    between atoms: O_3  and  C_4 
REMARK    3  A    between atoms: C_7  and  C_8 
REMARK    4  A    between atoms: C_8  and  C_9 
REMARK    5  A    between atoms: C_10  and  C_11 
REMARK    6  A    between atoms: C_13  and  N_14 
REMARK    7  A    between atoms: N_20  and  C_21 
REMARK    8  A    between atoms: C_21  and  C_22 
REMARK    9  A    between atoms: C_22  and  N_23 
REMARK   10  A    between atoms: C_34  and  O_35 
ROOT
HETATM    1  C   UNL     1      -5.549   4.945 -33.738  1.00  0.00     0.059 C 
HETATM    2  C   UNL     1      -6.419   3.730 -33.820  1.00  0.00     0.161 C 
HETATM    3  N   UNL     1      -7.567   4.156 -33.020  1.00  0.00    -0.332 N 
HETATM    4  C   UNL     1      -7.307   5.339 -32.362  1.00  0.00     0.278 C 
HETATM    5  O   UNL     1      -8.042   5.855 -31.537  1.00  0.00    -0.265 OA
HETATM    6  C   UNL     1      -6.033   5.863 -32.886  1.00  0.00     0.146 C 
ENDROOT
BRANCH   1   7
HETATM    7  C   UNL     1      -4.258   5.189 -34.410  1.00  0.00     0.193 C 
HETATM    8  O   UNL     1      -4.222   5.190 -35.640  1.00  0.00    -0.287 OA
BRANCH   7   9
HETATM    9  C   UNL     1      -3.026   5.488 -33.649  1.00  0.00     0.015 A 
HETATM   10  C   UNL     1      -2.310   6.680 -33.792  1.00  0.00     0.018 A 
HETATM   11  C   UNL     1      -1.163   6.912 -33.015  1.00  0.00     0.038 A 
HETATM   12  C   UNL     1      -0.760   5.980 -32.059  1.00  0.00     0.069 A 
HETATM   13  C   UNL     1      -1.495   4.802 -31.906  1.00  0.00     0.038 A 
HETATM   14  C   UNL     1      -2.623   4.554 -32.690  1.00  0.00     0.018 A 
BRANCH  12  15
HETATM   15  O   UNL     1       0.297   6.084 -31.206  1.00  0.00    -0.347 OA
BRANCH  15  16
HETATM   16  C   UNL     1       0.100   6.014 -29.791  1.00  0.00     0.120 C 
HETATM   17  C   UNL     1       0.535   7.337 -29.172  1.00  0.00     0.040 C 
HETATM   18  C   UNL     1       0.967   4.869 -29.274  1.00  0.00     0.040 C 
ENDBRANCH  15  16
ENDBRANCH  12  15
ENDBRANCH   7   9
ENDBRANCH   1   7
BRANCH   2  19
HETATM   19  C   UNL     1      -5.799   2.450 -33.290  1.00  0.00    -0.028 A 
HETATM   20  C   UNL     1      -5.992   1.250 -33.996  1.00  0.00     0.045 A 
HETATM   21  C   UNL     1      -5.442   0.047 -33.522  1.00  0.00     0.103 A 
HETATM   22  C   UNL     1      -4.685   0.022 -32.348  1.00  0.00     0.036 A 
HETATM   23  C   UNL     1      -4.491   1.209 -31.641  1.00  0.00     0.003 A 
HETATM   24  C   UNL     1      -5.050   2.407 -32.100  1.00  0.00     0.010 A 
BRANCH  21  25
HETATM   25  N   UNL     1      -5.702  -1.200 -34.253  1.00  0.00    -0.116 N 
HETATM   26  O   UNL     1      -6.785  -1.283 -34.851  1.00  0.00    -0.532 OA
HETATM   27  O   UNL     1      -4.851  -2.094 -34.195  1.00  0.00    -0.532 OA
ENDBRANCH  21  25
ENDBRANCH   2  19
BRANCH   6  28
HETATM   28  O   UNL     1      -5.513   7.070 -32.523  1.00  0.00    -0.355 OA
HETATM   29  H   UNL     1      -4.531   7.005 -32.595  1.00  0.00     0.218 HD
ENDBRANCH   6  28
BRANCH   3  30
HETATM   30  C   UNL     1      -8.746   3.334 -32.776  1.00  0.00     0.155 C 
BRANCH  30  31
HETATM   31  C   UNL     1      -9.919   3.632 -33.754  1.00  0.00     0.254 C 
BRANCH  31  32
HETATM   32  N   UNL     1     -10.291   2.434 -34.643  1.00  0.00    -0.066 N 
HETATM   33  H   UNL     1      -9.880   2.656 -35.565  1.00  0.00     0.280 HD
HETATM   34  C   UNL     1     -11.802   2.315 -34.883  1.00  0.00     0.262 C 
HETATM   35  C   UNL     1     -12.539   1.635 -33.702  1.00  0.00     0.260 C 
HETATM   36  N   UNL     1     -11.915   0.306 -33.367  1.00  0.00    -0.072 N 
HETATM   37  H   UNL     1     -12.093  -0.395 -34.103  1.00  0.00     0.277 HD
HETATM   38  H   UNL     1     -12.385  -0.083 -32.530  1.00  0.00     0.277 HD
HETATM   39  C   UNL     1     -10.437   0.404 -33.061  1.00  0.00     0.260 C 
HETATM   40  C   UNL     1      -9.673   1.087 -34.225  1.00  0.00     0.262 C 
ENDBRANCH  31  32
ENDBRANCH  30  31
ENDBRANCH   3  30
TORSDOF 10
ENDMDL
MODEL 4
REMARK VINA RESULT:      -8.0      2.781      8.686
REMARK  10 active torsions:
REMARK  status: ('A' for Active; 'I' for Inactive)
REMARK    1  A    between atoms: C_2  and  O_3 
REMARK    2  A    between atoms: O_3  and  C_4 
REMARK    3  A    between atoms: C_7  and  C_8 
REMARK    4  A    between atoms: C_8  and  C_9 
REMARK    5  A    between atoms: C_10  and  C_11 
REMARK    6  A    between atoms: C_13  and  N_14 
REMARK    7  A    between atoms: N_20  and  C_21 
REMARK    8  A    between atoms: C_21  and  C_22 
REMARK    9  A    between atoms: C_22  and  N_23 
REMARK   10  A    between atoms: C_34  and  O_35 
ROOT
HETATM    1  C   UNL     1      -6.483   3.496 -32.877  1.00  0.00     0.059 C 
HETATM    2  C   UNL     1      -7.096   2.145 -33.078  1.00  0.00     0.161 C 
HETATM    3  N   UNL     1      -8.199   2.196 -32.120  1.00  0.00    -0.332 N 
HETATM    4  C   UNL     1      -8.102   3.302 -31.302  1.00  0.00     0.278 C 
HETATM    5  O   UNL     1      -8.818   3.525 -30.341  1.00  0.00    -0.265 OA
HETATM    6  C   UNL     1      -7.033   4.158 -31.846  1.00  0.00     0.146 C 
ENDROOT
BRANCH   1   7
HETATM    7  C   UNL     1      -5.359   4.106 -33.614  1.00  0.00     0.193 C 
HETATM    8  O   UNL     1      -5.508   4.374 -34.805  1.00  0.00    -0.287 OA
BRANCH   7   9
HETATM    9  C   UNL     1      -4.086   4.455 -32.947  1.00  0.00     0.015 A 
HETATM   10  C   UNL     1      -3.401   3.578 -32.102  1.00  0.00     0.018 A 
HETATM   11  C   UNL     1      -2.180   3.963 -31.525  1.00  0.00     0.038 A 
HETATM   12  C   UNL     1      -1.617   5.201 -31.829  1.00  0.00     0.069 A 
HETATM   13  C   UNL     1      -2.297   6.063 -32.693  1.00  0.00     0.038 A 
HETATM   14  C   UNL     1      -3.521   5.696 -33.254  1.00  0.00     0.018 A 
BRANCH  12  15
HETATM   15  O   UNL     1      -0.427   5.694 -31.385  1.00  0.00    -0.347 OA
BRANCH  15  16
HETATM   16  C   UNL     1      -0.151   5.776 -29.984  1.00  0.00     0.120 C 
HETATM   17  C   UNL     1       0.332   7.187 -29.664  1.00  0.00     0.040 C 
HETATM   18  C   UNL     1       0.941   4.754 -29.682  1.00  0.00     0.040 C 
ENDBRANCH  15  16
ENDBRANCH  12  15
ENDBRANCH   7   9
ENDBRANCH   1   7
BRANCH   2  19
HETATM   19  C   UNL     1      -6.173   0.968 -32.823  1.00  0.00    -0.028 A 
HETATM   20  C   UNL     1      -6.147  -0.095 -33.743  1.00  0.00     0.045 A 
HETATM   21  C   UNL     1      -5.312  -1.204 -33.526  1.00  0.00     0.103 A 
HETATM   22  C   UNL     1      -4.486  -1.268 -32.401  1.00  0.00     0.036 A 
HETATM   23  C   UNL     1      -4.509  -0.218 -31.484  1.00  0.00     0.003 A 
HETATM   24  C   UNL     1      -5.350   0.883 -31.686  1.00  0.00     0.010 A 
BRANCH  21  25
HETATM   25  N   UNL     1      -5.342  -2.323 -34.478  1.00  0.00    -0.116 N 
HETATM   26  O   UNL     1      -6.454  -2.659 -34.912  1.00  0.00    -0.532 OA
HETATM   27  O   UNL     1      -4.273  -2.879 -34.752  1.00  0.00    -0.532 OA
ENDBRANCH  21  25
ENDBRANCH   2  19
BRANCH   6  28
HETATM   28  O   UNL     1      -6.723   5.385 -31.339  1.00  0.00    -0.355 OA
HETATM   29  H   UNL     1      -7.513   5.711 -30.846  1.00  0.00     0.218 HD
ENDBRANCH   6  28
BRANCH   3  30
HETATM   30  C   UNL     1      -9.151   1.112 -31.908  1.00  0.00     0.155 C 
BRANCH  30  31
HETATM   31  C   UNL     1     -10.109   0.888 -33.113  1.00  0.00     0.254 C 
BRANCH  31  32
HETATM   32  N   UNL     1     -11.501   1.509 -32.910  1.00  0.00    -0.066 N 
HETATM   33  H   UNL     1     -11.777   1.225 -31.956  1.00  0.00     0.280 HD
HETATM   34  C   UNL     1     -12.563   0.909 -33.842  1.00  0.00     0.262 C 
HETATM   35  C   UNL     1     -12.523   1.527 -35.263  1.00  0.00     0.260 C 
HETATM   36  N   UNL     1     -12.607   3.029 -35.204  1.00  0.00    -0.072 N 
HETATM   37  H   UNL     1     -13.544   3.347 -34.908  1.00  0.00     0.277 HD
HETATM   38  H   UNL     1     -12.504   3.408 -36.162  1.00  0.00     0.277 HD
HETATM   39  C   UNL     1     -11.530   3.652 -34.344  1.00  0.00     0.260 C 
HETATM   40  C   UNL     1     -11.543   3.048 -32.916  1.00  0.00     0.262 C 
ENDBRANCH  31  32
ENDBRANCH  30  31
ENDBRANCH   3  30
TORSDOF 10
ENDMDL
MODEL 5
REMARK VINA RESULT:      -7.9      3.951      9.091
REMARK  10 active torsions:
REMARK  status: ('A' for Active; 'I' for Inactive)
REMARK    1  A    between atoms: C_2  and  O_3 
REMARK    2  A    between atoms: O_3  and  C_4 
REMARK    3  A    between atoms: C_7  and  C_8 
REMARK    4  A    between atoms: C_8  and  C_9 
REMARK    5  A    between atoms: C_10  and  C_11 
REMARK    6  A    between atoms: C_13  and  N_14 
REMARK    7  A    between atoms: N_20  and  C_21 
REMARK    8  A    between atoms: C_21  and  C_22 
REMARK    9  A    between atoms: C_22  and  N_23 
REMARK   10  A    between atoms: C_34  and  O_35 
ROOT
HETATM    1  C   UNL     1      -3.198   5.976 -33.054  1.00  0.00     0.059 C 
HETATM    2  C   UNL     1      -3.949   5.346 -31.923  1.00  0.00     0.161 C 
HETATM    3  N   UNL     1      -4.841   4.444 -32.651  1.00  0.00    -0.332 N 
HETATM    4  C   UNL     1      -4.800   4.686 -34.008  1.00  0.00     0.278 C 
HETATM    5  O   UNL     1      -5.529   4.163 -34.832  1.00  0.00    -0.265 OA
HETATM    6  C   UNL     1      -3.692   5.626 -34.253  1.00  0.00     0.146 C 
ENDROOT
BRANCH   1   7
HETATM    7  C   UNL     1      -2.078   6.935 -32.983  1.00  0.00     0.193 C 
HETATM    8  O   UNL     1      -1.819   7.617 -33.973  1.00  0.00    -0.287 OA
BRANCH   7   9
HETATM    9  C   UNL     1      -1.301   7.136 -31.740  1.00  0.00     0.015 A 
HETATM   10  C   UNL     1      -1.663   8.058 -30.754  1.00  0.00     0.018 A 
HETATM   11  C   UNL     1      -0.896   8.177 -29.584  1.00  0.00     0.038 A 
HETATM   12  C   UNL     1       0.201   7.342 -29.373  1.00  0.00     0.069 A 
HETATM   13  C   UNL     1       0.542   6.407 -30.353  1.00  0.00     0.038 A 
HETATM   14  C   UNL     1      -0.203   6.298 -31.529  1.00  0.00     0.018 A 
BRANCH  12  15
HETATM   15  O   UNL     1       1.008   7.309 -28.276  1.00  0.00    -0.347 OA
BRANCH  15  16
HETATM   16  C   UNL     1       0.477   7.562 -26.973  1.00  0.00     0.120 C 
HETATM   17  C   UNL     1       1.631   7.879 -26.028  1.00  0.00     0.040 C 
HETATM   18  C   UNL     1      -0.245   6.292 -26.529  1.00  0.00     0.040 C 
ENDBRANCH  15  16
ENDBRANCH  12  15
ENDBRANCH   7   9
ENDBRANCH   1   7
BRANCH   2  19
HETATM   19  C   UNL     1      -4.714   6.310 -31.034  1.00  0.00    -0.028 A 
HETATM   20  C   UNL     1      -4.673   6.137 -29.640  1.00  0.00     0.045 A 
HETATM   21  C   UNL     1      -5.382   7.006 -28.793  1.00  0.00     0.103 A 
HETATM   22  C   UNL     1      -6.132   8.061 -29.318  1.00  0.00     0.036 A 
HETATM   23  C   UNL     1      -6.178   8.237 -30.701  1.00  0.00     0.003 A 
HETATM   24  C   UNL     1      -5.487   7.365 -31.551  1.00  0.00     0.010 A 
BRANCH  21  25
HETATM   25  N   UNL     1      -5.362   6.771 -27.343  1.00  0.00    -0.116 N 
HETATM   26  O   UNL     1      -5.242   5.596 -26.967  1.00  0.00    -0.532 OA
HETATM   27  O   UNL     1      -5.504   7.746 -26.597  1.00  0.00    -0.532 OA
ENDBRANCH  21  25
ENDBRANCH   2  19
BRANCH   6  28
HETATM   28  O   UNL     1      -3.302   6.016 -35.499  1.00  0.00    -0.355 OA
HETATM   29  H   UNL     1      -2.356   5.759 -35.610  1.00  0.00     0.218 HD
ENDBRANCH   6  28
BRANCH   3  30
HETATM   30  C   UNL     1      -5.808   3.557 -32.014  1.00  0.00     0.155 C 
BRANCH  30  31
HETATM   31  C   UNL     1      -5.330   2.079 -31.935  1.00  0.00     0.254 C 
BRANCH  31  32
HETATM   32  N   UNL     1      -6.461   1.060 -32.144  1.00  0.00    -0.066 N 
HETATM   33  H   UNL     1      -7.038   1.130 -31.290  1.00  0.00     0.280 HD
HETATM   34  C   UNL     1      -5.959  -0.390 -32.185  1.00  0.00     0.262 C 
HETATM   35  C   UNL     1      -5.384  -0.780 -33.570  1.00  0.00     0.260 C 
HETATM   36  N   UNL     1      -6.375  -0.496 -34.668  1.00  0.00    -0.072 N 
HETATM   37  H   UNL     1      -7.180  -1.142 -34.631  1.00  0.00     0.277 HD
HETATM   38  H   UNL     1      -5.930  -0.700 -35.580  1.00  0.00     0.277 HD
HETATM   39  C   UNL     1      -6.838   0.943 -34.692  1.00  0.00     0.260 C 
HETATM   40  C   UNL     1      -7.413   1.365 -33.316  1.00  0.00     0.262 C 
ENDBRANCH  31  32
ENDBRANCH  30  31
ENDBRANCH   3  30
TORSDOF 10
ENDMDL
MODEL 6
REMARK VINA RESULT:      -7.8      2.603      4.504
REMARK  10 active torsions:
REMARK  status: ('A' for Active; 'I' for Inactive)
REMARK    1  A    between atoms: C_2  and  O_3 
REMARK    2  A    between atoms: O_3  and  C_4 
REMARK    3  A    between atoms: C_7  and  C_8 
REMARK    4  A    between atoms: C_8  and  C_9 
REMARK    5  A    between atoms: C_10  and  C_11 
REMARK    6  A    between atoms: C_13  and  N_14 
REMARK    7  A    between atoms: N_20  and  C_21 
REMARK    8  A    between atoms: C_21  and  C_22 
REMARK    9  A    between atoms: C_22  and  N_23 
REMARK   10  A    between atoms: C_34  and  O_35 
ROOT
HETATM    1  C   UNL     1      -7.202   2.097 -31.508  1.00  0.00     0.059 C 
HETATM    2  C   UNL     1      -7.306   3.385 -32.262  1.00  0.00     0.161 C 
HETATM    3  N   UNL     1      -6.509   4.269 -31.413  1.00  0.00    -0.332 N 
HETATM    4  C   UNL     1      -6.194   3.662 -30.215  1.00  0.00     0.278 C 
HETATM    5  O   UNL     1      -5.643   4.213 -29.278  1.00  0.00    -0.265 OA
HETATM    6  C   UNL     1      -6.589   2.247 -30.322  1.00  0.00     0.146 C 
ENDROOT
BRANCH   1   7
HETATM    7  C   UNL     1      -7.730   0.772 -31.888  1.00  0.00     0.193 C 
HETATM    8  O   UNL     1      -8.862   0.459 -31.523  1.00  0.00    -0.287 OA
BRANCH   7   9
HETATM    9  C   UNL     1      -6.961  -0.160 -32.741  1.00  0.00     0.015 A 
HETATM   10  C   UNL     1      -5.764  -0.757 -32.334  1.00  0.00     0.018 A 
HETATM   11  C   UNL     1      -5.100  -1.656 -33.183  1.00  0.00     0.038 A 
HETATM   12  C   UNL     1      -5.653  -2.001 -34.416  1.00  0.00     0.069 A 
HETATM   13  C   UNL     1      -6.862  -1.417 -34.805  1.00  0.00     0.038 A 
HETATM   14  C   UNL     1      -7.517  -0.506 -33.975  1.00  0.00     0.018 A 
BRANCH  12  15
HETATM   15  O   UNL     1      -5.152  -2.885 -35.322  1.00  0.00    -0.347 OA
BRANCH  15  16
HETATM   16  C   UNL     1      -5.395  -4.288 -35.181  1.00  0.00     0.120 C 
HETATM   17  C   UNL     1      -6.842  -4.491 -34.745  1.00  0.00     0.040 C 
HETATM   18  C   UNL     1      -4.435  -4.803 -34.113  1.00  0.00     0.040 C 
ENDBRANCH  15  16
ENDBRANCH  12  15
ENDBRANCH   7   9
ENDBRANCH   1   7
BRANCH   2  19
HETATM   19  C   UNL     1      -8.717   3.907 -32.464  1.00  0.00    -0.028 A 
HETATM   20  C   UNL     1      -9.080   4.436 -33.714  1.00  0.00     0.045 A 
HETATM   21  C   UNL     1     -10.375   4.939 -33.927  1.00  0.00     0.103 A 
HETATM   22  C   UNL     1     -11.327   4.914 -32.905  1.00  0.00     0.036 A 
HETATM   23  C   UNL     1     -10.972   4.394 -31.661  1.00  0.00     0.003 A 
HETATM   24  C   UNL     1      -9.679   3.905 -31.438  1.00  0.00     0.010 A 
BRANCH  21  25
HETATM   25  N   UNL     1     -10.712   5.530 -35.228  1.00  0.00    -0.116 N 
HETATM   26  O   UNL     1      -9.784   6.053 -35.863  1.00  0.00    -0.532 OA
HETATM   27  O   UNL     1     -11.894   5.506 -35.587  1.00  0.00    -0.532 OA
ENDBRANCH  21  25
ENDBRANCH   2  19
BRANCH   6  28
HETATM   28  O   UNL     1      -6.340   1.324 -29.351  1.00  0.00    -0.355 OA
HETATM   29  H   UNL     1      -5.772   1.754 -28.669  1.00  0.00     0.218 HD
ENDBRANCH   6  28
BRANCH   3  30
HETATM   30  C   UNL     1      -6.266   5.678 -31.696  1.00  0.00     0.155 C 
BRANCH  30  31
HETATM   31  C   UNL     1      -4.821   5.968 -32.194  1.00  0.00     0.254 C 
BRANCH  31  32
HETATM   32  N   UNL     1      -4.229   4.830 -33.042  1.00  0.00    -0.066 N 
HETATM   33  H   UNL     1      -4.993   4.139 -33.123  1.00  0.00     0.280 HD
HETATM   34  C   UNL     1      -3.082   4.094 -32.334  1.00  0.00     0.262 C 
HETATM   35  C   UNL     1      -1.734   4.848 -32.449  1.00  0.00     0.260 C 
HETATM   36  N   UNL     1      -1.405   5.156 -33.886  1.00  0.00    -0.072 N 
HETATM   37  H   UNL     1      -1.165   4.302 -34.413  1.00  0.00     0.277 HD
HETATM   38  H   UNL     1      -0.538   5.721 -33.917  1.00  0.00     0.277 HD
HETATM   39  C   UNL     1      -2.490   5.939 -34.589  1.00  0.00     0.260 C 
HETATM   40  C   UNL     1      -3.855   5.211 -34.486  1.00  0.00     0.262 C 
ENDBRANCH  31  32
ENDBRANCH  30  31
ENDBRANCH   3  30
TORSDOF 10
ENDMDL
MODEL 7
REMARK VINA RESULT:      -7.8      1.892      4.310
REMARK  10 active torsions:
REMARK  status: ('A' for Active; 'I' for Inactive)
REMARK    1  A    between atoms: C_2  and  O_3 
REMARK    2  A    between atoms: O_3  and  C_4 
REMARK    3  A    between atoms: C_7  and  C_8 
REMARK    4  A    between atoms: C_8  and  C_9 
REMARK    5  A    between atoms: C_10  and  C_11 
REMARK    6  A    between atoms: C_13  and  N_14 
REMARK    7  A    between atoms: N_20  and  C_21 
REMARK    8  A    between atoms: C_21  and  C_22 
REMARK    9  A    between atoms: C_22  and  N_23 
REMARK   10  A    between atoms: C_34  and  O_35 
ROOT
HETATM    1  C   UNL     1      -5.947   4.102 -32.331  1.00  0.00     0.059 C 
HETATM    2  C   UNL     1      -4.554   3.615 -32.083  1.00  0.00     0.161 C 
HETATM    3  N   UNL     1      -3.839   4.239 -33.195  1.00  0.00    -0.332 N 
HETATM    4  C   UNL     1      -4.715   4.801 -34.101  1.00  0.00     0.278 C 
HETATM    5  O   UNL     1      -4.395   5.279 -35.176  1.00  0.00    -0.265 OA
HETATM    6  C   UNL     1      -6.058   4.760 -33.496  1.00  0.00     0.146 C 
ENDROOT
BRANCH   1   7
HETATM    7  C   UNL     1      -7.150   3.886 -31.503  1.00  0.00     0.193 C 
HETATM    8  O   UNL     1      -7.212   4.424 -30.398  1.00  0.00    -0.287 OA
BRANCH   7   9
HETATM    9  C   UNL     1      -8.300   3.093 -31.988  1.00  0.00     0.015 A 
HETATM   10  C   UNL     1      -9.544   3.654 -32.288  1.00  0.00     0.018 A 
HETATM   11  C   UNL     1     -10.585   2.846 -32.774  1.00  0.00     0.038 A 
HETATM   12  C   UNL     1     -10.370   1.489 -33.011  1.00  0.00     0.069 A 
HETATM   13  C   UNL     1      -9.117   0.940 -32.731  1.00  0.00     0.038 A 
HETATM   14  C   UNL     1      -8.084   1.733 -32.227  1.00  0.00     0.018 A 
BRANCH  12  15
HETATM   15  O   UNL     1     -11.262   0.593 -33.518  1.00  0.00    -0.347 OA
BRANCH  15  16
HETATM   16  C   UNL     1     -12.610   0.985 -33.794  1.00  0.00     0.120 C 
HETATM   17  C   UNL     1     -13.514  -0.233 -33.637  1.00  0.00     0.040 C 
HETATM   18  C   UNL     1     -12.642   1.495 -35.233  1.00  0.00     0.040 C 
ENDBRANCH  15  16
ENDBRANCH  12  15
ENDBRANCH   7   9
ENDBRANCH   1   7
BRANCH   2  19
HETATM   19  C   UNL     1      -4.386   2.106 -32.072  1.00  0.00    -0.028 A 
HETATM   20  C   UNL     1      -5.023   1.338 -33.061  1.00  0.00     0.045 A 
HETATM   21  C   UNL     1      -4.896  -0.062 -33.068  1.00  0.00     0.103 A 
HETATM   22  C   UNL     1      -4.127  -0.714 -32.101  1.00  0.00     0.036 A 
HETATM   23  C   UNL     1      -3.494   0.043 -31.116  1.00  0.00     0.003 A 
HETATM   24  C   UNL     1      -3.629   1.436 -31.094  1.00  0.00     0.010 A 
BRANCH  21  25
HETATM   25  N   UNL     1      -5.614  -0.843 -34.084  1.00  0.00    -0.116 N 
HETATM   26  O   UNL     1      -6.394  -0.222 -34.821  1.00  0.00    -0.532 OA
HETATM   27  O   UNL     1      -5.427  -2.064 -34.114  1.00  0.00    -0.532 OA
ENDBRANCH  21  25
ENDBRANCH   2  19
BRANCH   6  28
HETATM   28  O   UNL     1      -7.158   5.316 -34.078  1.00  0.00    -0.355 OA
HETATM   29  H   UNL     1      -7.329   4.828 -34.919  1.00  0.00     0.218 HD
ENDBRANCH   6  28
BRANCH   3  30
HETATM   30  C   UNL     1      -2.408   4.099 -33.431  1.00  0.00     0.155 C 
BRANCH  30  31
HETATM   31  C   UNL     1      -1.562   5.240 -32.794  1.00  0.00     0.254 C 
BRANCH  31  32
HETATM   32  N   UNL     1      -1.540   5.198 -31.258  1.00  0.00    -0.066 N 
HETATM   33  H   UNL     1      -1.963   4.286 -31.015  1.00  0.00     0.280 HD
HETATM   34  C   UNL     1      -2.450   6.257 -30.619  1.00  0.00     0.262 C 
HETATM   35  C   UNL     1      -1.785   7.655 -30.566  1.00  0.00     0.260 C 
HETATM   36  N   UNL     1      -0.438   7.590 -29.896  1.00  0.00    -0.072 N 
HETATM   37  H   UNL     1      -0.524   7.406 -28.884  1.00  0.00     0.277 HD
HETATM   38  H   UNL     1       0.005   8.525 -29.944  1.00  0.00     0.277 HD
HETATM   39  C   UNL     1       0.502   6.601 -30.547  1.00  0.00     0.260 C 
HETATM   40  C   UNL     1      -0.139   5.191 -30.620  1.00  0.00     0.262 C 
ENDBRANCH  31  32
ENDBRANCH  30  31
ENDBRANCH   3  30
TORSDOF 10
ENDMDL
MODEL 8
REMARK VINA RESULT:      -7.7      4.030      9.319
REMARK  10 active torsions:
REMARK  status: ('A' for Active; 'I' for Inactive)
REMARK    1  A    between atoms: C_2  and  O_3 
REMARK    2  A    between atoms: O_3  and  C_4 
REMARK    3  A    between atoms: C_7  and  C_8 
REMARK    4  A    between atoms: C_8  and  C_9 
REMARK    5  A    between atoms: C_10  and  C_11 
REMARK    6  A    between atoms: C_13  and  N_14 
REMARK    7  A    between atoms: N_20  and  C_21 
REMARK    8  A    between atoms: C_21  and  C_22 
REMARK    9  A    between atoms: C_22  and  N_23 
REMARK   10  A    between atoms: C_34  and  O_35 
ROOT
HETATM    1  C   UNL     1      -3.232   6.028 -32.991  1.00  0.00     0.059 C 
HETATM    2  C   UNL     1      -4.025   5.416 -31.880  1.00  0.00     0.161 C 
HETATM    3  N   UNL     1      -4.876   4.489 -32.625  1.00  0.00    -0.332 N 
HETATM    4  C   UNL     1      -4.778   4.701 -33.984  1.00  0.00     0.278 C 
HETATM    5  O   UNL     1      -5.466   4.152 -34.827  1.00  0.00    -0.265 OA
HETATM    6  C   UNL     1      -3.669   5.646 -34.202  1.00  0.00     0.146 C 
ENDROOT
BRANCH   1   7
HETATM    7  C   UNL     1      -2.125   7.000 -32.894  1.00  0.00     0.193 C 
HETATM    8  O   UNL     1      -1.849   7.685 -33.878  1.00  0.00    -0.287 OA
BRANCH   7   9
HETATM    9  C   UNL     1      -1.381   7.211 -31.634  1.00  0.00     0.015 A 
HETATM   10  C   UNL     1      -0.182   6.557 -31.335  1.00  0.00     0.018 A 
HETATM   11  C   UNL     1       0.489   6.827 -30.131  1.00  0.00     0.038 A 
HETATM   12  C   UNL     1      -0.008   7.786 -29.248  1.00  0.00     0.069 A 
HETATM   13  C   UNL     1      -1.194   8.452 -29.565  1.00  0.00     0.038 A 
HETATM   14  C   UNL     1      -1.878   8.173 -30.750  1.00  0.00     0.018 A 
BRANCH  12  15
HETATM   15  O   UNL     1       0.550   8.186 -28.072  1.00  0.00    -0.347 OA
BRANCH  15  16
HETATM   16  C   UNL     1       1.073   7.225 -27.151  1.00  0.00     0.120 C 
HETATM   17  C   UNL     1      -0.093   6.509 -26.477  1.00  0.00     0.040 C 
HETATM   18  C   UNL     1       1.897   7.993 -26.121  1.00  0.00     0.040 C 
ENDBRANCH  15  16
ENDBRANCH  12  15
ENDBRANCH   7   9
ENDBRANCH   1   7
BRANCH   2  19
HETATM   19  C   UNL     1      -4.837   6.392 -31.048  1.00  0.00    -0.028 A 
HETATM   20  C   UNL     1      -4.834   6.268 -29.648  1.00  0.00     0.045 A 
HETATM   21  C   UNL     1      -5.586   7.148 -28.852  1.00  0.00     0.103 A 
HETATM   22  C   UNL     1      -6.342   8.167 -29.435  1.00  0.00     0.036 A 
HETATM   23  C   UNL     1      -6.352   8.295 -30.824  1.00  0.00     0.003 A 
HETATM   24  C   UNL     1      -5.617   7.411 -31.623  1.00  0.00     0.010 A 
BRANCH  21  25
HETATM   25  N   UNL     1      -5.604   6.963 -27.395  1.00  0.00    -0.116 N 
HETATM   26  O   UNL     1      -5.643   7.990 -26.700  1.00  0.00    -0.532 OA
HETATM   27  O   UNL     1      -5.538   5.810 -26.957  1.00  0.00    -0.532 OA
ENDBRANCH  21  25
ENDBRANCH   2  19
BRANCH   6  28
HETATM   28  O   UNL     1      -3.229   6.012 -35.439  1.00  0.00    -0.355 OA
HETATM   29  H   UNL     1      -3.560   5.342 -36.083  1.00  0.00     0.218 HD
ENDBRANCH   6  28
BRANCH   3  30
HETATM   30  C   UNL     1      -5.861   3.607 -32.010  1.00  0.00     0.155 C 
BRANCH  30  31
HETATM   31  C   UNL     1      -7.331   4.029 -32.298  1.00  0.00     0.254 C 
BRANCH  31  32
HETATM   32  N   UNL     1      -8.025   3.147 -33.349  1.00  0.00    -0.066 N 
HETATM   33  H   UNL     1      -7.506   3.328 -34.225  1.00  0.00     0.280 HD
HETATM   34  C   UNL     1      -9.471   3.580 -33.630  1.00  0.00     0.262 C 
HETATM   35  C   UNL     1     -10.465   3.051 -32.566  1.00  0.00     0.260 C 
HETATM   36  N   UNL     1     -10.344   1.558 -32.405  1.00  0.00    -0.072 N 
HETATM   37  H   UNL     1     -10.699   1.055 -33.233  1.00  0.00     0.277 HD
HETATM   38  H   UNL     1     -10.969   1.253 -31.638  1.00  0.00     0.277 HD
HETATM   39  C   UNL     1      -8.941   1.110 -32.062  1.00  0.00     0.260 C 
HETATM   40  C   UNL     1      -7.921   1.630 -33.107  1.00  0.00     0.262 C 
ENDBRANCH  31  32
ENDBRANCH  30  31
ENDBRANCH   3  30
TORSDOF 10
ENDMDL
MODEL 9
REMARK VINA RESULT:      -7.6      1.652      2.381
REMARK  10 active torsions:
REMARK  status: ('A' for Active; 'I' for Inactive)
REMARK    1  A    between atoms: C_2  and  O_3 
REMARK    2  A    between atoms: O_3  and  C_4 
REMARK    3  A    between atoms: C_7  and  C_8 
REMARK    4  A    between atoms: C_8  and  C_9 
REMARK    5  A    between atoms: C_10  and  C_11 
REMARK    6  A    between atoms: C_13  and  N_14 
REMARK    7  A    between atoms: N_20  and  C_21 
REMARK    8  A    between atoms: C_21  and  C_22 
REMARK    9  A    between atoms: C_22  and  N_23 
REMARK   10  A    between atoms: C_34  and  O_35 
ROOT
HETATM    1  C   UNL     1      -6.908   1.229 -33.282  1.00  0.00     0.059 C 
HETATM    2  C   UNL     1      -6.399   2.478 -32.632  1.00  0.00     0.161 C 
HETATM    3  N   UNL     1      -5.375   1.930 -31.742  1.00  0.00    -0.332 N 
HETATM    4  C   UNL     1      -5.442   0.554 -31.690  1.00  0.00     0.278 C 
HETATM    5  O   UNL     1      -4.787  -0.149 -30.939  1.00  0.00    -0.265 OA
HETATM    6  C   UNL     1      -6.386   0.119 -32.734  1.00  0.00     0.146 C 
ENDROOT
BRANCH   1   7
HETATM    7  C   UNL     1      -7.912   1.105 -34.356  1.00  0.00     0.193 C 
HETATM    8  O   UNL     1      -7.590   0.555 -35.408  1.00  0.00    -0.287 OA
BRANCH   7   9
HETATM    9  C   UNL     1      -9.305   1.570 -34.179  1.00  0.00     0.015 A 
HETATM   10  C   UNL     1      -9.741   2.841 -34.564  1.00  0.00     0.018 A 
HETATM   11  C   UNL     1     -11.086   3.207 -34.395  1.00  0.00     0.038 A 
HETATM   12  C   UNL     1     -12.007   2.290 -33.890  1.00  0.00     0.069 A 
HETATM   13  C   UNL     1     -11.568   1.014 -33.529  1.00  0.00     0.038 A 
HETATM   14  C   UNL     1     -10.228   0.650 -33.674  1.00  0.00     0.018 A 
BRANCH  12  15
HETATM   15  O   UNL     1     -13.344   2.482 -33.710  1.00  0.00    -0.347 OA
BRANCH  15  16
HETATM   16  C   UNL     1     -14.161   1.446 -33.160  1.00  0.00     0.120 C 
HETATM   17  C   UNL     1     -14.954   0.798 -34.289  1.00  0.00     0.040 C 
HETATM   18  C   UNL     1     -15.101   2.103 -32.153  1.00  0.00     0.040 C 
ENDBRANCH  15  16
ENDBRANCH  12  15
ENDBRANCH   7   9
ENDBRANCH   1   7
BRANCH   2  19
HETATM   19  C   UNL     1      -7.438   3.286 -31.875  1.00  0.00    -0.028 A 
HETATM   20  C   UNL     1      -7.506   4.675 -32.077  1.00  0.00     0.045 A 
HETATM   21  C   UNL     1      -8.448   5.451 -31.380  1.00  0.00     0.103 A 
HETATM   22  C   UNL     1      -9.340   4.857 -30.485  1.00  0.00     0.036 A 
HETATM   23  C   UNL     1      -9.276   3.479 -30.279  1.00  0.00     0.003 A 
HETATM   24  C   UNL     1      -8.329   2.703 -30.957  1.00  0.00     0.010 A 
BRANCH  21  25
HETATM   25  N   UNL     1      -8.463   6.907 -31.573  1.00  0.00    -0.116 N 
HETATM   26  O   UNL     1      -7.393   7.439 -31.905  1.00  0.00    -0.532 OA
HETATM   27  O   UNL     1      -9.520   7.509 -31.356  1.00  0.00    -0.532 OA
ENDBRANCH  21  25
ENDBRANCH   2  19
BRANCH   6  28
HETATM   28  O   UNL     1      -6.628  -1.189 -33.029  1.00  0.00    -0.355 OA
HETATM   29  H   UNL     1      -7.200  -1.555 -32.314  1.00  0.00     0.218 HD
ENDBRANCH   6  28
BRANCH   3  30
HETATM   30  C   UNL     1      -4.540   2.735 -30.860  1.00  0.00     0.155 C 
BRANCH  30  31
HETATM   31  C   UNL     1      -3.153   3.085 -31.473  1.00  0.00     0.254 C 
BRANCH  31  32
HETATM   32  N   UNL     1      -2.741   4.549 -31.253  1.00  0.00    -0.066 N 
HETATM   33  H   UNL     1      -2.557   4.619 -30.238  1.00  0.00     0.280 HD
HETATM   34  C   UNL     1      -3.880   5.539 -31.534  1.00  0.00     0.262 C 
HETATM   35  C   UNL     1      -4.046   5.838 -33.045  1.00  0.00     0.260 C 
HETATM   36  N   UNL     1      -2.745   6.289 -33.655  1.00  0.00    -0.072 N 
HETATM   37  H   UNL     1      -2.475   7.229 -33.325  1.00  0.00     0.277 HD
HETATM   38  H   UNL     1      -2.877   6.409 -34.675  1.00  0.00     0.277 HD
HETATM   39  C   UNL     1      -1.619   5.301 -33.449  1.00  0.00     0.260 C 
HETATM   40  C   UNL     1      -1.433   4.976 -31.944  1.00  0.00     0.262 C 
ENDBRANCH  31  32
ENDBRANCH  30  31
ENDBRANCH   3  30
TORSDOF 10
ENDMDL
MODEL 10
REMARK VINA RESULT:      -7.4      3.638      8.949
REMARK  10 active torsions:
REMARK  status: ('A' for Active; 'I' for Inactive)
REMARK    1  A    between atoms: C_2  and  O_3 
REMARK    2  A    between atoms: O_3  and  C_4 
REMARK    3  A    between atoms: C_7  and  C_8 
REMARK    4  A    between atoms: C_8  and  C_9 
REMARK    5  A    between atoms: C_10  and  C_11 
REMARK    6  A    between atoms: C_13  and  N_14 
REMARK    7  A    between atoms: N_20  and  C_21 
REMARK    8  A    between atoms: C_21  and  C_22 
REMARK    9  A    between atoms: C_22  and  N_23 
REMARK   10  A    between atoms: C_34  and  O_35 
ROOT
HETATM    1  C   UNL     1      -3.243   5.703 -33.014  1.00  0.00     0.059 C 
HETATM    2  C   UNL     1      -4.059   5.281 -31.832  1.00  0.00     0.161 C 
HETATM    3  N   UNL     1      -5.205   4.659 -32.494  1.00  0.00    -0.332 N 
HETATM    4  C   UNL     1      -5.190   4.899 -33.852  1.00  0.00     0.278 C 
HETATM    5  O   UNL     1      -6.085   4.600 -34.623  1.00  0.00    -0.265 OA
HETATM    6  C   UNL     1      -3.890   5.513 -34.175  1.00  0.00     0.146 C 
ENDROOT
BRANCH   1   7
HETATM    7  C   UNL     1      -1.906   6.328 -33.023  1.00  0.00     0.193 C 
HETATM    8  O   UNL     1      -1.439   6.714 -34.094  1.00  0.00    -0.287 OA
BRANCH   7   9
HETATM    9  C   UNL     1      -1.141   6.553 -31.777  1.00  0.00     0.015 A 
HETATM   10  C   UNL     1      -1.271   7.706 -30.998  1.00  0.00     0.018 A 
HETATM   11  C   UNL     1      -0.537   7.842 -29.809  1.00  0.00     0.038 A 
HETATM   12  C   UNL     1       0.288   6.807 -29.369  1.00  0.00     0.069 A 
HETATM   13  C   UNL     1       0.395   5.648 -30.142  1.00  0.00     0.038 A 
HETATM   14  C   UNL     1      -0.316   5.515 -31.336  1.00  0.00     0.018 A 
BRANCH  12  15
HETATM   15  O   UNL     1       1.024   6.774 -28.223  1.00  0.00    -0.347 OA
BRANCH  15  16
HETATM   16  C   UNL     1       0.554   7.423 -27.038  1.00  0.00     0.120 C 
HETATM   17  C   UNL     1       1.757   7.815 -26.187  1.00  0.00     0.040 C 
HETATM   18  C   UNL     1      -0.324   6.419 -26.296  1.00  0.00     0.040 C 
ENDBRANCH  15  16
ENDBRANCH  12  15
ENDBRANCH   7   9
ENDBRANCH   1   7
BRANCH   2  19
HETATM   19  C   UNL     1      -4.478   6.402 -30.899  1.00  0.00    -0.028 A 
HETATM   20  C   UNL     1      -4.975   7.599 -31.444  1.00  0.00     0.045 A 
HETATM   21  C   UNL     1      -5.359   8.659 -30.605  1.00  0.00     0.103 A 
HETATM   22  C   UNL     1      -5.264   8.541 -29.217  1.00  0.00     0.036 A 
HETATM   23  C   UNL     1      -4.770   7.357 -28.669  1.00  0.00     0.003 A 
HETATM   24  C   UNL     1      -4.371   6.303 -29.500  1.00  0.00     0.010 A 
BRANCH  21  25
HETATM   25  N   UNL     1      -5.827   9.916 -31.204  1.00  0.00    -0.116 N 
HETATM   26  O   UNL     1      -7.040  10.005 -31.444  1.00  0.00    -0.532 OA
HETATM   27  O   UNL     1      -4.985  10.782 -31.466  1.00  0.00    -0.532 OA
ENDBRANCH  21  25
ENDBRANCH   2  19
BRANCH   6  28
HETATM   28  O   UNL     1      -3.493   5.802 -35.447  1.00  0.00    -0.355 OA
HETATM   29  H   UNL     1      -3.806   5.070 -36.030  1.00  0.00     0.218 HD
ENDBRANCH   6  28
BRANCH   3  30
HETATM   30  C   UNL     1      -6.329   4.054 -31.790  1.00  0.00     0.155 C 
BRANCH  30  31
HETATM   31  C   UNL     1      -6.173   2.520 -31.582  1.00  0.00     0.254 C 
BRANCH  31  32
HETATM   32  N   UNL     1      -5.745   1.773 -32.855  1.00  0.00    -0.066 N 
HETATM   33  H   UNL     1      -5.278   2.490 -33.435  1.00  0.00     0.280 HD
HETATM   34  C   UNL     1      -6.937   1.282 -33.689  1.00  0.00     0.262 C 
HETATM   35  C   UNL     1      -7.537  -0.039 -33.145  1.00  0.00     0.260 C 
HETATM   36  N   UNL     1      -6.476  -1.098 -33.001  1.00  0.00    -0.072 N 
HETATM   37  H   UNL     1      -6.141  -1.430 -33.919  1.00  0.00     0.277 HD
HETATM   38  H   UNL     1      -6.899  -1.939 -32.569  1.00  0.00     0.277 HD
HETATM   39  C   UNL     1      -5.319  -0.664 -32.129  1.00  0.00     0.260 C 
HETATM   40  C   UNL     1      -4.701   0.660 -32.646  1.00  0.00     0.262 C 
ENDBRANCH  31  32
ENDBRANCH  30  31
ENDBRANCH   3  30
TORSDOF 10
ENDMDL
