MODEL 1
REMARK VINA RESULT:      -9.2      0.000      0.000
REMARK  5 active torsions:
REMARK  status: ('A' for Active; 'I' for Inactive)
REMARK    1  A    between atoms: C_2  and  N_3 
REMARK       I    between atoms: N_3  and  C_4 
REMARK       I    between atoms: C_4  and  N_5 
REMARK    2  A    between atoms: N_5  and  C_6 
REMARK    3  A    between atoms: C_9  and  C_10 
REMARK    4  A    between atoms: C_10  and  C_11 
REMARK       I    between atoms: C_11  and  N_12 
REMARK    5  A    between atoms: N_12  and  C_13 
ROOT
HETATM    1  C   UNL     1      -5.971   4.817 -33.537  1.00  0.00     0.174 A 
HETATM    2  S   UNL     1      -7.229   5.853 -33.039  1.00  0.00    -0.062 SA
HETATM    3  C   UNL     1      -8.346   4.567 -33.258  1.00  0.00     0.081 A 
HETATM    4  C   UNL     1      -7.681   3.428 -33.676  1.00  0.00     0.052 A 
HETATM    5  N   UNL     1      -6.309   3.588 -33.828  1.00  0.00    -0.228 NA
ENDROOT
BRANCH   1   6
HETATM    6  N   UNL     1      -4.730   5.386 -33.547  1.00  0.00    -0.287 N 
HETATM    7  C   UNL     1      -3.922   5.323 -34.640  1.00  0.00     0.326 C 
HETATM    8  N   UNL     1      -2.662   5.839 -34.501  1.00  0.00    -0.309 N 
HETATM    9  O   UNL     1      -4.256   4.929 -35.756  1.00  0.00    -0.247 OA
HETATM   10  H   UNL     1      -2.233   6.005 -35.405  1.00  0.00     0.170 HD
HETATM   11  H   UNL     1      -4.526   6.064 -32.831  1.00  0.00     0.172 HD
BRANCH   8  12
HETATM   12  C   UNL     1      -1.845   6.036 -33.374  1.00  0.00     0.036 A 
HETATM   13  C   UNL     1      -1.154   5.010 -32.721  1.00  0.00     0.032 A 
HETATM   14  C   UNL     1      -0.325   5.302 -31.632  1.00  0.00     0.044 A 
HETATM   15  C   UNL     1      -0.181   6.617 -31.207  1.00  0.00     0.116 A 
HETATM   16  C   UNL     1      -0.842   7.650 -31.856  1.00  0.00     0.044 A 
HETATM   17  F   UNL     1       0.619   6.892 -30.169  1.00  0.00    -0.206 F 
HETATM   18  C   UNL     1      -1.666   7.360 -32.947  1.00  0.00     0.032 A 
ENDBRANCH   8  12
ENDBRANCH   1   6
BRANCH   4  19
HETATM   19  C   UNL     1      -8.271   2.077 -33.915  1.00  0.00     0.163 C 
BRANCH  19  20
HETATM   20  C   UNL     1      -7.293   1.048 -34.467  1.00  0.00     0.227 C 
HETATM   21  N   UNL     1      -6.821   0.140 -33.538  1.00  0.00    -0.327 N 
HETATM   22  H   UNL     1      -7.008   0.369 -32.556  1.00  0.00     0.169 HD
HETATM   23  O   UNL     1      -7.046   1.030 -35.673  1.00  0.00    -0.273 OA
BRANCH  21  24
HETATM   24  C   UNL     1      -6.043  -1.012 -33.772  1.00  0.00     0.036 A 
HETATM   25  C   UNL     1      -6.482  -2.114 -34.513  1.00  0.00     0.056 A 
HETATM   26  C   UNL     1      -5.654  -3.229 -34.668  1.00  0.00     0.074 A 
HETATM   27 CL   UNL     1      -6.219  -4.587 -35.567  1.00  0.00    -0.081 Cl
HETATM   28  C   UNL     1      -4.387  -3.245 -34.093  1.00  0.00     0.138 A 
HETATM   29  F   UNL     1      -3.579  -4.308 -34.232  1.00  0.00    -0.204 F 
HETATM   30  C   UNL     1      -3.937  -2.158 -33.355  1.00  0.00     0.046 A 
HETATM   31  C   UNL     1      -4.767  -1.047 -33.192  1.00  0.00     0.032 A 
ENDBRANCH  21  24
ENDBRANCH  19  20
ENDBRANCH   4  19
TORSDOF 5
ENDMDL
MODEL 2
REMARK VINA RESULT:      -8.9      4.404      9.966
REMARK  5 active torsions:
REMARK  status: ('A' for Active; 'I' for Inactive)
REMARK    1  A    between atoms: C_2  and  N_3 
REMARK       I    between atoms: N_3  and  C_4 
REMARK       I    between atoms: C_4  and  N_5 
REMARK    2  A    between atoms: N_5  and  C_6 
REMARK    3  A    between atoms: C_9  and  C_10 
REMARK    4  A    between atoms: C_10  and  C_11 
REMARK       I    between atoms: C_11  and  N_12 
REMARK    5  A    between atoms: N_12  and  C_13 
ROOT
HETATM    1  C   UNL     1      -3.965   3.205 -32.494  1.00  0.00     0.174 A 
HETATM    2  S   UNL     1      -4.920   4.612 -32.599  1.00  0.00    -0.062 SA
HETATM    3  C   UNL     1      -3.497   5.563 -32.456  1.00  0.00     0.081 A 
HETATM    4  C   UNL     1      -2.387   4.742 -32.359  1.00  0.00     0.052 A 
HETATM    5  N   UNL     1      -2.674   3.383 -32.387  1.00  0.00    -0.228 NA
ENDROOT
BRANCH   1   6
HETATM    6  N   UNL     1      -4.662   2.034 -32.565  1.00  0.00    -0.287 N 
HETATM    7  C   UNL     1      -5.071   1.374 -31.447  1.00  0.00     0.326 C 
HETATM    8  N   UNL     1      -5.671   0.159 -31.638  1.00  0.00    -0.309 N 
HETATM    9  O   UNL     1      -5.028   1.815 -30.299  1.00  0.00    -0.247 OA
HETATM   10  H   UNL     1      -6.180  -0.131 -30.810  1.00  0.00     0.170 HD
HETATM   11  H   UNL     1      -5.085   1.799 -33.449  1.00  0.00     0.172 HD
BRANCH   8  12
HETATM   12  C   UNL     1      -5.588  -0.778 -32.682  1.00  0.00     0.036 A 
HETATM   13  C   UNL     1      -4.447  -1.537 -32.964  1.00  0.00     0.032 A 
HETATM   14  C   UNL     1      -4.468  -2.481 -33.997  1.00  0.00     0.044 A 
HETATM   15  C   UNL     1      -5.629  -2.672 -34.735  1.00  0.00     0.116 A 
HETATM   16  C   UNL     1      -6.776  -1.943 -34.456  1.00  0.00     0.044 A 
HETATM   17  F   UNL     1      -5.645  -3.581 -35.718  1.00  0.00    -0.206 F 
HETATM   18  C   UNL     1      -6.759  -1.003 -33.423  1.00  0.00     0.032 A 
ENDBRANCH   8  12
ENDBRANCH   1   6
BRANCH   4  19
HETATM   19  C   UNL     1      -0.956   5.166 -32.287  1.00  0.00     0.163 C 
BRANCH  19  20
HETATM   20  C   UNL     1      -0.429   5.376 -30.874  1.00  0.00     0.227 C 
HETATM   21  N   UNL     1      -0.592   6.656 -30.379  1.00  0.00    -0.327 N 
HETATM   22  H   UNL     1      -0.855   7.370 -31.066  1.00  0.00     0.169 HD
HETATM   23  O   UNL     1       0.022   4.419 -30.245  1.00  0.00    -0.273 OA
BRANCH  21  24
HETATM   24  C   UNL     1      -0.358   7.112 -29.065  1.00  0.00     0.036 A 
HETATM   25  C   UNL     1      -1.299   7.040 -28.034  1.00  0.00     0.056 A 
HETATM   26  C   UNL     1      -0.992   7.546 -26.768  1.00  0.00     0.074 A 
HETATM   27 CL   UNL     1      -2.172   7.469 -25.514  1.00  0.00    -0.081 Cl
HETATM   28  C   UNL     1       0.255   8.116 -26.526  1.00  0.00     0.138 A 
HETATM   29  F   UNL     1       0.566   8.606 -25.316  1.00  0.00    -0.204 F 
HETATM   30  C   UNL     1       1.200   8.193 -27.540  1.00  0.00     0.046 A 
HETATM   31  C   UNL     1       0.891   7.696 -28.808  1.00  0.00     0.032 A 
ENDBRANCH  21  24
ENDBRANCH  19  20
ENDBRANCH   4  19
TORSDOF 5
ENDMDL
MODEL 3
REMARK VINA RESULT:      -8.9      3.868      9.154
REMARK  5 active torsions:
REMARK  status: ('A' for Active; 'I' for Inactive)
REMARK    1  A    between atoms: C_2  and  N_3 
REMARK       I    between atoms: N_3  and  C_4 
REMARK       I    between atoms: C_4  and  N_5 
REMARK    2  A    between atoms: N_5  and  C_6 
REMARK    3  A    between atoms: C_9  and  C_10 
REMARK    4  A    between atoms: C_10  and  C_11 
REMARK       I    between atoms: C_11  and  N_12 
REMARK    5  A    between atoms: N_12  and  C_13 
ROOT
HETATM    1  C   UNL     1      -5.166   3.543 -33.098  1.00  0.00     0.174 A 
HETATM    2  S   UNL     1      -6.412   4.650 -32.746  1.00  0.00    -0.062 SA
HETATM    3  C   UNL     1      -5.375   5.935 -33.217  1.00  0.00     0.081 A 
HETATM    4  C   UNL     1      -4.155   5.431 -33.632  1.00  0.00     0.052 A 
HETATM    5  N   UNL     1      -4.052   4.048 -33.562  1.00  0.00    -0.228 NA
ENDROOT
BRANCH   1   6
HETATM    6  N   UNL     1      -5.485   2.233 -32.884  1.00  0.00    -0.287 N 
HETATM    7  C   UNL     1      -5.174   1.601 -31.719  1.00  0.00     0.326 C 
HETATM    8  N   UNL     1      -5.451   0.262 -31.656  1.00  0.00    -0.309 N 
HETATM    9  O   UNL     1      -4.754   2.145 -30.699  1.00  0.00    -0.247 OA
HETATM   10  H   UNL     1      -5.452  -0.065 -30.696  1.00  0.00     0.170 HD
HETATM   11  H   UNL     1      -6.173   1.818 -33.492  1.00  0.00     0.172 HD
BRANCH   8  12
HETATM   12  C   UNL     1      -5.587  -0.718 -32.653  1.00  0.00     0.036 A 
HETATM   13  C   UNL     1      -6.791  -1.010 -33.305  1.00  0.00     0.032 A 
HETATM   14  C   UNL     1      -6.827  -1.973 -34.319  1.00  0.00     0.044 A 
HETATM   15  C   UNL     1      -5.660  -2.632 -34.687  1.00  0.00     0.116 A 
HETATM   16  C   UNL     1      -4.454  -2.341 -34.067  1.00  0.00     0.044 A 
HETATM   17  F   UNL     1      -5.699  -3.547 -35.664  1.00  0.00    -0.206 F 
HETATM   18  C   UNL     1      -4.415  -1.376 -33.057  1.00  0.00     0.032 A 
ENDBRANCH   8  12
ENDBRANCH   1   6
BRANCH   4  19
HETATM   19  C   UNL     1      -3.001   6.204 -34.183  1.00  0.00     0.163 C 
BRANCH  19  20
HETATM   20  C   UNL     1      -2.098   6.830 -33.129  1.00  0.00     0.227 C 
HETATM   21  N   UNL     1      -2.128   6.205 -31.895  1.00  0.00    -0.327 N 
HETATM   22  H   UNL     1      -2.887   5.530 -31.756  1.00  0.00     0.169 HD
HETATM   23  O   UNL     1      -1.363   7.767 -33.436  1.00  0.00    -0.273 OA
BRANCH  21  24
HETATM   24  C   UNL     1      -1.295   6.446 -30.784  1.00  0.00     0.036 A 
HETATM   25  C   UNL     1      -1.356   7.600 -29.997  1.00  0.00     0.056 A 
HETATM   26  C   UNL     1      -0.468   7.769 -28.931  1.00  0.00     0.074 A 
HETATM   27 CL   UNL     1      -0.542   9.208 -27.985  1.00  0.00    -0.081 Cl
HETATM   28  C   UNL     1       0.475   6.786 -28.643  1.00  0.00     0.138 A 
HETATM   29  F   UNL     1       1.335   6.933 -27.623  1.00  0.00    -0.204 F 
HETATM   30  C   UNL     1       0.546   5.634 -29.415  1.00  0.00     0.046 A 
HETATM   31  C   UNL     1      -0.335   5.468 -30.486  1.00  0.00     0.032 A 
ENDBRANCH  21  24
ENDBRANCH  19  20
ENDBRANCH   4  19
TORSDOF 5
ENDMDL
MODEL 4
REMARK VINA RESULT:      -8.8      2.145      2.602
REMARK  5 active torsions:
REMARK  status: ('A' for Active; 'I' for Inactive)
REMARK    1  A    between atoms: C_2  and  N_3 
REMARK       I    between atoms: N_3  and  C_4 
REMARK       I    between atoms: C_4  and  N_5 
REMARK    2  A    between atoms: N_5  and  C_6 
REMARK    3  A    between atoms: C_9  and  C_10 
REMARK    4  A    between atoms: C_10  and  C_11 
REMARK       I    between atoms: C_11  and  N_12 
REMARK    5  A    between atoms: N_12  and  C_13 
ROOT
HETATM    1  C   UNL     1      -4.414   4.846 -31.951  1.00  0.00     0.174 A 
HETATM    2  S   UNL     1      -5.349   5.737 -33.062  1.00  0.00    -0.062 SA
HETATM    3  C   UNL     1      -6.683   4.706 -32.735  1.00  0.00     0.081 A 
HETATM    4  C   UNL     1      -6.332   3.765 -31.784  1.00  0.00     0.052 A 
HETATM    5  N   UNL     1      -5.020   3.862 -31.338  1.00  0.00    -0.228 NA
ENDROOT
BRANCH   1   6
HETATM    6  N   UNL     1      -3.131   5.284 -31.800  1.00  0.00    -0.287 N 
HETATM    7  C   UNL     1      -2.109   4.782 -32.547  1.00  0.00     0.326 C 
HETATM    8  N   UNL     1      -0.851   5.222 -32.239  1.00  0.00    -0.309 N 
HETATM    9  O   UNL     1      -2.232   4.043 -33.523  1.00  0.00    -0.247 OA
HETATM   10  H   UNL     1      -0.201   5.026 -32.992  1.00  0.00     0.170 HD
HETATM   11  H   UNL     1      -2.992   6.155 -31.314  1.00  0.00     0.172 HD
BRANCH   8  12
HETATM   12  C   UNL     1      -0.300   5.745 -31.056  1.00  0.00     0.036 A 
HETATM   13  C   UNL     1      -0.320   7.103 -30.718  1.00  0.00     0.032 A 
HETATM   14  C   UNL     1       0.212   7.532 -29.497  1.00  0.00     0.044 A 
HETATM   15  C   UNL     1       0.751   6.604 -28.615  1.00  0.00     0.116 A 
HETATM   16  C   UNL     1       0.760   5.251 -28.924  1.00  0.00     0.044 A 
HETATM   17  F   UNL     1       1.253   7.019 -27.445  1.00  0.00    -0.206 F 
HETATM   18  C   UNL     1       0.225   4.821 -30.141  1.00  0.00     0.032 A 
ENDBRANCH   8  12
ENDBRANCH   1   6
BRANCH   4  19
HETATM   19  C   UNL     1      -7.217   2.728 -31.172  1.00  0.00     0.163 C 
BRANCH  19  20
HETATM   20  C   UNL     1      -6.768   1.293 -31.412  1.00  0.00     0.227 C 
HETATM   21  N   UNL     1      -6.472   0.991 -32.728  1.00  0.00    -0.327 N 
HETATM   22  H   UNL     1      -6.772   1.682 -33.423  1.00  0.00     0.169 HD
HETATM   23  O   UNL     1      -6.624   0.533 -30.455  1.00  0.00    -0.273 OA
BRANCH  21  24
HETATM   24  C   UNL     1      -5.884  -0.187 -33.233  1.00  0.00     0.036 A 
HETATM   25  C   UNL     1      -6.606  -1.236 -33.808  1.00  0.00     0.056 A 
HETATM   26  C   UNL     1      -5.942  -2.382 -34.255  1.00  0.00     0.074 A 
HETATM   27 CL   UNL     1      -6.850  -3.676 -34.943  1.00  0.00    -0.081 Cl
HETATM   28  C   UNL     1      -4.559  -2.481 -34.137  1.00  0.00     0.138 A 
HETATM   29  F   UNL     1      -3.906  -3.574 -34.560  1.00  0.00    -0.204 F 
HETATM   30  C   UNL     1      -3.828  -1.446 -33.569  1.00  0.00     0.046 A 
HETATM   31  C   UNL     1      -4.491  -0.304 -33.114  1.00  0.00     0.032 A 
ENDBRANCH  21  24
ENDBRANCH  19  20
ENDBRANCH   4  19
TORSDOF 5
ENDMDL
MODEL 5
REMARK VINA RESULT:      -8.7      3.583      8.966
REMARK  5 active torsions:
REMARK  status: ('A' for Active; 'I' for Inactive)
REMARK    1  A    between atoms: C_2  and  N_3 
REMARK       I    between atoms: N_3  and  C_4 
REMARK       I    between atoms: C_4  and  N_5 
REMARK    2  A    between atoms: N_5  and  C_6 
REMARK    3  A    between atoms: C_9  and  C_10 
REMARK    4  A    between atoms: C_10  and  C_11 
REMARK       I    between atoms: C_11  and  N_12 
REMARK    5  A    between atoms: N_12  and  C_13 
ROOT
HETATM    1  C   UNL     1      -5.284   1.449 -31.495  1.00  0.00     0.174 A 
HETATM    2  S   UNL     1      -6.368   1.668 -30.199  1.00  0.00    -0.062 SA
HETATM    3  C   UNL     1      -6.553   3.313 -30.660  1.00  0.00     0.081 A 
HETATM    4  C   UNL     1      -5.792   3.577 -31.785  1.00  0.00     0.052 A 
HETATM    5  N   UNL     1      -5.069   2.489 -32.257  1.00  0.00    -0.228 NA
ENDROOT
BRANCH   1   6
HETATM    6  N   UNL     1      -4.779   0.186 -31.612  1.00  0.00    -0.287 N 
HETATM    7  C   UNL     1      -3.468  -0.087 -31.366  1.00  0.00     0.326 C 
HETATM    8  N   UNL     1      -3.053  -1.367 -31.614  1.00  0.00    -0.309 N 
HETATM    9  O   UNL     1      -2.658   0.687 -30.860  1.00  0.00    -0.247 OA
HETATM   10  H   UNL     1      -2.168  -1.558 -31.158  1.00  0.00     0.170 HD
HETATM   11  H   UNL     1      -5.438  -0.576 -31.634  1.00  0.00     0.172 HD
BRANCH   8  12
HETATM   12  C   UNL     1      -3.547  -2.368 -32.468  1.00  0.00     0.036 A 
HETATM   13  C   UNL     1      -4.376  -2.119 -33.567  1.00  0.00     0.032 A 
HETATM   14  C   UNL     1      -4.786  -3.173 -34.392  1.00  0.00     0.044 A 
HETATM   15  C   UNL     1      -4.357  -4.467 -34.124  1.00  0.00     0.116 A 
HETATM   16  C   UNL     1      -3.518  -4.729 -33.051  1.00  0.00     0.044 A 
HETATM   17  F   UNL     1      -4.746  -5.470 -34.921  1.00  0.00    -0.206 F 
HETATM   18  C   UNL     1      -3.104  -3.678 -32.229  1.00  0.00     0.032 A 
ENDBRANCH   8  12
ENDBRANCH   1   6
BRANCH   4  19
HETATM   19  C   UNL     1      -5.723   4.862 -32.544  1.00  0.00     0.163 C 
BRANCH  19  20
HETATM   20  C   UNL     1      -4.383   5.578 -32.455  1.00  0.00     0.227 C 
HETATM   21  N   UNL     1      -3.850   5.654 -31.181  1.00  0.00    -0.327 N 
HETATM   22  H   UNL     1      -4.488   5.411 -30.416  1.00  0.00     0.169 HD
HETATM   23  O   UNL     1      -3.830   5.965 -33.484  1.00  0.00    -0.273 OA
BRANCH  21  24
HETATM   24  C   UNL     1      -2.567   6.103 -30.806  1.00  0.00     0.036 A 
HETATM   25  C   UNL     1      -1.396   5.359 -30.979  1.00  0.00     0.056 A 
HETATM   26  C   UNL     1      -0.170   5.872 -30.548  1.00  0.00     0.074 A 
HETATM   27 CL   UNL     1       1.261   4.933 -30.750  1.00  0.00    -0.081 Cl
HETATM   28  C   UNL     1      -0.107   7.127 -29.950  1.00  0.00     0.138 A 
HETATM   29  F   UNL     1       1.062   7.634 -29.529  1.00  0.00    -0.204 F 
HETATM   30  C   UNL     1      -1.262   7.877 -29.771  1.00  0.00     0.046 A 
HETATM   31  C   UNL     1      -2.489   7.363 -30.194  1.00  0.00     0.032 A 
ENDBRANCH  21  24
ENDBRANCH  19  20
ENDBRANCH   4  19
TORSDOF 5
ENDMDL
MODEL 6
REMARK VINA RESULT:      -8.7      1.888      2.157
REMARK  5 active torsions:
REMARK  status: ('A' for Active; 'I' for Inactive)
REMARK    1  A    between atoms: C_2  and  N_3 
REMARK       I    between atoms: N_3  and  C_4 
REMARK       I    between atoms: C_4  and  N_5 
REMARK    2  A    between atoms: N_5  and  C_6 
REMARK    3  A    between atoms: C_9  and  C_10 
REMARK    4  A    between atoms: C_10  and  C_11 
REMARK       I    between atoms: C_11  and  N_12 
REMARK    5  A    between atoms: N_12  and  C_13 
ROOT
HETATM    1  C   UNL     1      -7.379   3.813 -31.643  1.00  0.00     0.174 A 
HETATM    2  S   UNL     1      -8.370   4.051 -30.277  1.00  0.00    -0.062 SA
HETATM    3  C   UNL     1      -9.439   2.843 -30.868  1.00  0.00     0.081 A 
HETATM    4  C   UNL     1      -8.956   2.325 -32.057  1.00  0.00     0.052 A 
HETATM    5  N   UNL     1      -7.764   2.892 -32.489  1.00  0.00    -0.228 NA
ENDROOT
BRANCH   1   6
HETATM    6  N   UNL     1      -6.265   4.599 -31.687  1.00  0.00    -0.287 N 
HETATM    7  C   UNL     1      -6.238   5.766 -32.388  1.00  0.00     0.326 C 
HETATM    8  N   UNL     1      -5.036   6.419 -32.444  1.00  0.00    -0.309 N 
HETATM    9  O   UNL     1      -7.212   6.321 -32.892  1.00  0.00    -0.247 OA
HETATM   10  H   UNL     1      -5.157   7.383 -32.734  1.00  0.00     0.170 HD
HETATM   11  H   UNL     1      -5.554   4.434 -30.992  1.00  0.00     0.172 HD
BRANCH   8  12
HETATM   12  C   UNL     1      -3.712   5.966 -32.312  1.00  0.00     0.036 A 
HETATM   13  C   UNL     1      -3.051   5.193 -33.273  1.00  0.00     0.032 A 
HETATM   14  C   UNL     1      -1.715   4.823 -33.080  1.00  0.00     0.044 A 
HETATM   15  C   UNL     1      -1.042   5.236 -31.937  1.00  0.00     0.116 A 
HETATM   16  C   UNL     1      -1.675   6.021 -30.984  1.00  0.00     0.044 A 
HETATM   17  F   UNL     1       0.238   4.885 -31.761  1.00  0.00    -0.206 F 
HETATM   18  C   UNL     1      -3.008   6.394 -31.177  1.00  0.00     0.032 A 
ENDBRANCH   8  12
ENDBRANCH   1   6
BRANCH   4  19
HETATM   19  C   UNL     1      -9.547   1.212 -32.861  1.00  0.00     0.163 C 
BRANCH  19  20
HETATM   20  C   UNL     1      -8.543   0.441 -33.707  1.00  0.00     0.227 C 
HETATM   21  N   UNL     1      -7.619  -0.291 -32.985  1.00  0.00    -0.327 N 
HETATM   22  H   UNL     1      -7.571  -0.084 -31.982  1.00  0.00     0.169 HD
HETATM   23  O   UNL     1      -8.650   0.445 -34.933  1.00  0.00    -0.273 OA
BRANCH  21  24
HETATM   24  C   UNL     1      -6.680  -1.223 -33.475  1.00  0.00     0.036 A 
HETATM   25  C   UNL     1      -7.017  -2.339 -34.247  1.00  0.00     0.056 A 
HETATM   26  C   UNL     1      -6.022  -3.228 -34.664  1.00  0.00     0.074 A 
HETATM   27 CL   UNL     1      -6.457  -4.610 -35.597  1.00  0.00    -0.081 Cl
HETATM   28  C   UNL     1      -4.692  -3.003 -34.318  1.00  0.00     0.138 A 
HETATM   29  F   UNL     1      -3.726  -3.847 -34.710  1.00  0.00    -0.204 F 
HETATM   30  C   UNL     1      -4.344  -1.898 -33.553  1.00  0.00     0.046 A 
HETATM   31  C   UNL     1      -5.338  -1.014 -33.128  1.00  0.00     0.032 A 
ENDBRANCH  21  24
ENDBRANCH  19  20
ENDBRANCH   4  19
TORSDOF 5
ENDMDL
MODEL 7
REMARK VINA RESULT:      -8.6      4.564     10.011
REMARK  5 active torsions:
REMARK  status: ('A' for Active; 'I' for Inactive)
REMARK    1  A    between atoms: C_2  and  N_3 
REMARK       I    between atoms: N_3  and  C_4 
REMARK       I    between atoms: C_4  and  N_5 
REMARK    2  A    between atoms: N_5  and  C_6 
REMARK    3  A    between atoms: C_9  and  C_10 
REMARK    4  A    between atoms: C_10  and  C_11 
REMARK       I    between atoms: C_11  and  N_12 
REMARK    5  A    between atoms: N_12  and  C_13 
ROOT
HETATM    1  C   UNL     1      -4.583   1.046 -31.311  1.00  0.00     0.174 A 
HETATM    2  S   UNL     1      -5.645   1.279 -30.000  1.00  0.00    -0.062 SA
HETATM    3  C   UNL     1      -5.375   2.972 -30.108  1.00  0.00     0.081 A 
HETATM    4  C   UNL     1      -4.510   3.247 -31.152  1.00  0.00     0.052 A 
HETATM    5  N   UNL     1      -4.065   2.125 -31.840  1.00  0.00    -0.228 NA
ENDROOT
BRANCH   1   6
HETATM    6  N   UNL     1      -4.414  -0.254 -31.688  1.00  0.00    -0.287 N 
HETATM    7  C   UNL     1      -3.187  -0.844 -31.696  1.00  0.00     0.326 C 
HETATM    8  N   UNL     1      -3.124  -2.119 -32.190  1.00  0.00    -0.309 N 
HETATM    9  O   UNL     1      -2.159  -0.366 -31.220  1.00  0.00    -0.247 OA
HETATM   10  H   UNL     1      -2.262  -2.575 -31.913  1.00  0.00     0.170 HD
HETATM   11  H   UNL     1      -5.233  -0.839 -31.714  1.00  0.00     0.172 HD
BRANCH   8  12
HETATM   12  C   UNL     1      -3.944  -2.822 -33.089  1.00  0.00     0.036 A 
HETATM   13  C   UNL     1      -4.917  -2.220 -33.895  1.00  0.00     0.032 A 
HETATM   14  C   UNL     1      -5.659  -2.991 -34.796  1.00  0.00     0.044 A 
HETATM   15  C   UNL     1      -5.420  -4.356 -34.898  1.00  0.00     0.116 A 
HETATM   16  C   UNL     1      -4.445  -4.966 -34.122  1.00  0.00     0.044 A 
HETATM   17  F   UNL     1      -6.128  -5.087 -35.767  1.00  0.00    -0.206 F 
HETATM   18  C   UNL     1      -3.700  -4.197 -33.225  1.00  0.00     0.032 A 
ENDBRANCH   8  12
ENDBRANCH   1   6
BRANCH   4  19
HETATM   19  C   UNL     1      -4.070   4.593 -31.628  1.00  0.00     0.163 C 
BRANCH  19  20
HETATM   20  C   UNL     1      -2.681   5.006 -31.160  1.00  0.00     0.227 C 
HETATM   21  N   UNL     1      -2.640   6.179 -30.429  1.00  0.00    -0.327 N 
HETATM   22  H   UNL     1      -3.494   6.747 -30.449  1.00  0.00     0.169 HD
HETATM   23  O   UNL     1      -1.721   4.268 -31.380  1.00  0.00    -0.273 OA
BRANCH  21  24
HETATM   24  C   UNL     1      -1.544   6.726 -29.732  1.00  0.00     0.036 A 
HETATM   25  C   UNL     1      -1.570   7.064 -28.375  1.00  0.00     0.056 A 
HETATM   26  C   UNL     1      -0.444   7.631 -27.773  1.00  0.00     0.074 A 
HETATM   27 CL   UNL     1      -0.500   8.062 -26.105  1.00  0.00    -0.081 Cl
HETATM   28  C   UNL     1       0.711   7.855 -28.518  1.00  0.00     0.138 A 
HETATM   29  F   UNL     1       1.801   8.399 -27.955  1.00  0.00    -0.204 F 
HETATM   30  C   UNL     1       0.751   7.523 -29.865  1.00  0.00     0.046 A 
HETATM   31  C   UNL     1      -0.376   6.964 -30.470  1.00  0.00     0.032 A 
ENDBRANCH  21  24
ENDBRANCH  19  20
ENDBRANCH   4  19
TORSDOF 5
ENDMDL
MODEL 8
REMARK VINA RESULT:      -8.5      4.988      8.280
REMARK  5 active torsions:
REMARK  status: ('A' for Active; 'I' for Inactive)
REMARK    1  A    between atoms: C_2  and  N_3 
REMARK       I    between atoms: N_3  and  C_4 
REMARK       I    between atoms: C_4  and  N_5 
REMARK    2  A    between atoms: N_5  and  C_6 
REMARK    3  A    between atoms: C_9  and  C_10 
REMARK    4  A    between atoms: C_10  and  C_11 
REMARK       I    between atoms: C_11  and  N_12 
REMARK    5  A    between atoms: N_12  and  C_13 
ROOT
HETATM    1  C   UNL     1      -9.321   2.492 -31.972  1.00  0.00     0.174 A 
HETATM    2  S   UNL     1      -9.207   3.645 -30.723  1.00  0.00    -0.062 SA
HETATM    3  C   UNL     1      -7.542   3.259 -30.548  1.00  0.00     0.081 A 
HETATM    4  C   UNL     1      -7.181   2.292 -31.469  1.00  0.00     0.052 A 
HETATM    5  N   UNL     1      -8.219   1.863 -32.287  1.00  0.00    -0.228 NA
ENDROOT
BRANCH   1   6
HETATM    6  N   UNL     1     -10.560   2.375 -32.532  1.00  0.00    -0.287 N 
HETATM    7  C   UNL     1     -10.846   2.898 -33.756  1.00  0.00     0.326 C 
HETATM    8  N   UNL     1     -12.147   2.810 -34.172  1.00  0.00    -0.309 N 
HETATM    9  O   UNL     1     -10.024   3.356 -34.548  1.00  0.00    -0.247 OA
HETATM   10  H   UNL     1     -12.222   2.962 -35.171  1.00  0.00     0.170 HD
HETATM   11  H   UNL     1     -11.181   1.684 -32.143  1.00  0.00     0.172 HD
BRANCH   8  12
HETATM   12  C   UNL     1     -13.355   2.692 -33.464  1.00  0.00     0.036 A 
HETATM   13  C   UNL     1     -13.808   3.628 -32.528  1.00  0.00     0.032 A 
HETATM   14  C   UNL     1     -15.046   3.454 -31.901  1.00  0.00     0.044 A 
HETATM   15  C   UNL     1     -15.833   2.353 -32.219  1.00  0.00     0.116 A 
HETATM   16  C   UNL     1     -15.410   1.426 -33.161  1.00  0.00     0.044 A 
HETATM   17  F   UNL     1     -17.021   2.195 -31.622  1.00  0.00    -0.206 F 
HETATM   18  C   UNL     1     -14.175   1.601 -33.790  1.00  0.00     0.032 A 
ENDBRANCH   8  12
ENDBRANCH   1   6
BRANCH   4  19
HETATM   19  C   UNL     1      -5.817   1.728 -31.696  1.00  0.00     0.163 C 
BRANCH  19  20
HETATM   20  C   UNL     1      -5.776   0.214 -31.855  1.00  0.00     0.227 C 
HETATM   21  N   UNL     1      -5.499  -0.226 -33.136  1.00  0.00    -0.327 N 
HETATM   22  H   UNL     1      -5.551   0.485 -33.873  1.00  0.00     0.169 HD
HETATM   23  O   UNL     1      -5.908  -0.506 -30.866  1.00  0.00    -0.273 OA
BRANCH  21  24
HETATM   24  C   UNL     1      -5.237  -1.546 -33.560  1.00  0.00     0.036 A 
HETATM   25  C   UNL     1      -6.114  -2.305 -34.340  1.00  0.00     0.056 A 
HETATM   26  C   UNL     1      -5.785  -3.618 -34.687  1.00  0.00     0.074 A 
HETATM   27 CL   UNL     1      -6.887  -4.548 -35.632  1.00  0.00    -0.081 Cl
HETATM   28  C   UNL     1      -4.581  -4.174 -34.264  1.00  0.00     0.138 A 
HETATM   29  F   UNL     1      -4.250  -5.433 -34.588  1.00  0.00    -0.204 F 
HETATM   30  C   UNL     1      -3.700  -3.431 -33.489  1.00  0.00     0.046 A 
HETATM   31  C   UNL     1      -4.031  -2.122 -33.134  1.00  0.00     0.032 A 
ENDBRANCH  21  24
ENDBRANCH  19  20
ENDBRANCH   4  19
TORSDOF 5
ENDMDL
MODEL 9
REMARK VINA RESULT:      -8.5      4.721      7.867
REMARK  5 active torsions:
REMARK  status: ('A' for Active; 'I' for Inactive)
REMARK    1  A    between atoms: C_2  and  N_3 
REMARK       I    between atoms: N_3  and  C_4 
REMARK       I    between atoms: C_4  and  N_5 
REMARK    2  A    between atoms: N_5  and  C_6 
REMARK    3  A    between atoms: C_9  and  C_10 
REMARK    4  A    between atoms: C_10  and  C_11 
REMARK       I    between atoms: C_11  and  N_12 
REMARK    5  A    between atoms: N_12  and  C_13 
ROOT
HETATM    1  C   UNL     1      -8.541   2.998 -32.480  1.00  0.00     0.174 A 
HETATM    2  S   UNL     1      -8.198   4.471 -31.694  1.00  0.00    -0.062 SA
HETATM    3  C   UNL     1      -6.587   3.935 -31.437  1.00  0.00     0.081 A 
HETATM    4  C   UNL     1      -6.413   2.677 -31.988  1.00  0.00     0.052 A 
HETATM    5  N   UNL     1      -7.549   2.152 -32.590  1.00  0.00    -0.228 NA
ENDROOT
BRANCH   1   6
HETATM    6  N   UNL     1      -9.820   2.878 -32.940  1.00  0.00    -0.287 N 
HETATM    7  C   UNL     1     -10.262   3.580 -34.019  1.00  0.00     0.326 C 
HETATM    8  N   UNL     1     -11.590   3.458 -34.326  1.00  0.00    -0.309 N 
HETATM    9  O   UNL     1      -9.557   4.236 -34.785  1.00  0.00    -0.247 OA
HETATM   10  H   UNL     1     -11.776   3.775 -35.272  1.00  0.00     0.170 HD
HETATM   11  H   UNL     1     -10.351   2.081 -32.629  1.00  0.00     0.172 HD
BRANCH   8  12
HETATM   12  C   UNL     1     -12.709   3.119 -33.547  1.00  0.00     0.036 A 
HETATM   13  C   UNL     1     -13.167   3.877 -32.464  1.00  0.00     0.032 A 
HETATM   14  C   UNL     1     -14.319   3.489 -31.770  1.00  0.00     0.044 A 
HETATM   15  C   UNL     1     -15.014   2.353 -32.167  1.00  0.00     0.116 A 
HETATM   16  C   UNL     1     -14.587   1.601 -33.252  1.00  0.00     0.044 A 
HETATM   17  F   UNL     1     -16.119   1.991 -31.504  1.00  0.00    -0.206 F 
HETATM   18  C   UNL     1     -13.440   1.990 -33.948  1.00  0.00     0.032 A 
ENDBRANCH   8  12
ENDBRANCH   1   6
BRANCH   4  19
HETATM   19  C   UNL     1      -5.147   1.885 -32.043  1.00  0.00     0.163 C 
BRANCH  19  20
HETATM   20  C   UNL     1      -5.348   0.380 -32.150  1.00  0.00     0.227 C 
HETATM   21  N   UNL     1      -5.466  -0.099 -33.442  1.00  0.00    -0.327 N 
HETATM   22  H   UNL     1      -5.611   0.610 -34.169  1.00  0.00     0.169 HD
HETATM   23  O   UNL     1      -5.317  -0.312 -31.133  1.00  0.00    -0.273 OA
BRANCH  21  24
HETATM   24  C   UNL     1      -5.496  -1.443 -33.868  1.00  0.00     0.036 A 
HETATM   25  C   UNL     1      -4.432  -2.336 -33.711  1.00  0.00     0.056 A 
HETATM   26  C   UNL     1      -4.539  -3.644 -34.192  1.00  0.00     0.074 A 
HETATM   27 CL   UNL     1      -3.209  -4.726 -34.010  1.00  0.00    -0.081 Cl
HETATM   28  C   UNL     1      -5.706  -4.065 -34.823  1.00  0.00     0.138 A 
HETATM   29  F   UNL     1      -5.825  -5.317 -35.291  1.00  0.00    -0.204 F 
HETATM   30  C   UNL     1      -6.771  -3.189 -34.984  1.00  0.00     0.046 A 
HETATM   31  C   UNL     1      -6.663  -1.879 -34.511  1.00  0.00     0.032 A 
ENDBRANCH  21  24
ENDBRANCH  19  20
ENDBRANCH   4  19
TORSDOF 5
ENDMDL
MODEL 10
REMARK VINA RESULT:      -8.5      4.301      6.981
REMARK  5 active torsions:
REMARK  status: ('A' for Active; 'I' for Inactive)
REMARK    1  A    between atoms: C_2  and  N_3 
REMARK       I    between atoms: N_3  and  C_4 
REMARK       I    between atoms: C_4  and  N_5 
REMARK    2  A    between atoms: N_5  and  C_6 
REMARK    3  A    between atoms: C_9  and  C_10 
REMARK    4  A    between atoms: C_10  and  C_11 
REMARK       I    between atoms: C_11  and  N_12 
REMARK    5  A    between atoms: N_12  and  C_13 
ROOT
HETATM    1  C   UNL     1      -6.635   3.513 -31.938  1.00  0.00     0.174 A 
HETATM    2  S   UNL     1      -5.923   5.037 -31.663  1.00  0.00    -0.062 SA
HETATM    3  C   UNL     1      -4.405   4.265 -31.440  1.00  0.00     0.081 A 
HETATM    4  C   UNL     1      -4.540   2.898 -31.612  1.00  0.00     0.052 A 
HETATM    5  N   UNL     1      -5.832   2.481 -31.903  1.00  0.00    -0.228 NA
ENDROOT
BRANCH   1   6
HETATM    6  N   UNL     1      -7.974   3.544 -32.198  1.00  0.00    -0.287 N 
HETATM    7  C   UNL     1      -8.893   3.169 -31.266  1.00  0.00     0.326 C 
HETATM    8  N   UNL     1     -10.200   3.144 -31.672  1.00  0.00    -0.309 N 
HETATM    9  O   UNL     1      -8.660   2.942 -30.081  1.00  0.00    -0.247 OA
HETATM   10  H   UNL     1     -10.829   3.128 -30.877  1.00  0.00     0.170 HD
HETATM   11  H   UNL     1      -8.280   4.085 -32.991  1.00  0.00     0.172 HD
BRANCH   8  12
HETATM   12  C   UNL     1     -10.790   2.999 -32.939  1.00  0.00     0.036 A 
HETATM   13  C   UNL     1     -11.040   1.765 -33.549  1.00  0.00     0.032 A 
HETATM   14  C   UNL     1     -11.673   1.711 -34.796  1.00  0.00     0.044 A 
HETATM   15  C   UNL     1     -12.064   2.888 -35.423  1.00  0.00     0.116 A 
HETATM   16  C   UNL     1     -11.843   4.119 -34.824  1.00  0.00     0.044 A 
HETATM   17  F   UNL     1     -12.675   2.830 -36.613  1.00  0.00    -0.206 F 
HETATM   18  C   UNL     1     -11.215   4.174 -33.577  1.00  0.00     0.032 A 
ENDBRANCH   8  12
ENDBRANCH   1   6
BRANCH   4  19
HETATM   19  C   UNL     1      -3.453   1.874 -31.570  1.00  0.00     0.163 C 
BRANCH  19  20
HETATM   20  C   UNL     1      -3.928   0.440 -31.764  1.00  0.00     0.227 C 
HETATM   21  N   UNL     1      -4.468   0.172 -33.008  1.00  0.00    -0.327 N 
HETATM   22  H   UNL     1      -4.679   0.990 -33.589  1.00  0.00     0.169 HD
HETATM   23  O   UNL     1      -3.743  -0.388 -30.872  1.00  0.00    -0.273 OA
BRANCH  21  24
HETATM   24  C   UNL     1      -4.838  -1.081 -33.538  1.00  0.00     0.036 A 
HETATM   25  C   UNL     1      -4.013  -2.209 -33.528  1.00  0.00     0.056 A 
HETATM   26  C   UNL     1      -4.452  -3.404 -34.106  1.00  0.00     0.074 A 
HETATM   27 CL   UNL     1      -3.412  -4.780 -34.104  1.00  0.00    -0.081 Cl
HETATM   28  C   UNL     1      -5.715  -3.479 -34.686  1.00  0.00     0.138 A 
HETATM   29  F   UNL     1      -6.151  -4.618 -35.245  1.00  0.00    -0.204 F 
HETATM   30  C   UNL     1      -6.546  -2.367 -34.702  1.00  0.00     0.046 A 
HETATM   31  C   UNL     1      -6.105  -1.170 -34.134  1.00  0.00     0.032 A 
ENDBRANCH  21  24
ENDBRANCH  19  20
ENDBRANCH   4  19
TORSDOF 5
ENDMDL
