MODEL 1
REMARK VINA RESULT:      -7.6      0.000      0.000
REMARK  9 active torsions:
REMARK  status: ('A' for Active; 'I' for Inactive)
REMARK    1  A    between atoms: C_6  and  C_7 
REMARK    2  A    between atoms: C_7  and  C_8 
REMARK    3  A    between atoms: C_11  and  N_12 
REMARK       I    between atoms: N_12  and  C_13 
REMARK       I    between atoms: C_13  and  N_14 
REMARK    4  A    between atoms: N_14  and  C_15 
REMARK    5  A    between atoms: C_15  and  C_16 
REMARK    6  A    between atoms: C_16  and  C_17 
REMARK    7  A    between atoms: C_16  and  C_19 
REMARK    8  A    between atoms: C_17  and  O_18 
REMARK    9  A    between atoms: C_19  and  C_20 
ROOT
HETATM    1  N   UNL     1      -3.159  -1.105 -31.259  1.00  0.00    -0.309 N 
HETATM    2  C   UNL     1      -3.335  -2.182 -32.069  1.00  0.00     0.320 C 
HETATM    3  N   UNL     1      -4.059  -2.016 -33.207  1.00  0.00    -0.342 N 
HETATM    4  O   UNL     1      -2.806  -3.252 -31.769  1.00  0.00    -0.247 OA
HETATM    5  H   UNL     1      -2.458  -1.306 -30.555  1.00  0.00     0.170 HD
HETATM    6  H   UNL     1      -4.036  -1.093 -33.615  1.00  0.00     0.164 HD
ENDROOT
BRANCH   1   7
HETATM    7  C   UNL     1      -3.818   0.133 -31.142  1.00  0.00     0.036 A 
HETATM    8  C   UNL     1      -3.339   1.344 -31.642  1.00  0.00     0.030 A 
HETATM    9  C   UNL     1      -4.085   2.520 -31.498  1.00  0.00     0.010 A 
HETATM   10  C   UNL     1      -5.340   2.501 -30.877  1.00  0.00    -0.051 A 
HETATM   11  C   UNL     1      -5.836   1.282 -30.402  1.00  0.00     0.010 A 
HETATM   12  C   UNL     1      -5.081   0.113 -30.535  1.00  0.00     0.030 A 
BRANCH  10  13
HETATM   13  C   UNL     1      -6.173   3.760 -30.786  1.00  0.00     0.118 C 
BRANCH  13  14
HETATM   14  C   UNL     1      -6.861   4.143 -32.054  1.00  0.00     0.126 A 
HETATM   15  N   UNL     1      -6.246   4.748 -33.117  1.00  0.00    -0.263 N 
HETATM   16  N   UNL     1      -7.111   4.986 -34.115  1.00  0.00    -0.158 NA
HETATM   17  H   UNL     1      -5.275   5.023 -33.220  1.00  0.00     0.190 HD
HETATM   18  C   UNL     1      -8.247   4.497 -33.609  1.00  0.00     0.144 A 
HETATM   19  C   UNL     1      -9.522   4.517 -34.350  1.00  0.00     0.095 C 
HETATM   20  N   UNL     1      -8.134   3.971 -32.348  1.00  0.00    -0.217 NA
ENDBRANCH  13  14
ENDBRANCH  10  13
ENDBRANCH   1   7
BRANCH   3  21
HETATM   21  C   UNL     1      -4.380  -3.128 -34.084  1.00  0.00     0.131 C 
BRANCH  21  22
HETATM   22  C   UNL     1      -5.668  -2.938 -34.903  1.00  0.00     0.033 C 
BRANCH  22  23
HETATM   23  C   UNL     1      -6.200  -4.270 -35.451  1.00  0.00     0.170 C 
BRANCH  23  24
HETATM   24  O   UNL     1      -5.511  -5.359 -34.842  1.00  0.00    -0.400 OA
HETATM   25  H   UNL     1      -5.285  -5.992 -35.544  1.00  0.00     0.209 HD
ENDBRANCH  23  24
ENDBRANCH  22  23
BRANCH  22  26
HETATM   26  C   UNL     1      -6.767  -2.259 -34.055  1.00  0.00     0.073 C 
BRANCH  26  27
HETATM   27  C   UNL     1      -6.946  -0.813 -34.354  1.00  0.00     0.053 A 
HETATM   28  O   UNL     1      -5.997   0.035 -33.866  1.00  0.00    -0.327 OA
HETATM   29  C   UNL     1      -6.349   1.287 -34.254  1.00  0.00     0.142 A 
HETATM   30  C   UNL     1      -7.515   1.255 -34.981  1.00  0.00     0.027 A 
HETATM   31  C   UNL     1      -7.902  -0.105 -35.050  1.00  0.00     0.034 A 
ENDBRANCH  26  27
ENDBRANCH  22  26
ENDBRANCH  21  22
ENDBRANCH   3  21
TORSDOF 9
ENDMDL
MODEL 2
REMARK VINA RESULT:      -7.6      2.035      2.849
REMARK  9 active torsions:
REMARK  status: ('A' for Active; 'I' for Inactive)
REMARK    1  A    between atoms: C_6  and  C_7 
REMARK    2  A    between atoms: C_7  and  C_8 
REMARK    3  A    between atoms: C_11  and  N_12 
REMARK       I    between atoms: N_12  and  C_13 
REMARK       I    between atoms: C_13  and  N_14 
REMARK    4  A    between atoms: N_14  and  C_15 
REMARK    5  A    between atoms: C_15  and  C_16 
REMARK    6  A    between atoms: C_16  and  C_17 
REMARK    7  A    between atoms: C_16  and  C_19 
REMARK    8  A    between atoms: C_17  and  O_18 
REMARK    9  A    between atoms: C_19  and  C_20 
ROOT
HETATM    1  N   UNL     1      -3.208  -1.286 -31.399  1.00  0.00    -0.309 N 
HETATM    2  C   UNL     1      -3.422  -2.358 -32.207  1.00  0.00     0.320 C 
HETATM    3  N   UNL     1      -4.036  -2.149 -33.401  1.00  0.00    -0.342 N 
HETATM    4  O   UNL     1      -3.022  -3.466 -31.851  1.00  0.00    -0.247 OA
HETATM    5  H   UNL     1      -2.587  -1.537 -30.639  1.00  0.00     0.170 HD
HETATM    6  H   UNL     1      -3.893  -1.240 -33.818  1.00  0.00     0.164 HD
ENDROOT
BRANCH   1   7
HETATM    7  C   UNL     1      -3.755   0.010 -31.352  1.00  0.00     0.036 A 
HETATM    8  C   UNL     1      -4.830   0.395 -30.551  1.00  0.00     0.030 A 
HETATM    9  C   UNL     1      -5.285   1.720 -30.555  1.00  0.00     0.010 A 
HETATM   10  C   UNL     1      -4.652   2.691 -31.340  1.00  0.00    -0.051 A 
HETATM   11  C   UNL     1      -3.555   2.314 -32.122  1.00  0.00     0.010 A 
HETATM   12  C   UNL     1      -3.115   0.987 -32.126  1.00  0.00     0.030 A 
BRANCH  10  13
HETATM   13  C   UNL     1      -5.102   4.134 -31.288  1.00  0.00     0.118 C 
BRANCH  13  14
HETATM   14  C   UNL     1      -4.003   5.134 -31.434  1.00  0.00     0.126 A 
HETATM   15  N   UNL     1      -3.120   5.464 -30.443  1.00  0.00    -0.263 N 
HETATM   16  N   UNL     1      -2.248   6.399 -30.851  1.00  0.00    -0.158 NA
HETATM   17  H   UNL     1      -3.063   5.107 -29.495  1.00  0.00     0.190 HD
HETATM   18  C   UNL     1      -2.643   6.601 -32.112  1.00  0.00     0.144 A 
HETATM   19  C   UNL     1      -1.973   7.560 -33.011  1.00  0.00     0.095 C 
HETATM   20  N   UNL     1      -3.715   5.843 -32.506  1.00  0.00    -0.217 NA
ENDBRANCH  13  14
ENDBRANCH  10  13
ENDBRANCH   1   7
BRANCH   3  21
HETATM   21  C   UNL     1      -4.391  -3.243 -34.286  1.00  0.00     0.131 C 
BRANCH  21  22
HETATM   22  C   UNL     1      -5.756  -3.083 -34.977  1.00  0.00     0.033 C 
BRANCH  22  23
HETATM   23  C   UNL     1      -6.343  -4.436 -35.407  1.00  0.00     0.170 C 
BRANCH  23  24
HETATM   24  O   UNL     1      -5.461  -5.491 -35.033  1.00  0.00    -0.400 OA
HETATM   25  H   UNL     1      -4.586  -5.099 -34.875  1.00  0.00     0.209 HD
ENDBRANCH  23  24
ENDBRANCH  22  23
BRANCH  22  26
HETATM   26  C   UNL     1      -6.761  -2.361 -34.053  1.00  0.00     0.073 C 
BRANCH  26  27
HETATM   27  C   UNL     1      -6.948  -0.922 -34.379  1.00  0.00     0.053 A 
HETATM   28  O   UNL     1      -6.136  -0.038 -33.735  1.00  0.00    -0.327 OA
HETATM   29  C   UNL     1      -6.469   1.201 -34.179  1.00  0.00     0.142 A 
HETATM   30  C   UNL     1      -7.489   1.125 -35.097  1.00  0.00     0.027 A 
HETATM   31  C   UNL     1      -7.799  -0.250 -35.230  1.00  0.00     0.034 A 
ENDBRANCH  26  27
ENDBRANCH  22  26
ENDBRANCH  21  22
ENDBRANCH   3  21
TORSDOF 9
ENDMDL
MODEL 3
REMARK VINA RESULT:      -7.5      4.016      8.170
REMARK  9 active torsions:
REMARK  status: ('A' for Active; 'I' for Inactive)
REMARK    1  A    between atoms: C_6  and  C_7 
REMARK    2  A    between atoms: C_7  and  C_8 
REMARK    3  A    between atoms: C_11  and  N_12 
REMARK       I    between atoms: N_12  and  C_13 
REMARK       I    between atoms: C_13  and  N_14 
REMARK    4  A    between atoms: N_14  and  C_15 
REMARK    5  A    between atoms: C_15  and  C_16 
REMARK    6  A    between atoms: C_16  and  C_17 
REMARK    7  A    between atoms: C_16  and  C_19 
REMARK    8  A    between atoms: C_17  and  O_18 
REMARK    9  A    between atoms: C_19  and  C_20 
ROOT
HETATM    1  N   UNL     1      -5.525   3.241 -32.131  1.00  0.00    -0.309 N 
HETATM    2  C   UNL     1      -4.366   3.925 -31.937  1.00  0.00     0.320 C 
HETATM    3  N   UNL     1      -3.310   3.638 -32.742  1.00  0.00    -0.342 N 
HETATM    4  O   UNL     1      -4.324   4.801 -31.073  1.00  0.00    -0.247 OA
HETATM    5  H   UNL     1      -6.278   3.669 -31.605  1.00  0.00     0.170 HD
HETATM    6  H   UNL     1      -3.537   3.309 -33.669  1.00  0.00     0.164 HD
ENDROOT
BRANCH   1   7
HETATM    7  C   UNL     1      -5.835   2.039 -32.793  1.00  0.00     0.036 A 
HETATM    8  C   UNL     1      -5.694   0.764 -32.244  1.00  0.00     0.030 A 
HETATM    9  C   UNL     1      -6.057  -0.373 -32.977  1.00  0.00     0.010 A 
HETATM   10  C   UNL     1      -6.597  -0.253 -34.263  1.00  0.00    -0.051 A 
HETATM   11  C   UNL     1      -6.767   1.025 -34.805  1.00  0.00     0.010 A 
HETATM   12  C   UNL     1      -6.389   2.156 -34.075  1.00  0.00     0.030 A 
BRANCH  10  13
HETATM   13  C   UNL     1      -7.052  -1.479 -35.023  1.00  0.00     0.118 C 
BRANCH  13  14
HETATM   14  C   UNL     1      -6.237  -2.704 -34.773  1.00  0.00     0.126 A 
HETATM   15  N   UNL     1      -6.702  -3.984 -34.902  1.00  0.00    -0.263 N 
HETATM   16  N   UNL     1      -5.755  -4.886 -34.602  1.00  0.00    -0.158 NA
HETATM   17  H   UNL     1      -7.626  -4.302 -35.174  1.00  0.00     0.190 HD
HETATM   18  C   UNL     1      -4.719  -4.096 -34.299  1.00  0.00     0.144 A 
HETATM   19  C   UNL     1      -3.402  -4.627 -33.901  1.00  0.00     0.095 C 
HETATM   20  N   UNL     1      -4.976  -2.752 -34.394  1.00  0.00    -0.217 NA
ENDBRANCH  13  14
ENDBRANCH  10  13
ENDBRANCH   1   7
BRANCH   3  21
HETATM   21  C   UNL     1      -2.007   4.248 -32.548  1.00  0.00     0.131 C 
BRANCH  21  22
HETATM   22  C   UNL     1      -1.573   5.190 -33.685  1.00  0.00     0.033 C 
BRANCH  22  23
HETATM   23  C   UNL     1      -2.461   5.035 -34.928  1.00  0.00     0.170 C 
BRANCH  23  24
HETATM   24  O   UNL     1      -3.469   6.042 -34.936  1.00  0.00    -0.400 OA
HETATM   25  H   UNL     1      -4.299   5.624 -35.222  1.00  0.00     0.209 HD
ENDBRANCH  23  24
ENDBRANCH  22  23
BRANCH  22  26
HETATM   26  C   UNL     1      -1.595   6.663 -33.220  1.00  0.00     0.073 C 
BRANCH  26  27
HETATM   27  C   UNL     1      -0.980   6.879 -31.884  1.00  0.00     0.053 A 
HETATM   28  O   UNL     1      -1.823   7.226 -30.871  1.00  0.00    -0.327 OA
HETATM   29  C   UNL     1      -1.063   7.367 -29.755  1.00  0.00     0.142 A 
HETATM   30  C   UNL     1       0.259   7.121 -30.039  1.00  0.00     0.027 A 
HETATM   31  C   UNL     1       0.315   6.802 -31.417  1.00  0.00     0.034 A 
ENDBRANCH  26  27
ENDBRANCH  22  26
ENDBRANCH  21  22
ENDBRANCH   3  21
TORSDOF 9
ENDMDL
MODEL 4
REMARK VINA RESULT:      -7.2      3.631      7.687
REMARK  9 active torsions:
REMARK  status: ('A' for Active; 'I' for Inactive)
REMARK    1  A    between atoms: C_6  and  C_7 
REMARK    2  A    between atoms: C_7  and  C_8 
REMARK    3  A    between atoms: C_11  and  N_12 
REMARK       I    between atoms: N_12  and  C_13 
REMARK       I    between atoms: C_13  and  N_14 
REMARK    4  A    between atoms: N_14  and  C_15 
REMARK    5  A    between atoms: C_15  and  C_16 
REMARK    6  A    between atoms: C_16  and  C_17 
REMARK    7  A    between atoms: C_16  and  C_19 
REMARK    8  A    between atoms: C_17  and  O_18 
REMARK    9  A    between atoms: C_19  and  C_20 
ROOT
HETATM    1  N   UNL     1      -7.724   1.877 -30.480  1.00  0.00    -0.309 N 
HETATM    2  C   UNL     1      -7.484   3.199 -30.268  1.00  0.00     0.320 C 
HETATM    3  N   UNL     1      -7.306   4.000 -31.351  1.00  0.00    -0.342 N 
HETATM    4  O   UNL     1      -7.475   3.629 -29.115  1.00  0.00    -0.247 OA
HETATM    5  H   UNL     1      -8.021   1.432 -29.619  1.00  0.00     0.170 HD
HETATM    6  H   UNL     1      -7.784   3.716 -32.194  1.00  0.00     0.164 HD
ENDROOT
BRANCH   1   7
HETATM    7  C   UNL     1      -7.531   1.027 -31.585  1.00  0.00     0.036 A 
HETATM    8  C   UNL     1      -8.554   0.417 -32.311  1.00  0.00     0.030 A 
HETATM    9  C   UNL     1      -8.259  -0.393 -33.415  1.00  0.00     0.010 A 
HETATM   10  C   UNL     1      -6.935  -0.583 -33.831  1.00  0.00    -0.051 A 
HETATM   11  C   UNL     1      -5.910   0.052 -33.122  1.00  0.00     0.010 A 
HETATM   12  C   UNL     1      -6.209   0.847 -32.012  1.00  0.00     0.030 A 
BRANCH  10  13
HETATM   13  C   UNL     1      -6.627  -1.401 -35.065  1.00  0.00     0.118 C 
BRANCH  13  14
HETATM   14  C   UNL     1      -5.963  -2.710 -34.793  1.00  0.00     0.126 A 
HETATM   15  N   UNL     1      -6.548  -3.931 -34.994  1.00  0.00    -0.263 N 
HETATM   16  N   UNL     1      -5.723  -4.934 -34.653  1.00  0.00    -0.158 NA
HETATM   17  H   UNL     1      -7.476  -4.145 -35.342  1.00  0.00     0.190 HD
HETATM   18  C   UNL     1      -4.637  -4.264 -34.252  1.00  0.00     0.144 A 
HETATM   19  C   UNL     1      -3.416  -4.940 -33.776  1.00  0.00     0.095 C 
HETATM   20  N   UNL     1      -4.746  -2.900 -34.325  1.00  0.00    -0.217 NA
ENDBRANCH  13  14
ENDBRANCH  10  13
ENDBRANCH   1   7
BRANCH   3  21
HETATM   21  C   UNL     1      -6.951   5.401 -31.221  1.00  0.00     0.131 C 
BRANCH  21  22
HETATM   22  C   UNL     1      -5.555   5.754 -31.761  1.00  0.00     0.033 C 
BRANCH  22  23
HETATM   23  C   UNL     1      -4.522   5.891 -30.633  1.00  0.00     0.170 C 
BRANCH  23  24
HETATM   24  O   UNL     1      -4.886   5.060 -29.534  1.00  0.00    -0.400 OA
HETATM   25  H   UNL     1      -5.843   5.162 -29.395  1.00  0.00     0.209 HD
ENDBRANCH  23  24
ENDBRANCH  22  23
BRANCH  22  26
HETATM   26  C   UNL     1      -5.069   4.694 -32.773  1.00  0.00     0.073 C 
BRANCH  26  27
HETATM   27  C   UNL     1      -3.726   4.981 -33.344  1.00  0.00     0.053 A 
HETATM   28  O   UNL     1      -3.582   6.165 -34.003  1.00  0.00    -0.327 OA
HETATM   29  C   UNL     1      -2.296   6.224 -34.432  1.00  0.00     0.142 A 
HETATM   30  C   UNL     1      -1.612   5.090 -34.063  1.00  0.00     0.027 A 
HETATM   31  C   UNL     1      -2.536   4.284 -33.355  1.00  0.00     0.034 A 
ENDBRANCH  26  27
ENDBRANCH  22  26
ENDBRANCH  21  22
ENDBRANCH   3  21
TORSDOF 9
ENDMDL
MODEL 5
REMARK VINA RESULT:      -7.2      3.834      6.115
REMARK  9 active torsions:
REMARK  status: ('A' for Active; 'I' for Inactive)
REMARK    1  A    between atoms: C_6  and  C_7 
REMARK    2  A    between atoms: C_7  and  C_8 
REMARK    3  A    between atoms: C_11  and  N_12 
REMARK       I    between atoms: N_12  and  C_13 
REMARK       I    between atoms: C_13  and  N_14 
REMARK    4  A    between atoms: N_14  and  C_15 
REMARK    5  A    between atoms: C_15  and  C_16 
REMARK    6  A    between atoms: C_16  and  C_17 
REMARK    7  A    between atoms: C_16  and  C_19 
REMARK    8  A    between atoms: C_17  and  O_18 
REMARK    9  A    between atoms: C_19  and  C_20 
ROOT
HETATM    1  N   UNL     1      -6.471   3.694 -31.870  1.00  0.00    -0.309 N 
HETATM    2  C   UNL     1      -7.226   2.588 -32.105  1.00  0.00     0.320 C 
HETATM    3  N   UNL     1      -6.603   1.381 -32.131  1.00  0.00    -0.342 N 
HETATM    4  O   UNL     1      -8.442   2.711 -32.246  1.00  0.00    -0.247 OA
HETATM    5  H   UNL     1      -7.067   4.495 -31.692  1.00  0.00     0.170 HD
HETATM    6  H   UNL     1      -5.774   1.299 -31.559  1.00  0.00     0.164 HD
ENDROOT
BRANCH   1   7
HETATM    7  C   UNL     1      -5.090   3.953 -31.945  1.00  0.00     0.036 A 
HETATM    8  C   UNL     1      -4.197   3.287 -32.785  1.00  0.00     0.030 A 
HETATM    9  C   UNL     1      -2.841   3.638 -32.805  1.00  0.00     0.010 A 
HETATM   10  C   UNL     1      -2.359   4.682 -32.006  1.00  0.00    -0.051 A 
HETATM   11  C   UNL     1      -3.258   5.370 -31.185  1.00  0.00     0.010 A 
HETATM   12  C   UNL     1      -4.608   5.007 -31.157  1.00  0.00     0.030 A 
BRANCH  10  13
HETATM   13  C   UNL     1      -0.908   5.102 -32.083  1.00  0.00     0.118 C 
BRANCH  13  14
HETATM   14  C   UNL     1      -0.342   5.620 -30.803  1.00  0.00     0.126 A 
HETATM   15  N   UNL     1      -0.052   4.844 -29.715  1.00  0.00    -0.263 N 
HETATM   16  N   UNL     1       0.434   5.578 -28.701  1.00  0.00    -0.158 NA
HETATM   17  H   UNL     1      -0.164   3.842 -29.597  1.00  0.00     0.190 HD
HETATM   18  C   UNL     1       0.425   6.805 -29.231  1.00  0.00     0.144 A 
HETATM   19  C   UNL     1       0.888   7.995 -28.492  1.00  0.00     0.095 C 
HETATM   20  N   UNL     1      -0.043   6.871 -30.518  1.00  0.00    -0.217 NA
ENDBRANCH  13  14
ENDBRANCH  10  13
ENDBRANCH   1   7
BRANCH   3  21
HETATM   21  C   UNL     1      -7.308   0.158 -32.467  1.00  0.00     0.131 C 
BRANCH  21  22
HETATM   22  C   UNL     1      -7.035  -0.362 -33.889  1.00  0.00     0.033 C 
BRANCH  22  23
HETATM   23  C   UNL     1      -7.096   0.764 -34.932  1.00  0.00     0.170 C 
BRANCH  23  24
HETATM   24  O   UNL     1      -8.400   1.340 -34.952  1.00  0.00    -0.400 OA
HETATM   25  H   UNL     1      -9.006   0.679 -35.328  1.00  0.00     0.209 HD
ENDBRANCH  23  24
ENDBRANCH  22  23
BRANCH  22  26
HETATM   26  C   UNL     1      -5.658  -1.057 -33.967  1.00  0.00     0.073 C 
BRANCH  26  27
HETATM   27  C   UNL     1      -5.736  -2.502 -34.309  1.00  0.00     0.053 A 
HETATM   28  O   UNL     1      -4.593  -3.230 -34.155  1.00  0.00    -0.327 OA
HETATM   29  C   UNL     1      -4.886  -4.505 -34.514  1.00  0.00     0.142 A 
HETATM   30  C   UNL     1      -6.201  -4.607 -34.902  1.00  0.00     0.027 A 
HETATM   31  C   UNL     1      -6.754  -3.311 -34.767  1.00  0.00     0.034 A 
ENDBRANCH  26  27
ENDBRANCH  22  26
ENDBRANCH  21  22
ENDBRANCH   3  21
TORSDOF 9
ENDMDL
MODEL 6
REMARK VINA RESULT:      -7.2      3.520      7.162
REMARK  9 active torsions:
REMARK  status: ('A' for Active; 'I' for Inactive)
REMARK    1  A    between atoms: C_6  and  C_7 
REMARK    2  A    between atoms: C_7  and  C_8 
REMARK    3  A    between atoms: C_11  and  N_12 
REMARK       I    between atoms: N_12  and  C_13 
REMARK       I    between atoms: C_13  and  N_14 
REMARK    4  A    between atoms: N_14  and  C_15 
REMARK    5  A    between atoms: C_15  and  C_16 
REMARK    6  A    between atoms: C_16  and  C_17 
REMARK    7  A    between atoms: C_16  and  C_19 
REMARK    8  A    between atoms: C_17  and  O_18 
REMARK    9  A    between atoms: C_19  and  C_20 
ROOT
HETATM    1  N   UNL     1      -7.870   2.198 -30.468  1.00  0.00    -0.309 N 
HETATM    2  C   UNL     1      -8.991   2.841 -30.891  1.00  0.00     0.320 C 
HETATM    3  N   UNL     1      -9.536   2.464 -32.077  1.00  0.00    -0.342 N 
HETATM    4  O   UNL     1      -9.493   3.706 -30.175  1.00  0.00    -0.247 OA
HETATM    5  H   UNL     1      -7.673   2.435 -29.502  1.00  0.00     0.170 HD
HETATM    6  H   UNL     1      -9.390   1.501 -32.345  1.00  0.00     0.164 HD
ENDROOT
BRANCH   1   7
HETATM    7  C   UNL     1      -6.910   1.403 -31.120  1.00  0.00     0.036 A 
HETATM    8  C   UNL     1      -6.668   0.057 -30.846  1.00  0.00     0.030 A 
HETATM    9  C   UNL     1      -5.706  -0.658 -31.571  1.00  0.00     0.010 A 
HETATM   10  C   UNL     1      -4.988  -0.044 -32.605  1.00  0.00    -0.051 A 
HETATM   11  C   UNL     1      -5.249   1.297 -32.901  1.00  0.00     0.010 A 
HETATM   12  C   UNL     1      -6.200   2.010 -32.164  1.00  0.00     0.030 A 
BRANCH  10  13
HETATM   13  C   UNL     1      -4.000  -0.838 -33.431  1.00  0.00     0.118 C 
BRANCH  13  14
HETATM   14  C   UNL     1      -4.496  -2.173 -33.879  1.00  0.00     0.126 A 
HETATM   15  N   UNL     1      -3.891  -3.363 -33.582  1.00  0.00    -0.263 N 
HETATM   16  N   UNL     1      -4.549  -4.399 -34.126  1.00  0.00    -0.158 NA
HETATM   17  H   UNL     1      -3.052  -3.534 -33.038  1.00  0.00     0.190 HD
HETATM   18  C   UNL     1      -5.559  -3.780 -34.745  1.00  0.00     0.144 A 
HETATM   19  C   UNL     1      -6.595  -4.509 -35.502  1.00  0.00     0.095 C 
HETATM   20  N   UNL     1      -5.562  -2.416 -34.615  1.00  0.00    -0.217 NA
ENDBRANCH  13  14
ENDBRANCH  10  13
ENDBRANCH   1   7
BRANCH   3  21
HETATM   21  C   UNL     1     -10.674   3.154 -32.655  1.00  0.00     0.131 C 
BRANCH  21  22
HETATM   22  C   UNL     1     -10.914   2.847 -34.143  1.00  0.00     0.033 C 
BRANCH  22  23
HETATM   23  C   UNL     1     -10.752   1.351 -34.453  1.00  0.00     0.170 C 
BRANCH  23  24
HETATM   24  O   UNL     1      -9.394   1.065 -34.776  1.00  0.00    -0.400 OA
HETATM   25  H   UNL     1      -9.060   1.801 -35.315  1.00  0.00     0.209 HD
ENDBRANCH  23  24
ENDBRANCH  22  23
BRANCH  22  26
HETATM   26  C   UNL     1     -12.321   3.311 -34.583  1.00  0.00     0.073 C 
BRANCH  26  27
HETATM   27  C   UNL     1     -13.421   2.445 -34.081  1.00  0.00     0.053 A 
HETATM   28  O   UNL     1     -13.910   1.514 -34.947  1.00  0.00    -0.327 OA
HETATM   29  C   UNL     1     -14.890   0.841 -34.292  1.00  0.00     0.142 A 
HETATM   30  C   UNL     1     -15.042   1.333 -33.016  1.00  0.00     0.027 A 
HETATM   31  C   UNL     1     -14.089   2.370 -32.877  1.00  0.00     0.034 A 
ENDBRANCH  26  27
ENDBRANCH  22  26
ENDBRANCH  21  22
ENDBRANCH   3  21
TORSDOF 9
ENDMDL
MODEL 7
REMARK VINA RESULT:      -7.2      3.835      5.857
REMARK  9 active torsions:
REMARK  status: ('A' for Active; 'I' for Inactive)
REMARK    1  A    between atoms: C_6  and  C_7 
REMARK    2  A    between atoms: C_7  and  C_8 
REMARK    3  A    between atoms: C_11  and  N_12 
REMARK       I    between atoms: N_12  and  C_13 
REMARK       I    between atoms: C_13  and  N_14 
REMARK    4  A    between atoms: N_14  and  C_15 
REMARK    5  A    between atoms: C_15  and  C_16 
REMARK    6  A    between atoms: C_16  and  C_17 
REMARK    7  A    between atoms: C_16  and  C_19 
REMARK    8  A    between atoms: C_17  and  O_18 
REMARK    9  A    between atoms: C_19  and  C_20 
ROOT
HETATM    1  N   UNL     1      -7.721   1.837 -30.582  1.00  0.00    -0.309 N 
HETATM    2  C   UNL     1      -6.368   1.721 -30.656  1.00  0.00     0.320 C 
HETATM    3  N   UNL     1      -5.775   1.904 -31.865  1.00  0.00    -0.342 N 
HETATM    4  O   UNL     1      -5.729   1.496 -29.630  1.00  0.00    -0.247 OA
HETATM    5  H   UNL     1      -8.019   1.866 -29.613  1.00  0.00     0.170 HD
HETATM    6  H   UNL     1      -6.251   2.528 -32.501  1.00  0.00     0.164 HD
ENDROOT
BRANCH   1   7
HETATM    7  C   UNL     1      -8.746   1.804 -31.545  1.00  0.00     0.036 A 
HETATM    8  C   UNL     1      -9.325   2.929 -32.135  1.00  0.00     0.030 A 
HETATM    9  C   UNL     1     -10.323   2.790 -33.107  1.00  0.00     0.010 A 
HETATM   10  C   UNL     1     -10.741   1.522 -33.529  1.00  0.00    -0.051 A 
HETATM   11  C   UNL     1     -10.142   0.393 -32.961  1.00  0.00     0.010 A 
HETATM   12  C   UNL     1      -9.156   0.537 -31.980  1.00  0.00     0.030 A 
BRANCH  10  13
HETATM   13  C   UNL     1     -11.770   1.378 -34.628  1.00  0.00     0.118 C 
BRANCH  13  14
HETATM   14  C   UNL     1     -13.183   1.313 -34.153  1.00  0.00     0.126 A 
HETATM   15  N   UNL     1     -14.110   0.411 -34.600  1.00  0.00    -0.263 N 
HETATM   16  N   UNL     1     -15.300   0.593 -34.008  1.00  0.00    -0.158 NA
HETATM   17  H   UNL     1     -14.003  -0.325 -35.290  1.00  0.00     0.190 HD
HETATM   18  C   UNL     1     -15.041   1.624 -33.196  1.00  0.00     0.144 A 
HETATM   19  C   UNL     1     -16.058   2.208 -32.301  1.00  0.00     0.095 C 
HETATM   20  N   UNL     1     -13.754   2.091 -33.256  1.00  0.00    -0.217 NA
ENDBRANCH  13  14
ENDBRANCH  10  13
ENDBRANCH   1   7
BRANCH   3  21
HETATM   21  C   UNL     1      -4.351   1.708 -32.060  1.00  0.00     0.131 C 
BRANCH  21  22
HETATM   22  C   UNL     1      -3.935   0.241 -32.265  1.00  0.00     0.033 C 
BRANCH  22  23
HETATM   23  C   UNL     1      -2.953  -0.234 -31.184  1.00  0.00     0.170 C 
BRANCH  23  24
HETATM   24  O   UNL     1      -2.185  -1.331 -31.670  1.00  0.00    -0.400 OA
HETATM   25  H   UNL     1      -2.807  -1.988 -32.027  1.00  0.00     0.209 HD
ENDBRANCH  23  24
ENDBRANCH  22  23
BRANCH  22  26
HETATM   26  C   UNL     1      -5.170  -0.687 -32.276  1.00  0.00     0.073 C 
BRANCH  26  27
HETATM   27  C   UNL     1      -5.167  -1.675 -33.387  1.00  0.00     0.053 A 
HETATM   28  O   UNL     1      -4.147  -2.579 -33.399  1.00  0.00    -0.327 OA
HETATM   29  C   UNL     1      -4.339  -3.377 -34.480  1.00  0.00     0.142 A 
HETATM   30  C   UNL     1      -5.467  -2.994 -35.167  1.00  0.00     0.027 A 
HETATM   31  C   UNL     1      -6.006  -1.894 -34.459  1.00  0.00     0.034 A 
ENDBRANCH  26  27
ENDBRANCH  22  26
ENDBRANCH  21  22
ENDBRANCH   3  21
TORSDOF 9
ENDMDL
MODEL 8
REMARK VINA RESULT:      -7.1     14.755     17.302
REMARK  9 active torsions:
REMARK  status: ('A' for Active; 'I' for Inactive)
REMARK    1  A    between atoms: C_6  and  C_7 
REMARK    2  A    between atoms: C_7  and  C_8 
REMARK    3  A    between atoms: C_11  and  N_12 
REMARK       I    between atoms: N_12  and  C_13 
REMARK       I    between atoms: C_13  and  N_14 
REMARK    4  A    between atoms: N_14  and  C_15 
REMARK    5  A    between atoms: C_15  and  C_16 
REMARK    6  A    between atoms: C_16  and  C_17 
REMARK    7  A    between atoms: C_16  and  C_19 
REMARK    8  A    between atoms: C_17  and  O_18 
REMARK    9  A    between atoms: C_19  and  C_20 
ROOT
HETATM    1  N   UNL     1      -4.789 -12.377 -38.521  1.00  0.00    -0.309 N 
HETATM    2  C   UNL     1      -3.686 -13.167 -38.596  1.00  0.00     0.320 C 
HETATM    3  N   UNL     1      -3.781 -14.338 -39.279  1.00  0.00    -0.342 N 
HETATM    4  O   UNL     1      -2.637 -12.783 -38.080  1.00  0.00    -0.247 OA
HETATM    5  H   UNL     1      -4.543 -11.464 -38.155  1.00  0.00     0.170 HD
HETATM    6  H   UNL     1      -4.450 -14.355 -40.035  1.00  0.00     0.164 HD
ENDROOT
BRANCH   1   7
HETATM    7  C   UNL     1      -6.160 -12.612 -38.731  1.00  0.00     0.036 A 
HETATM    8  C   UNL     1      -7.037 -13.129 -37.777  1.00  0.00     0.030 A 
HETATM    9  C   UNL     1      -8.395 -13.303 -38.075  1.00  0.00     0.010 A 
HETATM   10  C   UNL     1      -8.906 -12.934 -39.326  1.00  0.00    -0.051 A 
HETATM   11  C   UNL     1      -8.034 -12.388 -40.274  1.00  0.00     0.010 A 
HETATM   12  C   UNL     1      -6.677 -12.231 -39.976  1.00  0.00     0.030 A 
BRANCH  10  13
HETATM   13  C   UNL     1     -10.384 -13.058 -39.619  1.00  0.00     0.118 C 
BRANCH  13  14
HETATM   14  C   UNL     1     -10.738 -14.137 -40.588  1.00  0.00     0.126 A 
HETATM   15  N   UNL     1      -9.842 -15.023 -41.120  1.00  0.00    -0.263 N 
HETATM   16  N   UNL     1     -10.437 -15.874 -41.971  1.00  0.00    -0.158 NA
HETATM   17  H   UNL     1      -8.843 -15.097 -40.956  1.00  0.00     0.190 HD
HETATM   18  C   UNL     1     -11.707 -15.462 -41.917  1.00  0.00     0.144 A 
HETATM   19  C   UNL     1     -12.786 -16.104 -42.693  1.00  0.00     0.095 C 
HETATM   20  N   UNL     1     -11.931 -14.400 -41.080  1.00  0.00    -0.217 NA
ENDBRANCH  13  14
ENDBRANCH  10  13
ENDBRANCH   1   7
BRANCH   3  21
HETATM   21  C   UNL     1      -2.686 -15.289 -39.332  1.00  0.00     0.131 C 
BRANCH  21  22
HETATM   22  C   UNL     1      -1.997 -15.388 -40.704  1.00  0.00     0.033 C 
BRANCH  22  23
HETATM   23  C   UNL     1      -2.955 -15.039 -41.852  1.00  0.00     0.170 C 
BRANCH  23  24
HETATM   24  O   UNL     1      -2.998 -13.627 -42.040  1.00  0.00    -0.400 OA
HETATM   25  H   UNL     1      -3.639 -13.266 -41.404  1.00  0.00     0.209 HD
ENDBRANCH  23  24
ENDBRANCH  22  23
BRANCH  22  26
HETATM   26  C   UNL     1      -0.762 -14.463 -40.770  1.00  0.00     0.073 C 
BRANCH  26  27
HETATM   27  C   UNL     1       0.311 -14.827 -39.806  1.00  0.00     0.053 A 
HETATM   28  O   UNL     1       1.015 -15.963 -40.075  1.00  0.00    -0.327 OA
HETATM   29  C   UNL     1       1.933 -16.102 -39.085  1.00  0.00     0.142 A 
HETATM   30  C   UNL     1       1.825 -15.073 -38.180  1.00  0.00     0.027 A 
HETATM   31  C   UNL     1       0.776 -14.245 -38.647  1.00  0.00     0.034 A 
ENDBRANCH  26  27
ENDBRANCH  22  26
ENDBRANCH  21  22
ENDBRANCH   3  21
TORSDOF 9
ENDMDL
MODEL 9
REMARK VINA RESULT:      -7.0      4.364      6.796
REMARK  9 active torsions:
REMARK  status: ('A' for Active; 'I' for Inactive)
REMARK    1  A    between atoms: C_6  and  C_7 
REMARK    2  A    between atoms: C_7  and  C_8 
REMARK    3  A    between atoms: C_11  and  N_12 
REMARK       I    between atoms: N_12  and  C_13 
REMARK       I    between atoms: C_13  and  N_14 
REMARK    4  A    between atoms: N_14  and  C_15 
REMARK    5  A    between atoms: C_15  and  C_16 
REMARK    6  A    between atoms: C_16  and  C_17 
REMARK    7  A    between atoms: C_16  and  C_19 
REMARK    8  A    between atoms: C_17  and  O_18 
REMARK    9  A    between atoms: C_19  and  C_20 
ROOT
HETATM    1  N   UNL     1      -5.633   5.525 -33.216  1.00  0.00    -0.309 N 
HETATM    2  C   UNL     1      -6.492   4.542 -33.595  1.00  0.00     0.320 C 
HETATM    3  N   UNL     1      -6.223   3.269 -33.202  1.00  0.00    -0.342 N 
HETATM    4  O   UNL     1      -7.495   4.839 -34.243  1.00  0.00    -0.247 OA
HETATM    5  H   UNL     1      -6.035   6.436 -33.407  1.00  0.00     0.170 HD
HETATM    6  H   UNL     1      -5.718   3.173 -32.332  1.00  0.00     0.164 HD
ENDROOT
BRANCH   1   7
HETATM    7  C   UNL     1      -4.307   5.519 -32.744  1.00  0.00     0.036 A 
HETATM    8  C   UNL     1      -3.923   5.820 -31.437  1.00  0.00     0.030 A 
HETATM    9  C   UNL     1      -2.576   5.759 -31.057  1.00  0.00     0.010 A 
HETATM   10  C   UNL     1      -1.592   5.366 -31.972  1.00  0.00    -0.051 A 
HETATM   11  C   UNL     1      -1.978   5.034 -33.274  1.00  0.00     0.010 A 
HETATM   12  C   UNL     1      -3.321   5.111 -33.653  1.00  0.00     0.030 A 
BRANCH  10  13
HETATM   13  C   UNL     1      -0.148   5.234 -31.538  1.00  0.00     0.118 C 
BRANCH  13  14
HETATM   14  C   UNL     1       0.167   5.872 -30.227  1.00  0.00     0.126 A 
HETATM   15  N   UNL     1       0.098   5.235 -29.019  1.00  0.00    -0.263 N 
HETATM   16  N   UNL     1       0.425   6.056 -28.009  1.00  0.00    -0.158 NA
HETATM   17  H   UNL     1      -0.163   4.275 -28.818  1.00  0.00     0.190 HD
HETATM   18  C   UNL     1       0.694   7.191 -28.662  1.00  0.00     0.144 A 
HETATM   19  C   UNL     1       1.120   8.424 -27.974  1.00  0.00     0.095 C 
HETATM   20  N   UNL     1       0.548   7.117 -30.023  1.00  0.00    -0.217 NA
ENDBRANCH  13  14
ENDBRANCH  10  13
ENDBRANCH   1   7
BRANCH   3  21
HETATM   21  C   UNL     1      -7.029   2.144 -33.637  1.00  0.00     0.131 C 
BRANCH  21  22
HETATM   22  C   UNL     1      -7.386   1.149 -32.518  1.00  0.00     0.033 C 
BRANCH  22  23
HETATM   23  C   UNL     1      -8.407   1.737 -31.533  1.00  0.00     0.170 C 
BRANCH  23  24
HETATM   24  O   UNL     1      -9.322   0.726 -31.118  1.00  0.00    -0.400 OA
HETATM   25  H   UNL     1     -10.210   0.998 -31.407  1.00  0.00     0.209 HD
ENDBRANCH  23  24
ENDBRANCH  22  23
BRANCH  22  26
HETATM   26  C   UNL     1      -7.941  -0.167 -33.106  1.00  0.00     0.073 C 
BRANCH  26  27
HETATM   27  C   UNL     1      -6.890  -1.075 -33.638  1.00  0.00     0.053 A 
HETATM   28  O   UNL     1      -5.652  -0.974 -33.076  1.00  0.00    -0.327 OA
HETATM   29  C   UNL     1      -4.861  -1.883 -33.699  1.00  0.00     0.142 A 
HETATM   30  C   UNL     1      -5.572  -2.565 -34.658  1.00  0.00     0.027 A 
HETATM   31  C   UNL     1      -6.888  -2.045 -34.618  1.00  0.00     0.034 A 
ENDBRANCH  26  27
ENDBRANCH  22  26
ENDBRANCH  21  22
ENDBRANCH   3  21
TORSDOF 9
ENDMDL
MODEL 10
REMARK VINA RESULT:      -7.0      4.796      7.034
REMARK  9 active torsions:
REMARK  status: ('A' for Active; 'I' for Inactive)
REMARK    1  A    between atoms: C_6  and  C_7 
REMARK    2  A    between atoms: C_7  and  C_8 
REMARK    3  A    between atoms: C_11  and  N_12 
REMARK       I    between atoms: N_12  and  C_13 
REMARK       I    between atoms: C_13  and  N_14 
REMARK    4  A    between atoms: N_14  and  C_15 
REMARK    5  A    between atoms: C_15  and  C_16 
REMARK    6  A    between atoms: C_16  and  C_17 
REMARK    7  A    between atoms: C_16  and  C_19 
REMARK    8  A    between atoms: C_17  and  O_18 
REMARK    9  A    between atoms: C_19  and  C_20 
ROOT
HETATM    1  N   UNL     1      -4.207   5.527 -33.802  1.00  0.00    -0.309 N 
HETATM    2  C   UNL     1      -5.020   4.440 -33.715  1.00  0.00     0.320 C 
HETATM    3  N   UNL     1      -4.945   3.672 -32.597  1.00  0.00    -0.342 N 
HETATM    4  O   UNL     1      -5.816   4.213 -34.626  1.00  0.00    -0.247 OA
HETATM    5  H   UNL     1      -4.485   6.113 -34.581  1.00  0.00     0.170 HD
HETATM    6  H   UNL     1      -4.670   4.149 -31.751  1.00  0.00     0.164 HD
ENDROOT
BRANCH   1   7
HETATM    7  C   UNL     1      -3.036   5.912 -33.123  1.00  0.00     0.036 A 
HETATM    8  C   UNL     1      -2.879   7.102 -32.413  1.00  0.00     0.030 A 
HETATM    9  C   UNL     1      -1.679   7.382 -31.746  1.00  0.00     0.010 A 
HETATM   10  C   UNL     1      -0.623   6.461 -31.755  1.00  0.00    -0.051 A 
HETATM   11  C   UNL     1      -0.789   5.255 -32.442  1.00  0.00     0.010 A 
HETATM   12  C   UNL     1      -1.983   4.986 -33.118  1.00  0.00     0.030 A 
BRANCH  10  13
HETATM   13  C   UNL     1       0.644   6.737 -30.977  1.00  0.00     0.118 C 
BRANCH  13  14
HETATM   14  C   UNL     1       0.475   6.735 -29.494  1.00  0.00     0.126 A 
HETATM   15  N   UNL     1      -0.097   5.717 -28.781  1.00  0.00    -0.263 N 
HETATM   16  N   UNL     1      -0.127   5.991 -27.468  1.00  0.00    -0.158 NA
HETATM   17  H   UNL     1      -0.480   4.840 -29.117  1.00  0.00     0.190 HD
HETATM   18  C   UNL     1       0.449   7.197 -27.432  1.00  0.00     0.144 A 
HETATM   19  C   UNL     1       0.661   7.942 -26.177  1.00  0.00     0.095 C 
HETATM   20  N   UNL     1       0.832   7.686 -28.654  1.00  0.00    -0.217 NA
ENDBRANCH  13  14
ENDBRANCH  10  13
ENDBRANCH   1   7
BRANCH   3  21
HETATM   21  C   UNL     1      -5.703   2.443 -32.457  1.00  0.00     0.131 C 
BRANCH  21  22
HETATM   22  C   UNL     1      -4.871   1.161 -32.635  1.00  0.00     0.033 C 
BRANCH  22  23
HETATM   23  C   UNL     1      -3.579   1.196 -31.806  1.00  0.00     0.170 C 
BRANCH  23  24
HETATM   24  O   UNL     1      -3.480   0.020 -31.007  1.00  0.00    -0.400 OA
HETATM   25  H   UNL     1      -2.584  -0.339 -31.126  1.00  0.00     0.209 HD
ENDBRANCH  23  24
ENDBRANCH  22  23
BRANCH  22  26
HETATM   26  C   UNL     1      -5.693  -0.089 -32.249  1.00  0.00     0.073 C 
BRANCH  26  27
HETATM   27  C   UNL     1      -5.628  -1.183 -33.254  1.00  0.00     0.053 A 
HETATM   28  O   UNL     1      -4.442  -1.847 -33.360  1.00  0.00    -0.327 OA
HETATM   29  C   UNL     1      -4.604  -2.793 -34.320  1.00  0.00     0.142 A 
HETATM   30  C   UNL     1      -5.877  -2.743 -34.836  1.00  0.00     0.027 A 
HETATM   31  C   UNL     1      -6.543  -1.703 -34.145  1.00  0.00     0.034 A 
ENDBRANCH  26  27
ENDBRANCH  22  26
ENDBRANCH  21  22
ENDBRANCH   3  21
TORSDOF 9
ENDMDL
