MODEL 1
REMARK VINA RESULT:     -10.3      0.000      0.000
REMARK  4 active torsions:
REMARK  status: ('A' for Active; 'I' for Inactive)
REMARK    1  A    between atoms: C_5  and  N_6 
REMARK       I    between atoms: N_6  and  C_7 
REMARK    2  A    between atoms: C_7  and  C_8 
REMARK    3  A    between atoms: C_12  and  C_13 
REMARK    4  A    between atoms: N_24  and  C_25 
ROOT
HETATM    1  N   UNL     1      -6.006   4.182 -32.320  1.00  0.00    -0.348 N 
HETATM    2  C   UNL     1      -6.168   3.643 -33.568  1.00  0.00     0.257 C 
HETATM    3  O   UNL     1      -6.312   4.328 -34.576  1.00  0.00    -0.267 OA
HETATM    4  H   UNL     1      -5.918   3.551 -31.523  1.00  0.00     0.163 HD
ENDROOT
BRANCH   1   5
HETATM    5  C   UNL     1      -5.797   5.598 -32.101  1.00  0.00     0.122 C 
HETATM    6  C   UNL     1      -6.638   6.151 -30.930  1.00  0.00     0.039 C 
HETATM    7  C   UNL     1      -6.027   5.953 -29.506  1.00  0.00    -0.040 C 
HETATM    8  C   UNL     1      -6.051   4.469 -29.091  1.00  0.00     0.015 C 
HETATM    9  C   UNL     1      -6.899   6.731 -28.496  1.00  0.00     0.015 C 
HETATM   10  C   UNL     1      -4.566   6.503 -29.424  1.00  0.00     0.069 C 
HETATM   11  C   UNL     1      -3.783   6.193 -30.656  1.00  0.00     0.047 A 
HETATM   12  C   UNL     1      -4.344   5.790 -31.854  1.00  0.00     0.008 A 
HETATM   13  N   UNL     1      -2.404   6.219 -30.844  1.00  0.00    -0.238 N 
HETATM   14  C   UNL     1      -3.258   5.572 -32.706  1.00  0.00     0.150 A 
HETATM   15  N   UNL     1      -2.093   5.794 -32.106  1.00  0.00    -0.179 NA
BRANCH  13  16
HETATM   16  C   UNL     1      -1.336   6.600 -29.971  1.00  0.00     0.058 A 
HETATM   17  C   UNL     1      -0.354   5.643 -29.654  1.00  0.00     0.031 A 
HETATM   18  C   UNL     1       0.705   5.955 -28.798  1.00  0.00     0.002 A 
HETATM   19  C   UNL     1       0.804   7.232 -28.255  1.00  0.00     0.000 A 
HETATM   20  C   UNL     1      -0.151   8.195 -28.576  1.00  0.00     0.002 A 
HETATM   21  C   UNL     1      -1.215   7.884 -29.432  1.00  0.00     0.031 A 
ENDBRANCH  13  16
ENDBRANCH   1   5
BRANCH   2  22
HETATM   22  C   UNL     1      -6.082   2.153 -33.635  1.00  0.00     0.100 A 
HETATM   23  C   UNL     1      -5.183   1.329 -32.773  1.00  0.00     0.261 A 
HETATM   24  O   UNL     1      -4.494   1.823 -31.884  1.00  0.00    -0.267 OA
HETATM   25  N   UNL     1      -5.148  -0.021 -33.032  1.00  0.00    -0.322 N 
HETATM   26  C   UNL     1      -5.878  -0.645 -34.016  1.00  0.00     0.045 A 
HETATM   27  H   UNL     1      -4.538  -0.571 -32.439  1.00  0.00     0.169 HD
HETATM   28  C   UNL     1      -6.708   0.089 -34.777  1.00  0.00     0.031 A 
HETATM   29  C   UNL     1      -6.810   1.517 -34.573  1.00  0.00     0.025 A 
BRANCH  26  30
HETATM   30  C   UNL     1      -5.687  -2.090 -34.229  1.00  0.00    -0.009 A 
HETATM   31  C   UNL     1      -6.754  -2.885 -34.678  1.00  0.00     0.013 A 
HETATM   32  C   UNL     1      -6.588  -4.258 -34.877  1.00  0.00     0.001 A 
HETATM   33  C   UNL     1      -5.353  -4.853 -34.628  1.00  0.00     0.000 A 
HETATM   34  C   UNL     1      -4.284  -4.077 -34.185  1.00  0.00     0.001 A 
HETATM   35  C   UNL     1      -4.449  -2.703 -33.988  1.00  0.00     0.013 A 
ENDBRANCH  26  30
ENDBRANCH   2  22
TORSDOF 4
ENDMDL
MODEL 2
REMARK VINA RESULT:     -10.3      4.884      9.152
REMARK  4 active torsions:
REMARK  status: ('A' for Active; 'I' for Inactive)
REMARK    1  A    between atoms: C_5  and  N_6 
REMARK       I    between atoms: N_6  and  C_7 
REMARK    2  A    between atoms: C_7  and  C_8 
REMARK    3  A    between atoms: C_12  and  C_13 
REMARK    4  A    between atoms: N_24  and  C_25 
ROOT
HETATM    1  N   UNL     1      -7.933   2.694 -33.305  1.00  0.00    -0.348 N 
HETATM    2  C   UNL     1      -8.706   3.771 -33.648  1.00  0.00     0.257 C 
HETATM    3  O   UNL     1      -8.283   4.709 -34.317  1.00  0.00    -0.267 OA
HETATM    4  H   UNL     1      -8.345   1.963 -32.724  1.00  0.00     0.163 HD
ENDROOT
BRANCH   1   5
HETATM    5  C   UNL     1      -6.614   2.470 -33.857  1.00  0.00     0.122 C 
HETATM    6  C   UNL     1      -5.486   2.755 -32.843  1.00  0.00     0.039 C 
HETATM    7  C   UNL     1      -5.151   1.588 -31.859  1.00  0.00    -0.040 C 
HETATM    8  C   UNL     1      -6.290   1.372 -30.843  1.00  0.00     0.015 C 
HETATM    9  C   UNL     1      -3.887   1.979 -31.063  1.00  0.00     0.015 C 
HETATM   10  C   UNL     1      -4.861   0.256 -32.623  1.00  0.00     0.069 C 
HETATM   11  C   UNL     1      -5.791   0.059 -33.774  1.00  0.00     0.047 A 
HETATM   12  C   UNL     1      -6.572   1.059 -34.324  1.00  0.00     0.008 A 
HETATM   13  N   UNL     1      -6.069  -1.106 -34.483  1.00  0.00    -0.238 N 
HETATM   14  C   UNL     1      -7.304   0.432 -35.334  1.00  0.00     0.150 A 
HETATM   15  N   UNL     1      -7.037  -0.868 -35.419  1.00  0.00    -0.179 NA
BRANCH  13  16
HETATM   16  C   UNL     1      -5.529  -2.427 -34.383  1.00  0.00     0.058 A 
HETATM   17  C   UNL     1      -6.289  -3.503 -34.879  1.00  0.00     0.031 A 
HETATM   18  C   UNL     1      -5.816  -4.815 -34.799  1.00  0.00     0.002 A 
HETATM   19  C   UNL     1      -4.573  -5.070 -34.231  1.00  0.00     0.000 A 
HETATM   20  C   UNL     1      -3.801  -4.013 -33.753  1.00  0.00     0.002 A 
HETATM   21  C   UNL     1      -4.273  -2.696 -33.831  1.00  0.00     0.031 A 
ENDBRANCH  13  16
ENDBRANCH   1   5
BRANCH   2  22
HETATM   22  C   UNL     1     -10.134   3.696 -33.215  1.00  0.00     0.100 A 
HETATM   23  C   UNL     1     -10.898   2.420 -33.076  1.00  0.00     0.261 A 
HETATM   24  O   UNL     1     -10.374   1.321 -33.241  1.00  0.00    -0.267 OA
HETATM   25  N   UNL     1     -12.234   2.532 -32.767  1.00  0.00    -0.322 N 
HETATM   26  C   UNL     1     -12.893   3.724 -32.581  1.00  0.00     0.045 A 
HETATM   27  H   UNL     1     -12.741   1.660 -32.672  1.00  0.00     0.169 HD
HETATM   28  C   UNL     1     -12.204   4.873 -32.680  1.00  0.00     0.031 A 
HETATM   29  C   UNL     1     -10.793   4.850 -32.999  1.00  0.00     0.025 A 
BRANCH  26  30
HETATM   30  C   UNL     1     -14.344   3.695 -32.325  1.00  0.00    -0.009 A 
HETATM   31  C   UNL     1     -15.048   2.482 -32.386  1.00  0.00     0.013 A 
HETATM   32  C   UNL     1     -16.425   2.442 -32.153  1.00  0.00     0.001 A 
HETATM   33  C   UNL     1     -17.114   3.615 -31.856  1.00  0.00     0.000 A 
HETATM   34  C   UNL     1     -16.429   4.827 -31.789  1.00  0.00     0.001 A 
HETATM   35  C   UNL     1     -15.052   4.867 -32.020  1.00  0.00     0.013 A 
ENDBRANCH  26  30
ENDBRANCH   2  22
TORSDOF 4
ENDMDL
MODEL 3
REMARK VINA RESULT:      -9.6      1.672      2.132
REMARK  4 active torsions:
REMARK  status: ('A' for Active; 'I' for Inactive)
REMARK    1  A    between atoms: C_5  and  N_6 
REMARK       I    between atoms: N_6  and  C_7 
REMARK    2  A    between atoms: C_7  and  C_8 
REMARK    3  A    between atoms: C_12  and  C_13 
REMARK    4  A    between atoms: N_24  and  C_25 
ROOT
HETATM    1  N   UNL     1      -7.427   3.744 -32.656  1.00  0.00    -0.348 N 
HETATM    2  C   UNL     1      -8.174   2.959 -33.494  1.00  0.00     0.257 C 
HETATM    3  O   UNL     1      -9.123   3.392 -34.142  1.00  0.00    -0.267 OA
HETATM    4  H   UNL     1      -6.669   3.310 -32.130  1.00  0.00     0.163 HD
ENDROOT
BRANCH   1   5
HETATM    5  C   UNL     1      -7.564   5.183 -32.604  1.00  0.00     0.122 C 
HETATM    6  C   UNL     1      -8.485   5.655 -31.458  1.00  0.00     0.039 C 
HETATM    7  C   UNL     1      -7.810   5.779 -30.055  1.00  0.00    -0.040 C 
HETATM    8  C   UNL     1      -7.462   4.391 -29.480  1.00  0.00     0.015 C 
HETATM    9  C   UNL     1      -8.820   6.440 -29.092  1.00  0.00     0.015 C 
HETATM   10  C   UNL     1      -6.526   6.667 -30.110  1.00  0.00     0.069 C 
HETATM   11  C   UNL     1      -5.720   6.409 -31.340  1.00  0.00     0.047 A 
HETATM   12  C   UNL     1      -6.195   5.745 -32.456  1.00  0.00     0.008 A 
HETATM   13  N   UNL     1      -4.394   6.742 -31.602  1.00  0.00    -0.238 N 
HETATM   14  C   UNL     1      -5.110   5.694 -33.335  1.00  0.00     0.150 A 
HETATM   15  N   UNL     1      -4.020   6.257 -32.824  1.00  0.00    -0.179 NA
BRANCH  13  16
HETATM   16  C   UNL     1      -3.431   7.468 -30.833  1.00  0.00     0.058 A 
HETATM   17  C   UNL     1      -3.422   8.873 -30.920  1.00  0.00     0.031 A 
HETATM   18  C   UNL     1      -2.496   9.632 -30.200  1.00  0.00     0.002 A 
HETATM   19  C   UNL     1      -1.573   9.000 -29.375  1.00  0.00     0.000 A 
HETATM   20  C   UNL     1      -1.583   7.611 -29.264  1.00  0.00     0.002 A 
HETATM   21  C   UNL     1      -2.509   6.847 -29.985  1.00  0.00     0.031 A 
ENDBRANCH  13  16
ENDBRANCH   1   5
BRANCH   2  22
HETATM   22  C   UNL     1      -7.709   1.546 -33.630  1.00  0.00     0.100 A 
HETATM   23  C   UNL     1      -7.231   0.711 -32.488  1.00  0.00     0.261 A 
HETATM   24  O   UNL     1      -7.256   1.114 -31.327  1.00  0.00    -0.267 OA
HETATM   25  N   UNL     1      -6.741  -0.535 -32.798  1.00  0.00    -0.322 N 
HETATM   26  C   UNL     1      -6.668  -1.049 -34.071  1.00  0.00     0.045 A 
HETATM   27  H   UNL     1      -6.423  -1.094 -32.015  1.00  0.00     0.169 HD
HETATM   28  C   UNL     1      -7.121  -0.312 -35.099  1.00  0.00     0.031 A 
HETATM   29  C   UNL     1      -7.657   1.012 -34.865  1.00  0.00     0.025 A 
BRANCH  26  30
HETATM   30  C   UNL     1      -6.052  -2.373 -34.264  1.00  0.00    -0.009 A 
HETATM   31  C   UNL     1      -6.822  -3.449 -34.734  1.00  0.00     0.013 A 
HETATM   32  C   UNL     1      -6.252  -4.711 -34.915  1.00  0.00     0.001 A 
HETATM   33  C   UNL     1      -4.905  -4.914 -34.626  1.00  0.00     0.000 A 
HETATM   34  C   UNL     1      -4.126  -3.856 -34.162  1.00  0.00     0.001 A 
HETATM   35  C   UNL     1      -4.695  -2.592 -33.984  1.00  0.00     0.013 A 
ENDBRANCH  26  30
ENDBRANCH   2  22
TORSDOF 4
ENDMDL
MODEL 4
REMARK VINA RESULT:      -9.6      1.659      2.306
REMARK  4 active torsions:
REMARK  status: ('A' for Active; 'I' for Inactive)
REMARK    1  A    between atoms: C_5  and  N_6 
REMARK       I    between atoms: N_6  and  C_7 
REMARK    2  A    between atoms: C_7  and  C_8 
REMARK    3  A    between atoms: C_12  and  C_13 
REMARK    4  A    between atoms: N_24  and  C_25 
ROOT
HETATM    1  N   UNL     1      -4.191   4.965 -31.459  1.00  0.00    -0.348 N 
HETATM    2  C   UNL     1      -4.827   4.285 -32.462  1.00  0.00     0.257 C 
HETATM    3  O   UNL     1      -5.465   4.847 -33.347  1.00  0.00    -0.267 OA
HETATM    4  H   UNL     1      -3.700   4.430 -30.742  1.00  0.00     0.163 HD
ENDROOT
BRANCH   1   5
HETATM    5  C   UNL     1      -4.051   6.406 -31.457  1.00  0.00     0.122 C 
HETATM    6  C   UNL     1      -5.176   7.114 -30.671  1.00  0.00     0.039 C 
HETATM    7  C   UNL     1      -4.968   7.202 -29.125  1.00  0.00    -0.040 C 
HETATM    8  C   UNL     1      -5.099   5.815 -28.465  1.00  0.00     0.015 C 
HETATM    9  C   UNL     1      -6.081   8.101 -28.542  1.00  0.00     0.015 C 
HETATM   10  C   UNL     1      -3.585   7.833 -28.765  1.00  0.00     0.069 C 
HETATM   11  C   UNL     1      -2.499   7.350 -29.668  1.00  0.00     0.047 A 
HETATM   12  C   UNL     1      -2.717   6.713 -30.876  1.00  0.00     0.008 A 
HETATM   13  N   UNL     1      -1.120   7.414 -29.489  1.00  0.00    -0.238 N 
HETATM   14  C   UNL     1      -1.443   6.404 -31.358  1.00  0.00     0.150 A 
HETATM   15  N   UNL     1      -0.482   6.789 -30.524  1.00  0.00    -0.179 NA
BRANCH  13  16
HETATM   16  C   UNL     1      -0.326   7.998 -28.452  1.00  0.00     0.058 A 
HETATM   17  C   UNL     1       0.737   7.246 -27.917  1.00  0.00     0.031 A 
HETATM   18  C   UNL     1       1.538   7.761 -26.895  1.00  0.00     0.002 A 
HETATM   19  C   UNL     1       1.296   9.037 -26.400  1.00  0.00     0.000 A 
HETATM   20  C   UNL     1       0.259   9.799 -26.933  1.00  0.00     0.002 A 
HETATM   21  C   UNL     1      -0.548   9.286 -27.957  1.00  0.00     0.031 A 
ENDBRANCH  13  16
ENDBRANCH   1   5
BRANCH   2  22
HETATM   22  C   UNL     1      -4.628   2.804 -32.455  1.00  0.00     0.100 A 
HETATM   23  C   UNL     1      -3.432   2.125 -31.876  1.00  0.00     0.261 A 
HETATM   24  O   UNL     1      -2.546   2.744 -31.291  1.00  0.00    -0.267 OA
HETATM   25  N   UNL     1      -3.355   0.762 -32.042  1.00  0.00    -0.322 N 
HETATM   26  C   UNL     1      -4.297   0.003 -32.695  1.00  0.00     0.045 A 
HETATM   27  H   UNL     1      -2.541   0.312 -31.642  1.00  0.00     0.169 HD
HETATM   28  C   UNL     1      -5.389   0.606 -33.195  1.00  0.00     0.031 A 
HETATM   29  C   UNL     1      -5.554   2.037 -33.064  1.00  0.00     0.025 A 
BRANCH  26  30
HETATM   30  C   UNL     1      -4.050  -1.440 -32.861  1.00  0.00    -0.009 A 
HETATM   31  C   UNL     1      -3.310  -2.145 -31.898  1.00  0.00     0.013 A 
HETATM   32  C   UNL     1      -3.062  -3.512 -32.047  1.00  0.00     0.001 A 
HETATM   33  C   UNL     1      -3.551  -4.190 -33.161  1.00  0.00     0.000 A 
HETATM   34  C   UNL     1      -4.289  -3.505 -34.123  1.00  0.00     0.001 A 
HETATM   35  C   UNL     1      -4.540  -2.139 -33.974  1.00  0.00     0.013 A 
ENDBRANCH  26  30
ENDBRANCH   2  22
TORSDOF 4
ENDMDL
MODEL 5
REMARK VINA RESULT:      -9.2      3.061      9.497
REMARK  4 active torsions:
REMARK  status: ('A' for Active; 'I' for Inactive)
REMARK    1  A    between atoms: C_5  and  N_6 
REMARK       I    between atoms: N_6  and  C_7 
REMARK    2  A    between atoms: C_7  and  C_8 
REMARK    3  A    between atoms: C_12  and  C_13 
REMARK    4  A    between atoms: N_24  and  C_25 
ROOT
HETATM    1  N   UNL     1      -3.479   3.424 -31.968  1.00  0.00    -0.348 N 
HETATM    2  C   UNL     1      -2.448   4.234 -32.362  1.00  0.00     0.257 C 
HETATM    3  O   UNL     1      -2.005   4.239 -33.506  1.00  0.00    -0.267 OA
HETATM    4  H   UNL     1      -3.779   3.455 -30.993  1.00  0.00     0.163 HD
ENDROOT
BRANCH   1   5
HETATM    5  C   UNL     1      -4.264   2.647 -32.903  1.00  0.00     0.122 C 
HETATM    6  C   UNL     1      -4.671   1.268 -32.339  1.00  0.00     0.039 C 
HETATM    7  C   UNL     1      -5.944   1.258 -31.433  1.00  0.00    -0.040 C 
HETATM    8  C   UNL     1      -5.674   1.958 -30.086  1.00  0.00     0.015 C 
HETATM    9  C   UNL     1      -6.304  -0.212 -31.127  1.00  0.00     0.015 C 
HETATM   10  C   UNL     1      -7.163   1.927 -32.144  1.00  0.00     0.069 C 
HETATM   11  C   UNL     1      -6.764   3.146 -32.908  1.00  0.00     0.047 A 
HETATM   12  C   UNL     1      -5.461   3.459 -33.248  1.00  0.00     0.008 A 
HETATM   13  N   UNL     1      -7.566   4.174 -33.395  1.00  0.00    -0.238 N 
HETATM   14  C   UNL     1      -5.545   4.686 -33.910  1.00  0.00     0.150 A 
HETATM   15  N   UNL     1      -6.792   5.139 -33.977  1.00  0.00    -0.179 NA
BRANCH  13  16
HETATM   16  C   UNL     1      -8.985   4.358 -33.376  1.00  0.00     0.058 A 
HETATM   17  C   UNL     1      -9.762   3.684 -34.337  1.00  0.00     0.031 A 
HETATM   18  C   UNL     1     -11.151   3.834 -34.373  1.00  0.00     0.002 A 
HETATM   19  C   UNL     1     -11.784   4.652 -33.444  1.00  0.00     0.000 A 
HETATM   20  C   UNL     1     -11.029   5.310 -32.475  1.00  0.00     0.002 A 
HETATM   21  C   UNL     1      -9.637   5.162 -32.437  1.00  0.00     0.031 A 
ENDBRANCH  13  16
ENDBRANCH   1   5
BRANCH   2  22
HETATM   22  C   UNL     1      -1.940   5.175 -31.318  1.00  0.00     0.100 A 
HETATM   23  C   UNL     1      -2.794   6.173 -30.608  1.00  0.00     0.261 A 
HETATM   24  O   UNL     1      -4.009   6.240 -30.785  1.00  0.00    -0.267 OA
HETATM   25  N   UNL     1      -2.152   7.034 -29.750  1.00  0.00    -0.322 N 
HETATM   26  C   UNL     1      -0.798   7.029 -29.510  1.00  0.00     0.045 A 
HETATM   27  H   UNL     1      -2.742   7.704 -29.271  1.00  0.00     0.169 HD
HETATM   28  C   UNL     1      -0.030   6.116 -30.127  1.00  0.00     0.031 A 
HETATM   29  C   UNL     1      -0.621   5.168 -31.045  1.00  0.00     0.025 A 
BRANCH  26  30
HETATM   30  C   UNL     1      -0.236   8.059 -28.619  1.00  0.00    -0.009 A 
HETATM   31  C   UNL     1       1.108   7.987 -28.217  1.00  0.00     0.013 A 
HETATM   32  C   UNL     1       1.652   8.952 -27.366  1.00  0.00     0.001 A 
HETATM   33  C   UNL     1       0.859  10.001 -26.907  1.00  0.00     0.000 A 
HETATM   34  C   UNL     1      -0.475  10.088 -27.299  1.00  0.00     0.001 A 
HETATM   35  C   UNL     1      -1.019   9.124 -28.152  1.00  0.00     0.013 A 
ENDBRANCH  26  30
ENDBRANCH   2  22
TORSDOF 4
ENDMDL
MODEL 6
REMARK VINA RESULT:      -9.1      3.176     10.367
REMARK  4 active torsions:
REMARK  status: ('A' for Active; 'I' for Inactive)
REMARK    1  A    between atoms: C_5  and  N_6 
REMARK       I    between atoms: N_6  and  C_7 
REMARK    2  A    between atoms: C_7  and  C_8 
REMARK    3  A    between atoms: C_12  and  C_13 
REMARK    4  A    between atoms: N_24  and  C_25 
ROOT
HETATM    1  N   UNL     1      -2.512   7.174 -30.738  1.00  0.00    -0.348 N 
HETATM    2  C   UNL     1      -2.022   8.443 -30.581  1.00  0.00     0.257 C 
HETATM    3  O   UNL     1      -2.308   9.366 -31.338  1.00  0.00    -0.267 OA
HETATM    4  H   UNL     1      -2.211   6.450 -30.085  1.00  0.00     0.163 HD
ENDROOT
BRANCH   1   5
HETATM    5  C   UNL     1      -3.555   6.851 -31.688  1.00  0.00     0.122 C 
HETATM    6  C   UNL     1      -3.014   6.628 -33.117  1.00  0.00     0.039 C 
HETATM    7  C   UNL     1      -2.454   5.199 -33.412  1.00  0.00    -0.040 C 
HETATM    8  C   UNL     1      -1.137   4.949 -32.653  1.00  0.00     0.015 C 
HETATM    9  C   UNL     1      -2.144   5.108 -34.922  1.00  0.00     0.015 C 
HETATM   10  C   UNL     1      -3.493   4.088 -33.053  1.00  0.00     0.069 C 
HETATM   11  C   UNL     1      -4.219   4.391 -31.785  1.00  0.00     0.047 A 
HETATM   12  C   UNL     1      -4.244   5.635 -31.180  1.00  0.00     0.008 A 
HETATM   13  N   UNL     1      -4.962   3.535 -30.977  1.00  0.00    -0.238 N 
HETATM   14  C   UNL     1      -4.993   5.455 -30.015  1.00  0.00     0.150 A 
HETATM   15  N   UNL     1      -5.400   4.199 -29.865  1.00  0.00    -0.179 NA
BRANCH  13  16
HETATM   16  C   UNL     1      -5.310   2.155 -31.128  1.00  0.00     0.058 A 
HETATM   17  C   UNL     1      -4.281   1.195 -31.090  1.00  0.00     0.031 A 
HETATM   18  C   UNL     1      -4.561  -0.165 -31.243  1.00  0.00     0.002 A 
HETATM   19  C   UNL     1      -5.874  -0.586 -31.427  1.00  0.00     0.000 A 
HETATM   20  C   UNL     1      -6.904   0.352 -31.448  1.00  0.00     0.002 A 
HETATM   21  C   UNL     1      -6.626   1.716 -31.296  1.00  0.00     0.031 A 
ENDBRANCH  13  16
ENDBRANCH   1   5
BRANCH   2  22
HETATM   22  C   UNL     1      -1.169   8.653 -29.373  1.00  0.00     0.100 A 
HETATM   23  C   UNL     1       0.005   7.799 -29.021  1.00  0.00     0.261 A 
HETATM   24  O   UNL     1       0.399   6.893 -29.753  1.00  0.00    -0.267 OA
HETATM   25  N   UNL     1       0.622   8.063 -27.821  1.00  0.00    -0.322 N 
HETATM   26  C   UNL     1       0.231   9.048 -26.944  1.00  0.00     0.045 A 
HETATM   27  H   UNL     1       1.419   7.480 -27.595  1.00  0.00     0.169 HD
HETATM   28  C   UNL     1      -0.807   9.836 -27.269  1.00  0.00     0.031 A 
HETATM   29  C   UNL     1      -1.515   9.631 -28.514  1.00  0.00     0.025 A 
BRANCH  26  30
HETATM   30  C   UNL     1       0.942   9.171 -25.659  1.00  0.00    -0.009 A 
HETATM   31  C   UNL     1       0.335   9.829 -24.578  1.00  0.00     0.013 A 
HETATM   32  C   UNL     1       1.000   9.959 -23.356  1.00  0.00     0.001 A 
HETATM   33  C   UNL     1       2.280   9.433 -23.201  1.00  0.00     0.000 A 
HETATM   34  C   UNL     1       2.894   8.775 -24.265  1.00  0.00     0.001 A 
HETATM   35  C   UNL     1       2.229   8.642 -25.486  1.00  0.00     0.013 A 
ENDBRANCH  26  30
ENDBRANCH   2  22
TORSDOF 4
ENDMDL
MODEL 7
REMARK VINA RESULT:      -8.9      1.798      2.750
REMARK  4 active torsions:
REMARK  status: ('A' for Active; 'I' for Inactive)
REMARK    1  A    between atoms: C_5  and  N_6 
REMARK       I    between atoms: N_6  and  C_7 
REMARK    2  A    between atoms: C_7  and  C_8 
REMARK    3  A    between atoms: C_12  and  C_13 
REMARK    4  A    between atoms: N_24  and  C_25 
ROOT
HETATM    1  N   UNL     1      -4.833   6.192 -30.924  1.00  0.00    -0.348 N 
HETATM    2  C   UNL     1      -5.521   5.804 -32.042  1.00  0.00     0.257 C 
HETATM    3  O   UNL     1      -6.056   6.602 -32.806  1.00  0.00    -0.267 OA
HETATM    4  H   UNL     1      -4.436   5.472 -30.320  1.00  0.00     0.163 HD
ENDROOT
BRANCH   1   5
HETATM    5  C   UNL     1      -4.511   7.576 -30.645  1.00  0.00     0.122 C 
HETATM    6  C   UNL     1      -5.391   8.180 -29.529  1.00  0.00     0.039 C 
HETATM    7  C   UNL     1      -4.922   7.891 -28.067  1.00  0.00    -0.040 C 
HETATM    8  C   UNL     1      -5.120   6.407 -27.702  1.00  0.00     0.015 C 
HETATM    9  C   UNL     1      -5.798   8.726 -27.108  1.00  0.00     0.015 C 
HETATM   10  C   UNL     1      -3.428   8.297 -27.851  1.00  0.00     0.069 C 
HETATM   11  C   UNL     1      -2.577   7.941 -29.024  1.00  0.00     0.047 A 
HETATM   12  C   UNL     1      -3.072   7.621 -30.276  1.00  0.00     0.008 A 
HETATM   13  N   UNL     1      -1.191   7.839 -29.100  1.00  0.00    -0.238 N 
HETATM   14  C   UNL     1      -1.944   7.320 -31.044  1.00  0.00     0.150 A 
HETATM   15  N   UNL     1      -0.818   7.416 -30.345  1.00  0.00    -0.179 NA
BRANCH  13  16
HETATM   16  C   UNL     1      -0.169   8.095 -28.132  1.00  0.00     0.058 A 
HETATM   17  C   UNL     1       0.004   9.415 -27.672  1.00  0.00     0.031 A 
HETATM   18  C   UNL     1       0.993   9.725 -26.736  1.00  0.00     0.002 A 
HETATM   19  C   UNL     1       1.817   8.721 -26.238  1.00  0.00     0.000 A 
HETATM   20  C   UNL     1       1.644   7.408 -26.671  1.00  0.00     0.002 A 
HETATM   21  C   UNL     1       0.655   7.094 -27.611  1.00  0.00     0.031 A 
ENDBRANCH  13  16
ENDBRANCH   1   5
BRANCH   2  22
HETATM   22  C   UNL     1      -5.513   4.336 -32.318  1.00  0.00     0.100 A 
HETATM   23  C   UNL     1      -4.317   3.459 -32.145  1.00  0.00     0.261 A 
HETATM   24  O   UNL     1      -3.257   3.881 -31.686  1.00  0.00    -0.267 OA
HETATM   25  N   UNL     1      -4.449   2.149 -32.540  1.00  0.00    -0.322 N 
HETATM   26  C   UNL     1      -5.595   1.609 -33.074  1.00  0.00     0.045 A 
HETATM   27  H   UNL     1      -3.632   1.563 -32.414  1.00  0.00     0.169 HD
HETATM   28  C   UNL     1      -6.682   2.387 -33.208  1.00  0.00     0.031 A 
HETATM   29  C   UNL     1      -6.634   3.778 -32.815  1.00  0.00     0.025 A 
BRANCH  26  30
HETATM   30  C   UNL     1      -5.571   0.205 -33.522  1.00  0.00    -0.009 A 
HETATM   31  C   UNL     1      -6.636  -0.313 -34.276  1.00  0.00     0.013 A 
HETATM   32  C   UNL     1      -6.630  -1.644 -34.700  1.00  0.00     0.001 A 
HETATM   33  C   UNL     1      -5.558  -2.473 -34.376  1.00  0.00     0.000 A 
HETATM   34  C   UNL     1      -4.493  -1.972 -33.631  1.00  0.00     0.001 A 
HETATM   35  C   UNL     1      -4.497  -0.641 -33.208  1.00  0.00     0.013 A 
ENDBRANCH  26  30
ENDBRANCH   2  22
TORSDOF 4
ENDMDL
MODEL 8
REMARK VINA RESULT:      -8.9      4.958      7.977
REMARK  4 active torsions:
REMARK  status: ('A' for Active; 'I' for Inactive)
REMARK    1  A    between atoms: C_5  and  N_6 
REMARK       I    between atoms: N_6  and  C_7 
REMARK    2  A    between atoms: C_7  and  C_8 
REMARK    3  A    between atoms: C_12  and  C_13 
REMARK    4  A    between atoms: N_24  and  C_25 
ROOT
HETATM    1  N   UNL     1      -8.617   3.557 -33.212  1.00  0.00    -0.348 N 
HETATM    2  C   UNL     1      -7.309   3.241 -33.468  1.00  0.00     0.257 C 
HETATM    3  O   UNL     1      -6.421   4.086 -33.532  1.00  0.00    -0.267 OA
HETATM    4  H   UNL     1      -9.307   2.805 -33.199  1.00  0.00     0.163 HD
ENDROOT
BRANCH   1   5
HETATM    5  C   UNL     1      -9.037   4.881 -32.805  1.00  0.00     0.122 C 
HETATM    6  C   UNL     1      -9.230   5.839 -34.000  1.00  0.00     0.039 C 
HETATM    7  C   UNL     1     -10.610   5.745 -34.727  1.00  0.00    -0.040 C 
HETATM    8  C   UNL     1     -10.741   4.420 -35.504  1.00  0.00     0.015 C 
HETATM    9  C   UNL     1     -10.691   6.895 -35.754  1.00  0.00     0.015 C 
HETATM   10  C   UNL     1     -11.800   5.892 -33.725  1.00  0.00     0.069 C 
HETATM   11  C   UNL     1     -11.545   5.168 -32.445  1.00  0.00     0.047 A 
HETATM   12  C   UNL     1     -10.301   4.720 -32.038  1.00  0.00     0.008 A 
HETATM   13  N   UNL     1     -12.451   4.792 -31.458  1.00  0.00    -0.238 N 
HETATM   14  C   UNL     1     -10.530   4.072 -30.822  1.00  0.00     0.150 A 
HETATM   15  N   UNL     1     -11.814   4.080 -30.480  1.00  0.00    -0.179 NA
BRANCH  13  16
HETATM   16  C   UNL     1     -13.857   5.026 -31.325  1.00  0.00     0.058 A 
HETATM   17  C   UNL     1     -14.745   4.186 -32.022  1.00  0.00     0.031 A 
HETATM   18  C   UNL     1     -16.127   4.374 -31.938  1.00  0.00     0.002 A 
HETATM   19  C   UNL     1     -16.641   5.397 -31.149  1.00  0.00     0.000 A 
HETATM   20  C   UNL     1     -15.773   6.223 -30.438  1.00  0.00     0.002 A 
HETATM   21  C   UNL     1     -14.388   6.038 -30.521  1.00  0.00     0.031 A 
ENDBRANCH  13  16
ENDBRANCH   1   5
BRANCH   2  22
HETATM   22  C   UNL     1      -7.017   1.781 -33.590  1.00  0.00     0.100 A 
HETATM   23  C   UNL     1      -6.414   0.957 -32.501  1.00  0.00     0.261 A 
HETATM   24  O   UNL     1      -6.180   1.416 -31.385  1.00  0.00    -0.267 OA
HETATM   25  N   UNL     1      -6.114  -0.349 -32.810  1.00  0.00    -0.322 N 
HETATM   26  C   UNL     1      -6.334  -0.929 -34.037  1.00  0.00     0.045 A 
HETATM   27  H   UNL     1      -5.709  -0.900 -32.062  1.00  0.00     0.169 HD
HETATM   28  C   UNL     1      -6.900  -0.199 -35.012  1.00  0.00     0.031 A 
HETATM   29  C   UNL     1      -7.251   1.184 -34.774  1.00  0.00     0.025 A 
BRANCH  26  30
HETATM   30  C   UNL     1      -5.896  -2.320 -34.249  1.00  0.00    -0.009 A 
HETATM   31  C   UNL     1      -4.569  -2.691 -33.979  1.00  0.00     0.013 A 
HETATM   32  C   UNL     1      -4.139  -4.005 -34.183  1.00  0.00     0.001 A 
HETATM   33  C   UNL     1      -5.031  -4.963 -34.658  1.00  0.00     0.000 A 
HETATM   34  C   UNL     1      -6.352  -4.611 -34.927  1.00  0.00     0.001 A 
HETATM   35  C   UNL     1      -6.783  -3.298 -34.721  1.00  0.00     0.013 A 
ENDBRANCH  26  30
ENDBRANCH   2  22
TORSDOF 4
ENDMDL
MODEL 9
REMARK VINA RESULT:      -8.8      6.385     10.622
REMARK  4 active torsions:
REMARK  status: ('A' for Active; 'I' for Inactive)
REMARK    1  A    between atoms: C_5  and  N_6 
REMARK       I    between atoms: N_6  and  C_7 
REMARK    2  A    between atoms: C_7  and  C_8 
REMARK    3  A    between atoms: C_12  and  C_13 
REMARK    4  A    between atoms: N_24  and  C_25 
ROOT
HETATM    1  N   UNL     1     -11.845   4.485 -33.734  1.00  0.00    -0.348 N 
HETATM    2  C   UNL     1     -12.403   5.714 -33.498  1.00  0.00     0.257 C 
HETATM    3  O   UNL     1     -13.006   5.984 -32.464  1.00  0.00    -0.267 OA
HETATM    4  H   UNL     1     -11.380   4.324 -34.628  1.00  0.00     0.163 HD
ENDROOT
BRANCH   1   5
HETATM    5  C   UNL     1     -11.748   3.462 -32.715  1.00  0.00     0.122 C 
HETATM    6  C   UNL     1     -12.776   2.327 -32.909  1.00  0.00     0.039 C 
HETATM    7  C   UNL     1     -12.364   1.207 -33.917  1.00  0.00    -0.040 C 
HETATM    8  C   UNL     1     -12.366   1.733 -35.366  1.00  0.00     0.015 C 
HETATM    9  C   UNL     1     -13.413   0.076 -33.833  1.00  0.00     0.015 C 
HETATM   10  C   UNL     1     -10.964   0.607 -33.571  1.00  0.00     0.069 C 
HETATM   11  C   UNL     1      -9.996   1.659 -33.142  1.00  0.00     0.047 A 
HETATM   12  C   UNL     1     -10.357   2.938 -32.756  1.00  0.00     0.008 A 
HETATM   13  N   UNL     1      -8.608   1.591 -33.063  1.00  0.00    -0.238 N 
HETATM   14  C   UNL     1      -9.151   3.587 -32.482  1.00  0.00     0.150 A 
HETATM   15  N   UNL     1      -8.098   2.804 -32.692  1.00  0.00    -0.179 NA
BRANCH  13  16
HETATM   16  C   UNL     1      -7.699   0.512 -33.298  1.00  0.00     0.058 A 
HETATM   17  C   UNL     1      -7.683  -0.087 -34.572  1.00  0.00     0.031 A 
HETATM   18  C   UNL     1      -6.823  -1.152 -34.855  1.00  0.00     0.002 A 
HETATM   19  C   UNL     1      -5.961  -1.626 -33.873  1.00  0.00     0.000 A 
HETATM   20  C   UNL     1      -5.953  -1.030 -32.614  1.00  0.00     0.002 A 
HETATM   21  C   UNL     1      -6.814   0.036 -32.326  1.00  0.00     0.031 A 
ENDBRANCH  13  16
ENDBRANCH   1   5
BRANCH   2  22
HETATM   22  C   UNL     1     -12.162   6.738 -34.558  1.00  0.00     0.100 A 
HETATM   23  C   UNL     1     -13.063   6.956 -35.729  1.00  0.00     0.261 A 
HETATM   24  O   UNL     1     -14.121   6.345 -35.864  1.00  0.00    -0.267 OA
HETATM   25  N   UNL     1     -12.645   7.869 -36.668  1.00  0.00    -0.322 N 
HETATM   26  C   UNL     1     -11.470   8.579 -36.594  1.00  0.00     0.045 A 
HETATM   27  H   UNL     1     -13.266   8.010 -37.456  1.00  0.00     0.169 HD
HETATM   28  C   UNL     1     -10.669   8.406 -35.530  1.00  0.00     0.031 A 
HETATM   29  C   UNL     1     -11.032   7.467 -34.491  1.00  0.00     0.025 A 
BRANCH  26  30
HETATM   30  C   UNL     1     -11.114   9.472 -37.711  1.00  0.00    -0.009 A 
HETATM   31  C   UNL     1     -11.896   9.492 -38.876  1.00  0.00     0.013 A 
HETATM   32  C   UNL     1     -11.566  10.328 -39.945  1.00  0.00     0.001 A 
HETATM   33  C   UNL     1     -10.448  11.155 -39.862  1.00  0.00     0.000 A 
HETATM   34  C   UNL     1      -9.663  11.149 -38.711  1.00  0.00     0.001 A 
HETATM   35  C   UNL     1      -9.995  10.315 -37.640  1.00  0.00     0.013 A 
ENDBRANCH  26  30
ENDBRANCH   2  22
TORSDOF 4
ENDMDL
MODEL 10
REMARK VINA RESULT:      -8.6      2.776     10.094
REMARK  4 active torsions:
REMARK  status: ('A' for Active; 'I' for Inactive)
REMARK    1  A    between atoms: C_5  and  N_6 
REMARK       I    between atoms: N_6  and  C_7 
REMARK    2  A    between atoms: C_7  and  C_8 
REMARK    3  A    between atoms: C_12  and  C_13 
REMARK    4  A    between atoms: N_24  and  C_25 
ROOT
HETATM    1  N   UNL     1      -3.611   5.807 -30.486  1.00  0.00    -0.348 N 
HETATM    2  C   UNL     1      -3.158   7.097 -30.409  1.00  0.00     0.257 C 
HETATM    3  O   UNL     1      -3.527   7.980 -31.179  1.00  0.00    -0.267 OA
HETATM    4  H   UNL     1      -3.241   5.121 -29.828  1.00  0.00     0.163 HD
ENDROOT
BRANCH   1   5
HETATM    5  C   UNL     1      -4.703   5.412 -31.349  1.00  0.00     0.122 C 
HETATM    6  C   UNL     1      -4.481   5.826 -32.820  1.00  0.00     0.039 C 
HETATM    7  C   UNL     1      -3.603   4.853 -33.670  1.00  0.00    -0.040 C 
HETATM    8  C   UNL     1      -2.129   4.896 -33.221  1.00  0.00     0.015 C 
HETATM    9  C   UNL     1      -3.653   5.321 -35.141  1.00  0.00     0.015 C 
HETATM   10  C   UNL     1      -4.135   3.386 -33.601  1.00  0.00     0.069 C 
HETATM   11  C   UNL     1      -4.590   3.021 -32.227  1.00  0.00     0.047 A 
HETATM   12  C   UNL     1      -4.846   3.937 -31.223  1.00  0.00     0.008 A 
HETATM   13  N   UNL     1      -4.820   1.758 -31.689  1.00  0.00    -0.238 N 
HETATM   14  C   UNL     1      -5.200   3.168 -30.113  1.00  0.00     0.150 A 
HETATM   15  N   UNL     1      -5.158   1.864 -30.368  1.00  0.00    -0.179 NA
BRANCH  13  16
HETATM   16  C   UNL     1      -4.758   0.454 -32.274  1.00  0.00     0.058 A 
HETATM   17  C   UNL     1      -5.668   0.135 -33.300  1.00  0.00     0.031 A 
HETATM   18  C   UNL     1      -5.661  -1.127 -33.900  1.00  0.00     0.002 A 
HETATM   19  C   UNL     1      -4.738  -2.084 -33.491  1.00  0.00     0.000 A 
HETATM   20  C   UNL     1      -3.820  -1.775 -32.490  1.00  0.00     0.002 A 
HETATM   21  C   UNL     1      -3.825  -0.512 -31.885  1.00  0.00     0.031 A 
ENDBRANCH  13  16
ENDBRANCH   1   5
BRANCH   2  22
HETATM   22  C   UNL     1      -2.234   7.383 -29.271  1.00  0.00     0.100 A 
HETATM   23  C   UNL     1      -2.654   7.403 -27.839  1.00  0.00     0.261 A 
HETATM   24  O   UNL     1      -3.795   7.110 -27.487  1.00  0.00    -0.267 OA
HETATM   25  N   UNL     1      -1.704   7.784 -26.921  1.00  0.00    -0.322 N 
HETATM   26  C   UNL     1      -0.414   8.138 -27.239  1.00  0.00     0.045 A 
HETATM   27  H   UNL     1      -2.000   7.791 -25.953  1.00  0.00     0.169 HD
HETATM   28  C   UNL     1      -0.023   8.096 -28.524  1.00  0.00     0.031 A 
HETATM   29  C   UNL     1      -0.957   7.704 -29.556  1.00  0.00     0.025 A 
BRANCH  26  30
HETATM   30  C   UNL     1       0.479   8.596 -26.159  1.00  0.00    -0.009 A 
HETATM   31  C   UNL     1      -0.037   9.334 -25.082  1.00  0.00     0.013 A 
HETATM   32  C   UNL     1       0.799   9.779 -24.055  1.00  0.00     0.001 A 
HETATM   33  C   UNL     1       2.162   9.492 -24.094  1.00  0.00     0.000 A 
HETATM   34  C   UNL     1       2.688   8.758 -25.155  1.00  0.00     0.001 A 
HETATM   35  C   UNL     1       1.852   8.310 -26.180  1.00  0.00     0.013 A 
ENDBRANCH  26  30
ENDBRANCH   2  22
TORSDOF 4
ENDMDL
