MODEL 1
REMARK VINA RESULT:      -9.1      0.000      0.000
REMARK  6 active torsions:
REMARK  status: ('A' for Active; 'I' for Inactive)
REMARK    1  A    between atoms: C_10  and  C_11 
REMARK       I    between atoms: C_11  and  N_12 
REMARK    2  A    between atoms: N_12  and  C_13 
REMARK    3  A    between atoms: C_13  and  C_14 
REMARK    4  A    between atoms: C_14  and  N_15 
REMARK    5  A    between atoms: C_14  and  C_19 
REMARK    6  A    between atoms: C_20  and  O_21 
ROOT
HETATM    1  C   UNL     1      -6.098   2.211 -32.565  1.00  0.00     0.276 C 
HETATM    2  N   UNL     1      -4.974   2.553 -31.835  1.00  0.00    -0.353 N 
HETATM    3  O   UNL     1      -7.054   2.976 -32.651  1.00  0.00    -0.265 OA
HETATM    4  H   UNL     1      -4.300   1.799 -31.713  1.00  0.00     0.162 HD
ENDROOT
BRANCH   2   5
HETATM    5  C   UNL     1      -4.957   3.689 -30.937  1.00  0.00     0.161 C 
BRANCH   5   6
HETATM    6  C   UNL     1      -4.819   5.115 -31.585  1.00  0.00     0.240 C 
BRANCH   6   7
HETATM    7  N   UNL     1      -4.395   6.157 -30.505  1.00  0.00    -0.069 N 
HETATM    8  H   UNL     1      -3.390   6.024 -30.344  1.00  0.00     0.279 HD
HETATM    9  C   UNL     1      -4.563   7.573 -31.009  1.00  0.00     0.270 C 
HETATM   10  C   UNL     1      -5.115   5.998 -29.195  1.00  0.00     0.270 C 
ENDBRANCH   6   7
BRANCH   6  11
HETATM   11  C   UNL     1      -3.845   5.129 -32.761  1.00  0.00     0.007 A 
HETATM   12  C   UNL     1      -2.461   4.954 -32.538  1.00  0.00     0.076 A 
HETATM   13  C   UNL     1      -1.573   4.950 -33.617  1.00  0.00     0.037 A 
HETATM   14  C   UNL     1      -2.045   5.118 -34.918  1.00  0.00     0.003 A 
HETATM   15  C   UNL     1      -3.406   5.281 -35.152  1.00  0.00     0.001 A 
HETATM   16  C   UNL     1      -4.303   5.281 -34.084  1.00  0.00     0.012 A 
BRANCH  12  17
HETATM   17  O   UNL     1      -2.087   4.727 -31.239  1.00  0.00    -0.355 OA
HETATM   18  C   UNL     1      -0.823   5.247 -30.830  1.00  0.00     0.210 C 
ENDBRANCH  12  17
ENDBRANCH   6  11
ENDBRANCH   5   6
ENDBRANCH   2   5
BRANCH   1  19
HETATM   19  C   UNL     1      -6.033   0.892 -33.158  1.00  0.00     0.150 A 
HETATM   20  O   UNL     1      -4.919   0.132 -32.912  1.00  0.00    -0.304 OA
HETATM   21  C   UNL     1      -5.118  -1.081 -33.492  1.00  0.00     0.087 A 
HETATM   22  C   UNL     1      -4.238  -2.157 -33.430  1.00  0.00     0.045 A 
HETATM   23  C   UNL     1      -6.337  -1.105 -34.150  1.00  0.00     0.007 A 
HETATM   24  C   UNL     1      -4.625  -3.347 -34.074  1.00  0.00    -0.053 A 
HETATM   25  C   UNL     1      -5.839  -3.404 -34.795  1.00  0.00    -0.055 A 
HETATM   26  C   UNL     1      -3.696  -4.532 -34.006  1.00  0.00     0.049 C 
HETATM   27  C   UNL     1      -6.271  -4.661 -35.507  1.00  0.00     0.049 C 
HETATM   28  C   UNL     1      -6.703  -2.287 -34.819  1.00  0.00     0.022 A 
HETATM   29  C   UNL     1      -6.933   0.178 -33.937  1.00  0.00    -0.009 A 
HETATM   30  C   UNL     1      -8.255   0.639 -34.431  1.00  0.00     0.052 C 
ENDBRANCH   1  19
TORSDOF 6
ENDMDL
MODEL 2
REMARK VINA RESULT:      -8.9      1.070      1.980
REMARK  6 active torsions:
REMARK  status: ('A' for Active; 'I' for Inactive)
REMARK    1  A    between atoms: C_10  and  C_11 
REMARK       I    between atoms: C_11  and  N_12 
REMARK    2  A    between atoms: N_12  and  C_13 
REMARK    3  A    between atoms: C_13  and  C_14 
REMARK    4  A    between atoms: C_14  and  N_15 
REMARK    5  A    between atoms: C_14  and  C_19 
REMARK    6  A    between atoms: C_20  and  O_21 
ROOT
HETATM    1  C   UNL     1      -5.707   2.264 -32.604  1.00  0.00     0.276 C 
HETATM    2  N   UNL     1      -4.493   2.628 -32.050  1.00  0.00    -0.353 N 
HETATM    3  O   UNL     1      -6.676   3.016 -32.553  1.00  0.00    -0.265 OA
HETATM    4  H   UNL     1      -3.798   1.885 -32.023  1.00  0.00     0.162 HD
ENDROOT
BRANCH   2   5
HETATM    5  C   UNL     1      -4.361   3.772 -31.171  1.00  0.00     0.161 C 
BRANCH   5   6
HETATM    6  C   UNL     1      -4.142   5.175 -31.846  1.00  0.00     0.240 C 
BRANCH   6   7
HETATM    7  N   UNL     1      -5.223   6.184 -31.352  1.00  0.00    -0.069 N 
HETATM    8  H   UNL     1      -4.723   7.026 -31.043  1.00  0.00     0.279 HD
HETATM    9  C   UNL     1      -6.130   6.617 -32.482  1.00  0.00     0.270 C 
HETATM   10  C   UNL     1      -6.051   5.671 -30.208  1.00  0.00     0.270 C 
ENDBRANCH   6   7
BRANCH   6  11
HETATM   11  C   UNL     1      -2.738   5.726 -31.604  1.00  0.00     0.007 A 
HETATM   12  C   UNL     1      -1.668   5.333 -32.439  1.00  0.00     0.076 A 
HETATM   13  C   UNL     1      -0.388   5.852 -32.227  1.00  0.00     0.037 A 
HETATM   14  C   UNL     1      -0.158   6.759 -31.192  1.00  0.00     0.003 A 
HETATM   15  C   UNL     1      -1.204   7.161 -30.369  1.00  0.00     0.001 A 
HETATM   16  C   UNL     1      -2.488   6.654 -30.575  1.00  0.00     0.012 A 
BRANCH  12  17
HETATM   17  O   UNL     1      -1.991   4.494 -33.473  1.00  0.00    -0.355 OA
HETATM   18  C   UNL     1      -1.871   5.019 -34.794  1.00  0.00     0.210 C 
ENDBRANCH  12  17
ENDBRANCH   6  11
ENDBRANCH   5   6
ENDBRANCH   2   5
BRANCH   1  19
HETATM   19  C   UNL     1      -5.710   0.942 -33.192  1.00  0.00     0.150 A 
HETATM   20  O   UNL     1      -4.662   0.108 -32.901  1.00  0.00    -0.304 OA
HETATM   21  C   UNL     1      -4.922  -1.091 -33.486  1.00  0.00     0.087 A 
HETATM   22  C   UNL     1      -4.122  -2.225 -33.387  1.00  0.00     0.045 A 
HETATM   23  C   UNL     1      -6.113  -1.034 -34.192  1.00  0.00     0.007 A 
HETATM   24  C   UNL     1      -4.565  -3.389 -34.044  1.00  0.00    -0.053 A 
HETATM   25  C   UNL     1      -5.750  -3.365 -34.813  1.00  0.00    -0.055 A 
HETATM   26  C   UNL     1      -3.724  -4.635 -33.937  1.00  0.00     0.049 C 
HETATM   27  C   UNL     1      -6.240  -4.592 -35.539  1.00  0.00     0.049 C 
HETATM   28  C   UNL     1      -6.534  -2.191 -34.873  1.00  0.00     0.022 A 
HETATM   29  C   UNL     1      -6.627   0.288 -34.005  1.00  0.00    -0.009 A 
HETATM   30  C   UNL     1      -7.893   0.838 -34.551  1.00  0.00     0.052 C 
ENDBRANCH   1  19
TORSDOF 6
ENDMDL
MODEL 3
REMARK VINA RESULT:      -8.8      1.315      2.828
REMARK  6 active torsions:
REMARK  status: ('A' for Active; 'I' for Inactive)
REMARK    1  A    between atoms: C_10  and  C_11 
REMARK       I    between atoms: C_11  and  N_12 
REMARK    2  A    between atoms: N_12  and  C_13 
REMARK    3  A    between atoms: C_13  and  C_14 
REMARK    4  A    between atoms: C_14  and  N_15 
REMARK    5  A    between atoms: C_14  and  C_19 
REMARK    6  A    between atoms: C_20  and  O_21 
ROOT
HETATM    1  C   UNL     1      -5.109   2.152 -32.392  1.00  0.00     0.276 C 
HETATM    2  N   UNL     1      -3.871   2.745 -32.562  1.00  0.00    -0.353 N 
HETATM    3  O   UNL     1      -5.992   2.705 -31.742  1.00  0.00    -0.265 OA
HETATM    4  H   UNL     1      -3.169   2.150 -32.996  1.00  0.00     0.162 HD
ENDROOT
BRANCH   2   5
HETATM    5  C   UNL     1      -3.461   3.901 -31.790  1.00  0.00     0.161 C 
BRANCH   5   6
HETATM    6  C   UNL     1      -2.435   4.885 -32.462  1.00  0.00     0.240 C 
BRANCH   6   7
HETATM    7  N   UNL     1      -3.194   5.985 -33.266  1.00  0.00    -0.069 N 
HETATM    8  H   UNL     1      -3.526   6.676 -32.582  1.00  0.00     0.279 HD
HETATM    9  C   UNL     1      -2.264   6.725 -34.202  1.00  0.00     0.270 C 
HETATM   10  C   UNL     1      -4.376   5.465 -34.035  1.00  0.00     0.270 C 
ENDBRANCH   6   7
BRANCH   6  11
HETATM   11  C   UNL     1      -1.483   5.517 -31.449  1.00  0.00     0.007 A 
HETATM   12  C   UNL     1      -1.965   6.465 -30.518  1.00  0.00     0.076 A 
HETATM   13  C   UNL     1      -1.097   7.029 -29.580  1.00  0.00     0.037 A 
HETATM   14  C   UNL     1       0.248   6.661 -29.555  1.00  0.00     0.003 A 
HETATM   15  C   UNL     1       0.733   5.723 -30.458  1.00  0.00     0.001 A 
HETATM   16  C   UNL     1      -0.125   5.148 -31.396  1.00  0.00     0.012 A 
BRANCH  12  17
HETATM   17  O   UNL     1      -3.311   6.721 -30.564  1.00  0.00    -0.355 OA
HETATM   18  C   UNL     1      -4.008   6.741 -29.321  1.00  0.00     0.210 C 
ENDBRANCH  12  17
ENDBRANCH   6  11
ENDBRANCH   5   6
ENDBRANCH   2   5
BRANCH   1  19
HETATM   19  C   UNL     1      -5.224   0.848 -33.010  1.00  0.00     0.150 A 
HETATM   20  O   UNL     1      -4.277  -0.093 -32.703  1.00  0.00    -0.304 OA
HETATM   21  C   UNL     1      -4.635  -1.248 -33.324  1.00  0.00     0.087 A 
HETATM   22  C   UNL     1      -3.957  -2.459 -33.224  1.00  0.00     0.045 A 
HETATM   23  C   UNL     1      -5.787  -1.056 -34.069  1.00  0.00     0.007 A 
HETATM   24  C   UNL     1      -4.491  -3.558 -33.923  1.00  0.00    -0.053 A 
HETATM   25  C   UNL     1      -5.638  -3.399 -34.731  1.00  0.00    -0.055 A 
HETATM   26  C   UNL     1      -3.784  -4.886 -33.816  1.00  0.00     0.049 C 
HETATM   27  C   UNL     1      -6.222  -4.555 -35.502  1.00  0.00     0.049 C 
HETATM   28  C   UNL     1      -6.297  -2.151 -34.791  1.00  0.00     0.022 A 
HETATM   29  C   UNL     1      -6.171   0.307 -33.869  1.00  0.00    -0.009 A 
HETATM   30  C   UNL     1      -7.355   0.994 -34.446  1.00  0.00     0.052 C 
ENDBRANCH   1  19
TORSDOF 6
ENDMDL
MODEL 4
REMARK VINA RESULT:      -8.6      1.474      2.340
REMARK  6 active torsions:
REMARK  status: ('A' for Active; 'I' for Inactive)
REMARK    1  A    between atoms: C_10  and  C_11 
REMARK       I    between atoms: C_11  and  N_12 
REMARK    2  A    between atoms: N_12  and  C_13 
REMARK    3  A    between atoms: C_13  and  C_14 
REMARK    4  A    between atoms: C_14  and  N_15 
REMARK    5  A    between atoms: C_14  and  C_19 
REMARK    6  A    between atoms: C_20  and  O_21 
ROOT
HETATM    1  C   UNL     1      -6.578   2.495 -33.264  1.00  0.00     0.276 C 
HETATM    2  N   UNL     1      -5.914   3.381 -34.092  1.00  0.00    -0.353 N 
HETATM    3  O   UNL     1      -7.445   2.882 -32.486  1.00  0.00    -0.265 OA
HETATM    4  H   UNL     1      -5.124   2.984 -34.596  1.00  0.00     0.162 HD
ENDROOT
BRANCH   2   5
HETATM    5  C   UNL     1      -6.009   4.816 -33.914  1.00  0.00     0.161 C 
BRANCH   5   6
HETATM    6  C   UNL     1      -5.050   5.474 -32.856  1.00  0.00     0.240 C 
BRANCH   6   7
HETATM    7  N   UNL     1      -4.974   4.587 -31.576  1.00  0.00    -0.069 N 
HETATM    8  H   UNL     1      -5.434   3.698 -31.804  1.00  0.00     0.279 HD
HETATM    9  C   UNL     1      -3.543   4.248 -31.223  1.00  0.00     0.270 C 
HETATM   10  C   UNL     1      -5.660   5.188 -30.381  1.00  0.00     0.270 C 
ENDBRANCH   6   7
BRANCH   6  11
HETATM   11  C   UNL     1      -3.654   5.734 -33.416  1.00  0.00     0.007 A 
HETATM   12  C   UNL     1      -2.900   6.838 -32.958  1.00  0.00     0.076 A 
HETATM   13  C   UNL     1      -1.615   7.064 -33.459  1.00  0.00     0.037 A 
HETATM   14  C   UNL     1      -1.068   6.204 -34.410  1.00  0.00     0.003 A 
HETATM   15  C   UNL     1      -1.795   5.108 -34.861  1.00  0.00     0.001 A 
HETATM   16  C   UNL     1      -3.077   4.868 -34.365  1.00  0.00     0.012 A 
BRANCH  12  17
HETATM   17  O   UNL     1      -3.481   7.595 -31.974  1.00  0.00    -0.355 OA
HETATM   18  C   UNL     1      -2.681   7.897 -30.833  1.00  0.00     0.210 C 
ENDBRANCH  12  17
ENDBRANCH   6  11
ENDBRANCH   5   6
ENDBRANCH   2   5
BRANCH   1  19
HETATM   19  C   UNL     1      -6.128   1.125 -33.392  1.00  0.00     0.150 A 
HETATM   20  O   UNL     1      -6.964   0.229 -34.006  1.00  0.00    -0.304 OA
HETATM   21  C   UNL     1      -6.303  -0.955 -34.086  1.00  0.00     0.087 A 
HETATM   22  C   UNL     1      -6.792  -2.111 -34.689  1.00  0.00     0.045 A 
HETATM   23  C   UNL     1      -5.056  -0.851 -33.492  1.00  0.00     0.007 A 
HETATM   24  C   UNL     1      -5.952  -3.240 -34.697  1.00  0.00    -0.053 A 
HETATM   25  C   UNL     1      -4.690  -3.194 -34.064  1.00  0.00    -0.055 A 
HETATM   26  C   UNL     1      -6.453  -4.499 -35.359  1.00  0.00     0.049 C 
HETATM   27  C   UNL     1      -3.777  -4.394 -34.045  1.00  0.00     0.049 C 
HETATM   28  C   UNL     1      -4.234  -1.994 -33.476  1.00  0.00     0.022 A 
HETATM   29  C   UNL     1      -4.940   0.499 -33.037  1.00  0.00    -0.009 A 
HETATM   30  C   UNL     1      -3.776   1.111 -32.346  1.00  0.00     0.052 C 
ENDBRANCH   1  19
TORSDOF 6
ENDMDL
MODEL 5
REMARK VINA RESULT:      -8.5      3.210      5.797
REMARK  6 active torsions:
REMARK  status: ('A' for Active; 'I' for Inactive)
REMARK    1  A    between atoms: C_10  and  C_11 
REMARK       I    between atoms: C_11  and  N_12 
REMARK    2  A    between atoms: N_12  and  C_13 
REMARK    3  A    between atoms: C_13  and  C_14 
REMARK    4  A    between atoms: C_14  and  N_15 
REMARK    5  A    between atoms: C_14  and  C_19 
REMARK    6  A    between atoms: C_20  and  O_21 
ROOT
HETATM    1  C   UNL     1      -6.374   2.552 -33.613  1.00  0.00     0.276 C 
HETATM    2  N   UNL     1      -7.578   2.775 -32.971  1.00  0.00    -0.353 N 
HETATM    3  O   UNL     1      -5.751   3.475 -34.130  1.00  0.00    -0.265 OA
HETATM    4  H   UNL     1      -8.079   1.932 -32.699  1.00  0.00     0.162 HD
ENDROOT
BRANCH   2   5
HETATM    5  C   UNL     1      -8.291   4.031 -33.089  1.00  0.00     0.161 C 
BRANCH   5   6
HETATM    6  C   UNL     1      -9.796   4.049 -32.635  1.00  0.00     0.240 C 
BRANCH   6   7
HETATM    7  N   UNL     1     -10.254   5.513 -32.352  1.00  0.00    -0.069 N 
HETATM    8  H   UNL     1     -10.961   5.744 -33.059  1.00  0.00     0.279 HD
HETATM    9  C   UNL     1     -10.942   5.625 -31.009  1.00  0.00     0.270 C 
HETATM   10  C   UNL     1      -9.143   6.522 -32.436  1.00  0.00     0.270 C 
ENDBRANCH   6   7
BRANCH   6  11
HETATM   11  C   UNL     1     -10.720   3.381 -33.650  1.00  0.00     0.007 A 
HETATM   12  C   UNL     1     -10.934   1.985 -33.604  1.00  0.00     0.076 A 
HETATM   13  C   UNL     1     -11.794   1.378 -34.523  1.00  0.00     0.037 A 
HETATM   14  C   UNL     1     -12.446   2.143 -35.489  1.00  0.00     0.003 A 
HETATM   15  C   UNL     1     -12.252   3.519 -35.539  1.00  0.00     0.001 A 
HETATM   16  C   UNL     1     -11.400   4.138 -34.624  1.00  0.00     0.012 A 
BRANCH  12  17
HETATM   17  O   UNL     1     -10.311   1.316 -32.582  1.00  0.00    -0.355 OA
HETATM   18  C   UNL     1      -9.908  -0.027 -32.840  1.00  0.00     0.210 C 
ENDBRANCH  12  17
ENDBRANCH   6  11
ENDBRANCH   5   6
ENDBRANCH   2   5
BRANCH   1  19
HETATM   19  C   UNL     1      -5.971   1.162 -33.635  1.00  0.00     0.150 A 
HETATM   20  O   UNL     1      -6.766   0.273 -34.310  1.00  0.00    -0.304 OA
HETATM   21  C   UNL     1      -6.150  -0.937 -34.267  1.00  0.00     0.087 A 
HETATM   22  C   UNL     1      -6.614  -2.098 -34.879  1.00  0.00     0.045 A 
HETATM   23  C   UNL     1      -4.978  -0.856 -33.532  1.00  0.00     0.007 A 
HETATM   24  C   UNL     1      -5.827  -3.258 -34.745  1.00  0.00    -0.053 A 
HETATM   25  C   UNL     1      -4.647  -3.233 -33.968  1.00  0.00    -0.055 A 
HETATM   26  C   UNL     1      -6.299  -4.524 -35.415  1.00  0.00     0.049 C 
HETATM   27  C   UNL     1      -3.794  -4.464 -33.796  1.00  0.00     0.049 C 
HETATM   28  C   UNL     1      -4.214  -2.026 -33.376  1.00  0.00     0.022 A 
HETATM   29  C   UNL     1      -4.860   0.508 -33.118  1.00  0.00    -0.009 A 
HETATM   30  C   UNL     1      -3.761   1.104 -32.317  1.00  0.00     0.052 C 
ENDBRANCH   1  19
TORSDOF 6
ENDMDL
MODEL 6
REMARK VINA RESULT:      -8.5      1.692      3.232
REMARK  6 active torsions:
REMARK  status: ('A' for Active; 'I' for Inactive)
REMARK    1  A    between atoms: C_10  and  C_11 
REMARK       I    between atoms: C_11  and  N_12 
REMARK    2  A    between atoms: N_12  and  C_13 
REMARK    3  A    between atoms: C_13  and  C_14 
REMARK    4  A    between atoms: C_14  and  N_15 
REMARK    5  A    between atoms: C_14  and  C_19 
REMARK    6  A    between atoms: C_20  and  O_21 
ROOT
HETATM    1  C   UNL     1      -5.105   1.915 -32.351  1.00  0.00     0.276 C 
HETATM    2  N   UNL     1      -4.134   2.699 -32.947  1.00  0.00    -0.353 N 
HETATM    3  O   UNL     1      -5.941   2.405 -31.598  1.00  0.00    -0.265 OA
HETATM    4  H   UNL     1      -3.410   2.180 -33.440  1.00  0.00     0.162 HD
ENDROOT
BRANCH   2   5
HETATM    5  C   UNL     1      -3.886   4.064 -32.529  1.00  0.00     0.161 C 
BRANCH   5   6
HETATM    6  C   UNL     1      -2.449   4.645 -32.793  1.00  0.00     0.240 C 
BRANCH   6   7
HETATM    7  N   UNL     1      -2.224   4.846 -34.323  1.00  0.00    -0.069 N 
HETATM    8  H   UNL     1      -2.040   3.918 -34.720  1.00  0.00     0.279 HD
HETATM    9  C   UNL     1      -3.475   5.360 -35.002  1.00  0.00     0.270 C 
HETATM   10  C   UNL     1      -1.066   5.746 -34.651  1.00  0.00     0.270 C 
ENDBRANCH   6   7
BRANCH   6  11
HETATM   11  C   UNL     1      -2.198   5.947 -32.035  1.00  0.00     0.007 A 
HETATM   12  C   UNL     1      -1.088   6.061 -31.169  1.00  0.00     0.076 A 
HETATM   13  C   UNL     1      -0.850   7.259 -30.490  1.00  0.00     0.037 A 
HETATM   14  C   UNL     1      -1.704   8.348 -30.662  1.00  0.00     0.003 A 
HETATM   15  C   UNL     1      -2.794   8.252 -31.519  1.00  0.00     0.001 A 
HETATM   16  C   UNL     1      -3.039   7.064 -32.208  1.00  0.00     0.012 A 
BRANCH  12  17
HETATM   17  O   UNL     1      -0.260   4.970 -31.108  1.00  0.00    -0.355 OA
HETATM   18  C   UNL     1       0.622   4.890 -29.991  1.00  0.00     0.210 C 
ENDBRANCH  12  17
ENDBRANCH   6  11
ENDBRANCH   5   6
ENDBRANCH   2   5
BRANCH   1  19
HETATM   19  C   UNL     1      -5.003   0.507 -32.676  1.00  0.00     0.150 A 
HETATM   20  O   UNL     1      -5.959  -0.032 -33.497  1.00  0.00    -0.304 OA
HETATM   21  C   UNL     1      -5.613  -1.326 -33.728  1.00  0.00     0.087 A 
HETATM   22  C   UNL     1      -6.303  -2.208 -34.555  1.00  0.00     0.045 A 
HETATM   23  C   UNL     1      -4.460  -1.647 -33.032  1.00  0.00     0.007 A 
HETATM   24  C   UNL     1      -5.781  -3.507 -34.693  1.00  0.00    -0.053 A 
HETATM   25  C   UNL     1      -4.632  -3.894 -33.967  1.00  0.00    -0.055 A 
HETATM   26  C   UNL     1      -6.500  -4.476 -35.597  1.00  0.00     0.049 C 
HETATM   27  C   UNL     1      -4.060  -5.283 -34.084  1.00  0.00     0.049 C 
HETATM   28  C   UNL     1      -3.961  -2.958 -33.149  1.00  0.00     0.022 A 
HETATM   29  C   UNL     1      -4.062  -0.458 -32.345  1.00  0.00    -0.009 A 
HETATM   30  C   UNL     1      -2.872  -0.288 -31.473  1.00  0.00     0.052 C 
ENDBRANCH   1  19
TORSDOF 6
ENDMDL
MODEL 7
REMARK VINA RESULT:      -8.4      3.416      5.959
REMARK  6 active torsions:
REMARK  status: ('A' for Active; 'I' for Inactive)
REMARK    1  A    between atoms: C_10  and  C_11 
REMARK       I    between atoms: C_11  and  N_12 
REMARK    2  A    between atoms: N_12  and  C_13 
REMARK    3  A    between atoms: C_13  and  C_14 
REMARK    4  A    between atoms: C_14  and  N_15 
REMARK    5  A    between atoms: C_14  and  C_19 
REMARK    6  A    between atoms: C_20  and  O_21 
ROOT
HETATM    1  C   UNL     1      -6.717   2.128 -33.402  1.00  0.00     0.276 C 
HETATM    2  N   UNL     1      -7.823   2.247 -32.580  1.00  0.00    -0.353 N 
HETATM    3  O   UNL     1      -6.263   3.101 -33.997  1.00  0.00    -0.265 OA
HETATM    4  H   UNL     1      -8.202   1.363 -32.245  1.00  0.00     0.162 HD
ENDROOT
BRANCH   2   5
HETATM    5  C   UNL     1      -8.651   3.436 -32.573  1.00  0.00     0.161 C 
BRANCH   5   6
HETATM    6  C   UNL     1     -10.166   3.254 -32.193  1.00  0.00     0.240 C 
BRANCH   6   7
HETATM    7  N   UNL     1     -10.684   4.513 -31.433  1.00  0.00    -0.069 N 
HETATM    8  H   UNL     1     -10.848   5.239 -32.139  1.00  0.00     0.279 HD
HETATM    9  C   UNL     1     -12.020   4.249 -30.774  1.00  0.00     0.270 C 
HETATM   10  C   UNL     1      -9.715   5.045 -30.413  1.00  0.00     0.270 C 
ENDBRANCH   6   7
BRANCH   6  11
HETATM   11  C   UNL     1     -11.042   2.959 -33.409  1.00  0.00     0.007 A 
HETATM   12  C   UNL     1     -11.304   3.974 -34.357  1.00  0.00     0.076 A 
HETATM   13  C   UNL     1     -12.090   3.698 -35.478  1.00  0.00     0.037 A 
HETATM   14  C   UNL     1     -12.621   2.423 -35.669  1.00  0.00     0.003 A 
HETATM   15  C   UNL     1     -12.363   1.413 -34.749  1.00  0.00     0.001 A 
HETATM   16  C   UNL     1     -11.574   1.674 -33.629  1.00  0.00     0.012 A 
BRANCH  12  17
HETATM   17  O   UNL     1     -10.689   5.179 -34.131  1.00  0.00    -0.355 OA
HETATM   18  C   UNL     1     -10.068   5.807 -35.250  1.00  0.00     0.210 C 
ENDBRANCH  12  17
ENDBRANCH   6  11
ENDBRANCH   5   6
ENDBRANCH   2   5
BRANCH   1  19
HETATM   19  C   UNL     1      -6.203   0.779 -33.502  1.00  0.00     0.150 A 
HETATM   20  O   UNL     1      -6.973  -0.155 -34.146  1.00  0.00    -0.304 OA
HETATM   21  C   UNL     1      -6.258  -1.310 -34.191  1.00  0.00     0.087 A 
HETATM   22  C   UNL     1      -6.670  -2.488 -34.807  1.00  0.00     0.045 A 
HETATM   23  C   UNL     1      -5.043  -1.149 -33.544  1.00  0.00     0.007 A 
HETATM   24  C   UNL     1      -5.782  -3.580 -34.772  1.00  0.00    -0.053 A 
HETATM   25  C   UNL     1      -4.552  -3.476 -34.086  1.00  0.00    -0.055 A 
HETATM   26  C   UNL     1      -6.199  -4.862 -35.448  1.00  0.00     0.049 C 
HETATM   27  C   UNL     1      -3.589  -4.634 -34.021  1.00  0.00     0.049 C 
HETATM   28  C   UNL     1      -4.174  -2.255 -33.486  1.00  0.00     0.022 A 
HETATM   29  C   UNL     1      -5.006   0.207 -33.093  1.00  0.00    -0.009 A 
HETATM   30  C   UNL     1      -3.900   0.872 -32.356  1.00  0.00     0.052 C 
ENDBRANCH   1  19
TORSDOF 6
ENDMDL
MODEL 8
REMARK VINA RESULT:      -8.2      1.895      7.858
REMARK  6 active torsions:
REMARK  status: ('A' for Active; 'I' for Inactive)
REMARK    1  A    between atoms: C_10  and  C_11 
REMARK       I    between atoms: C_11  and  N_12 
REMARK    2  A    between atoms: N_12  and  C_13 
REMARK    3  A    between atoms: C_13  and  C_14 
REMARK    4  A    between atoms: C_14  and  N_15 
REMARK    5  A    between atoms: C_14  and  C_19 
REMARK    6  A    between atoms: C_20  and  O_21 
ROOT
HETATM    1  C   UNL     1      -5.714   4.441 -33.629  1.00  0.00     0.276 C 
HETATM    2  N   UNL     1      -5.803   3.073 -33.443  1.00  0.00    -0.353 N 
HETATM    3  O   UNL     1      -6.590   5.056 -34.230  1.00  0.00    -0.265 OA
HETATM    4  H   UNL     1      -4.966   2.641 -33.057  1.00  0.00     0.162 HD
ENDROOT
BRANCH   2   5
HETATM    5  C   UNL     1      -6.774   2.263 -34.150  1.00  0.00     0.161 C 
BRANCH   5   6
HETATM    6  C   UNL     1      -7.315   0.984 -33.413  1.00  0.00     0.240 C 
BRANCH   6   7
HETATM    7  N   UNL     1      -8.805   0.734 -33.796  1.00  0.00    -0.069 N 
HETATM    8  H   UNL     1      -8.804   0.049 -34.561  1.00  0.00     0.279 HD
HETATM    9  C   UNL     1      -9.569   0.096 -32.656  1.00  0.00     0.270 C 
HETATM   10  C   UNL     1      -9.527   1.968 -34.259  1.00  0.00     0.270 C 
ENDBRANCH   6   7
BRANCH   6  11
HETATM   11  C   UNL     1      -6.469  -0.255 -33.697  1.00  0.00     0.007 A 
HETATM   12  C   UNL     1      -5.313  -0.516 -32.928  1.00  0.00     0.076 A 
HETATM   13  C   UNL     1      -4.550  -1.660 -33.177  1.00  0.00     0.037 A 
HETATM   14  C   UNL     1      -4.923  -2.549 -34.184  1.00  0.00     0.003 A 
HETATM   15  C   UNL     1      -6.064  -2.310 -34.941  1.00  0.00     0.001 A 
HETATM   16  C   UNL     1      -6.837  -1.174 -34.698  1.00  0.00     0.012 A 
BRANCH  12  17
HETATM   17  O   UNL     1      -5.054   0.370 -31.914  1.00  0.00    -0.355 OA
HETATM   18  C   UNL     1      -3.718   0.411 -31.417  1.00  0.00     0.210 C 
ENDBRANCH  12  17
ENDBRANCH   6  11
ENDBRANCH   5   6
ENDBRANCH   2   5
BRANCH   1  19
HETATM   19  C   UNL     1      -4.506   5.029 -33.089  1.00  0.00     0.150 A 
HETATM   20  O   UNL     1      -4.509   5.402 -31.770  1.00  0.00    -0.304 OA
HETATM   21  C   UNL     1      -3.259   5.841 -31.470  1.00  0.00     0.087 A 
HETATM   22  C   UNL     1      -2.836   6.266 -30.213  1.00  0.00     0.045 A 
HETATM   23  C   UNL     1      -2.450   5.797 -32.593  1.00  0.00     0.007 A 
HETATM   24  C   UNL     1      -1.492   6.666 -30.085  1.00  0.00    -0.053 A 
HETATM   25  C   UNL     1      -0.642   6.679 -31.214  1.00  0.00    -0.055 A 
HETATM   26  C   UNL     1      -1.005   7.113 -28.730  1.00  0.00     0.049 C 
HETATM   27  C   UNL     1       0.796   7.117 -31.108  1.00  0.00     0.049 C 
HETATM   28  C   UNL     1      -1.117   6.229 -32.465  1.00  0.00     0.022 A 
HETATM   29  C   UNL     1      -3.259   5.271 -33.649  1.00  0.00    -0.009 A 
HETATM   30  C   UNL     1      -2.841   5.017 -35.051  1.00  0.00     0.052 C 
ENDBRANCH   1  19
TORSDOF 6
ENDMDL
MODEL 9
REMARK VINA RESULT:      -8.1      1.568      2.736
REMARK  6 active torsions:
REMARK  status: ('A' for Active; 'I' for Inactive)
REMARK    1  A    between atoms: C_10  and  C_11 
REMARK       I    between atoms: C_11  and  N_12 
REMARK    2  A    between atoms: N_12  and  C_13 
REMARK    3  A    between atoms: C_13  and  C_14 
REMARK    4  A    between atoms: C_14  and  N_15 
REMARK    5  A    between atoms: C_14  and  C_19 
REMARK    6  A    between atoms: C_20  and  O_21 
ROOT
HETATM    1  C   UNL     1      -6.003   1.863 -31.210  1.00  0.00     0.276 C 
HETATM    2  N   UNL     1      -5.554   2.959 -31.924  1.00  0.00    -0.353 N 
HETATM    3  O   UNL     1      -6.607   2.001 -30.150  1.00  0.00    -0.265 OA
HETATM    4  H   UNL     1      -4.950   2.736 -32.711  1.00  0.00     0.162 HD
ENDROOT
BRANCH   2   5
HETATM    5  C   UNL     1      -5.537   4.292 -31.355  1.00  0.00     0.161 C 
BRANCH   5   6
HETATM    6  C   UNL     1      -4.917   5.439 -32.232  1.00  0.00     0.240 C 
BRANCH   6   7
HETATM    7  N   UNL     1      -5.445   6.826 -31.754  1.00  0.00    -0.069 N 
HETATM    8  H   UNL     1      -4.810   7.534 -32.141  1.00  0.00     0.279 HD
HETATM    9  C   UNL     1      -6.814   7.122 -32.325  1.00  0.00     0.270 C 
HETATM   10  C   UNL     1      -5.478   6.978 -30.259  1.00  0.00     0.270 C 
ENDBRANCH   6   7
BRANCH   6  11
HETATM   11  C   UNL     1      -3.390   5.413 -32.232  1.00  0.00     0.007 A 
HETATM   12  C   UNL     1      -2.674   5.769 -33.397  1.00  0.00     0.076 A 
HETATM   13  C   UNL     1      -1.277   5.762 -33.390  1.00  0.00     0.037 A 
HETATM   14  C   UNL     1      -0.580   5.405 -32.236  1.00  0.00     0.003 A 
HETATM   15  C   UNL     1      -1.272   5.063 -31.079  1.00  0.00     0.001 A 
HETATM   16  C   UNL     1      -2.668   5.072 -31.072  1.00  0.00     0.012 A 
BRANCH  12  17
HETATM   17  O   UNL     1      -3.431   6.172 -34.467  1.00  0.00    -0.355 OA
HETATM   18  C   UNL     1      -3.835   5.164 -35.390  1.00  0.00     0.210 C 
ENDBRANCH  12  17
ENDBRANCH   6  11
ENDBRANCH   5   6
ENDBRANCH   2   5
BRANCH   1  19
HETATM   19  C   UNL     1      -5.663   0.592 -31.812  1.00  0.00     0.150 A 
HETATM   20  O   UNL     1      -6.604  -0.016 -32.602  1.00  0.00    -0.304 OA
HETATM   21  C   UNL     1      -6.037  -1.137 -33.121  1.00  0.00     0.087 A 
HETATM   22  C   UNL     1      -6.650  -2.010 -34.015  1.00  0.00     0.045 A 
HETATM   23  C   UNL     1      -4.745  -1.288 -32.643  1.00  0.00     0.007 A 
HETATM   24  C   UNL     1      -5.896  -3.110 -34.464  1.00  0.00    -0.053 A 
HETATM   25  C   UNL     1      -4.591  -3.329 -33.970  1.00  0.00    -0.055 A 
HETATM   26  C   UNL     1      -6.533  -4.060 -35.447  1.00  0.00     0.049 C 
HETATM   27  C   UNL     1      -3.767  -4.507 -34.424  1.00  0.00     0.049 C 
HETATM   28  C   UNL     1      -4.008  -2.408 -33.072  1.00  0.00     0.022 A 
HETATM   29  C   UNL     1      -4.500  -0.167 -31.790  1.00  0.00    -0.009 A 
HETATM   30  C   UNL     1      -3.247   0.134 -31.050  1.00  0.00     0.052 C 
ENDBRANCH   1  19
TORSDOF 6
ENDMDL
MODEL 10
REMARK VINA RESULT:      -7.6      1.823      3.178
REMARK  6 active torsions:
REMARK  status: ('A' for Active; 'I' for Inactive)
REMARK    1  A    between atoms: C_10  and  C_11 
REMARK       I    between atoms: C_11  and  N_12 
REMARK    2  A    between atoms: N_12  and  C_13 
REMARK    3  A    between atoms: C_13  and  C_14 
REMARK    4  A    between atoms: C_14  and  N_15 
REMARK    5  A    between atoms: C_14  and  C_19 
REMARK    6  A    between atoms: C_20  and  O_21 
ROOT
HETATM    1  C   UNL     1      -5.614   3.986 -30.952  1.00  0.00     0.276 C 
HETATM    2  N   UNL     1      -4.518   4.829 -30.904  1.00  0.00    -0.353 N 
HETATM    3  O   UNL     1      -6.690   4.319 -30.463  1.00  0.00    -0.265 OA
HETATM    4  H   UNL     1      -3.644   4.408 -31.212  1.00  0.00     0.162 HD
ENDROOT
BRANCH   2   5
HETATM    5  C   UNL     1      -4.495   6.013 -30.070  1.00  0.00     0.161 C 
BRANCH   5   6
HETATM    6  C   UNL     1      -3.740   7.272 -30.632  1.00  0.00     0.240 C 
BRANCH   6   7
HETATM    7  N   UNL     1      -4.210   8.558 -29.884  1.00  0.00    -0.069 N 
HETATM    8  H   UNL     1      -3.368   9.003 -29.502  1.00  0.00     0.279 HD
HETATM    9  C   UNL     1      -4.826   9.557 -30.839  1.00  0.00     0.270 C 
HETATM   10  C   UNL     1      -5.163   8.286 -28.754  1.00  0.00     0.270 C 
ENDBRANCH   6   7
BRANCH   6  11
HETATM   11  C   UNL     1      -2.222   7.126 -30.552  1.00  0.00     0.007 A 
HETATM   12  C   UNL     1      -1.512   6.515 -31.609  1.00  0.00     0.076 A 
HETATM   13  C   UNL     1      -0.121   6.399 -31.542  1.00  0.00     0.037 A 
HETATM   14  C   UNL     1       0.574   6.883 -30.434  1.00  0.00     0.003 A 
HETATM   15  C   UNL     1      -0.112   7.496 -29.392  1.00  0.00     0.001 A 
HETATM   16  C   UNL     1      -1.500   7.624 -29.449  1.00  0.00     0.012 A 
BRANCH  12  17
HETATM   17  O   UNL     1      -2.260   6.128 -32.690  1.00  0.00    -0.355 OA
HETATM   18  C   UNL     1      -1.791   5.006 -33.433  1.00  0.00     0.210 C 
ENDBRANCH  12  17
ENDBRANCH   6  11
ENDBRANCH   5   6
ENDBRANCH   2   5
BRANCH   1  19
HETATM   19  C   UNL     1      -5.347   2.712 -31.585  1.00  0.00     0.150 A 
HETATM   20  O   UNL     1      -4.462   1.864 -30.970  1.00  0.00    -0.304 OA
HETATM   21  C   UNL     1      -4.437   0.712 -31.691  1.00  0.00     0.087 A 
HETATM   22  C   UNL     1      -3.698  -0.423 -31.369  1.00  0.00     0.045 A 
HETATM   23  C   UNL     1      -5.268   0.816 -32.795  1.00  0.00     0.007 A 
HETATM   24  C   UNL     1      -3.815  -1.535 -32.224  1.00  0.00    -0.053 A 
HETATM   25  C   UNL     1      -4.616  -1.459 -33.385  1.00  0.00    -0.055 A 
HETATM   26  C   UNL     1      -3.038  -2.782 -31.886  1.00  0.00     0.049 C 
HETATM   27  C   UNL     1      -4.748  -2.630 -34.326  1.00  0.00     0.049 C 
HETATM   28  C   UNL     1      -5.356  -0.288 -33.662  1.00  0.00     0.022 A 
HETATM   29  C   UNL     1      -5.858   2.117 -32.730  1.00  0.00    -0.009 A 
HETATM   30  C   UNL     1      -6.837   2.700 -33.683  1.00  0.00     0.052 C 
ENDBRANCH   1  19
TORSDOF 6
ENDMDL
