MODEL 1
REMARK VINA RESULT:      -8.1      0.000      0.000
REMARK  5 active torsions:
REMARK  status: ('A' for Active; 'I' for Inactive)
REMARK    1  A    between atoms: C_2  and  C_3 
REMARK    2  A    between atoms: C_3  and  N_4 
REMARK    3  A    between atoms: C_3  and  C_19 
REMARK       I    between atoms: N_4  and  C_5 
REMARK       I    between atoms: C_5  and  N_6 
REMARK    4  A    between atoms: N_6  and  C_7 
REMARK    5  A    between atoms: C_12  and  C_13 
ROOT
HETATM    1  N   UNL     1      -3.979   1.242 -31.761  1.00  0.00    -0.334 N 
HETATM    2  C   UNL     1      -3.135   0.212 -31.541  1.00  0.00     0.321 C 
HETATM    3  N   UNL     1      -3.285  -0.928 -32.267  1.00  0.00    -0.306 N 
HETATM    4  O   UNL     1      -2.167   0.294 -30.784  1.00  0.00    -0.247 OA
HETATM    5  H   UNL     1      -4.884   1.029 -32.146  1.00  0.00     0.165 HD
HETATM    6  H   UNL     1      -2.457  -1.501 -32.153  1.00  0.00     0.171 HD
ENDROOT
BRANCH   1   7
HETATM    7  C   UNL     1      -3.853   2.510 -31.068  1.00  0.00     0.122 C 
BRANCH   7   8
HETATM    8  C   UNL     1      -5.214   3.093 -30.647  1.00  0.00     0.026 C 
HETATM    9  C   UNL     1      -6.383   2.729 -31.554  1.00  0.00     0.007 C 
ENDBRANCH   7   8
BRANCH   7  10
HETATM   10  C   UNL     1      -3.035   3.439 -31.913  1.00  0.00     0.001 A 
HETATM   11  C   UNL     1      -3.081   3.685 -33.274  1.00  0.00     0.122 A 
HETATM   12  N   UNL     1      -2.100   4.597 -33.538  1.00  0.00    -0.285 N 
HETATM   13  C   UNL     1      -1.734   5.132 -34.826  1.00  0.00     0.179 C 
HETATM   14  N   UNL     1      -1.430   4.991 -32.442  1.00  0.00    -0.185 NA
HETATM   15  C   UNL     1      -1.991   4.283 -31.460  1.00  0.00     0.149 A 
ENDBRANCH   7  10
ENDBRANCH   1   7
BRANCH   3  16
HETATM   16  C   UNL     1      -4.269  -1.421 -33.148  1.00  0.00     0.075 A 
HETATM   17  C   UNL     1      -4.337  -2.713 -33.676  1.00  0.00     0.143 A 
HETATM   18  F   UNL     1      -3.405  -3.636 -33.399  1.00  0.00    -0.204 F 
HETATM   19  C   UNL     1      -5.351  -3.086 -34.560  1.00  0.00     0.045 A 
HETATM   20  C   UNL     1      -6.326  -2.165 -34.937  1.00  0.00     0.019 A 
HETATM   21  C   UNL     1      -6.281  -0.856 -34.440  1.00  0.00     0.050 A 
HETATM   22  C   UNL     1      -5.244  -0.495 -33.558  1.00  0.00     0.049 A 
BRANCH  21  23
HETATM   23  C   UNL     1      -7.329   0.163 -34.823  1.00  0.00     0.417 C 
HETATM   24  F   UNL     1      -8.193  -0.277 -35.778  1.00  0.00    -0.166 F 
HETATM   25  F   UNL     1      -8.098   0.536 -33.764  1.00  0.00    -0.166 F 
HETATM   26  F   UNL     1      -6.780   1.309 -35.312  1.00  0.00    -0.166 F 
ENDBRANCH  21  23
ENDBRANCH   3  16
TORSDOF 5
ENDMDL
MODEL 2
REMARK VINA RESULT:      -8.1      2.214      2.969
REMARK  5 active torsions:
REMARK  status: ('A' for Active; 'I' for Inactive)
REMARK    1  A    between atoms: C_2  and  C_3 
REMARK    2  A    between atoms: C_3  and  N_4 
REMARK    3  A    between atoms: C_3  and  C_19 
REMARK       I    between atoms: N_4  and  C_5 
REMARK       I    between atoms: C_5  and  N_6 
REMARK    4  A    between atoms: N_6  and  C_7 
REMARK    5  A    between atoms: C_12  and  C_13 
ROOT
HETATM    1  N   UNL     1      -4.809   2.836 -32.382  1.00  0.00    -0.334 N 
HETATM    2  C   UNL     1      -5.647   2.351 -31.441  1.00  0.00     0.321 C 
HETATM    3  N   UNL     1      -5.676   1.011 -31.214  1.00  0.00    -0.306 N 
HETATM    4  O   UNL     1      -6.312   3.079 -30.703  1.00  0.00    -0.247 OA
HETATM    5  H   UNL     1      -4.529   2.214 -33.121  1.00  0.00     0.165 HD
HETATM    6  H   UNL     1      -6.167   0.835 -30.345  1.00  0.00     0.171 HD
ENDROOT
BRANCH   1   7
HETATM    7  C   UNL     1      -4.680   4.257 -32.647  1.00  0.00     0.122 C 
BRANCH   7   8
HETATM    8  C   UNL     1      -5.393   4.686 -33.941  1.00  0.00     0.026 C 
HETATM    9  C   UNL     1      -6.875   5.011 -33.787  1.00  0.00     0.007 C 
ENDBRANCH   7   8
BRANCH   7  10
HETATM   10  C   UNL     1      -3.226   4.620 -32.612  1.00  0.00     0.001 A 
HETATM   11  C   UNL     1      -2.348   4.701 -31.545  1.00  0.00     0.122 A 
HETATM   12  N   UNL     1      -1.150   5.105 -32.057  1.00  0.00    -0.285 N 
HETATM   13  C   UNL     1       0.064   5.371 -31.324  1.00  0.00     0.179 C 
HETATM   14  N   UNL     1      -1.167   5.269 -33.390  1.00  0.00    -0.185 NA
HETATM   15  C   UNL     1      -2.427   4.983 -33.725  1.00  0.00     0.149 A 
ENDBRANCH   7  10
ENDBRANCH   1   7
BRANCH   3  16
HETATM   16  C   UNL     1      -5.136  -0.117 -31.865  1.00  0.00     0.075 A 
HETATM   17  C   UNL     1      -3.884  -0.691 -31.628  1.00  0.00     0.143 A 
HETATM   18  F   UNL     1      -3.030  -0.172 -30.735  1.00  0.00    -0.204 F 
HETATM   19  C   UNL     1      -3.444  -1.802 -32.350  1.00  0.00     0.045 A 
HETATM   20  C   UNL     1      -4.255  -2.365 -33.333  1.00  0.00     0.019 A 
HETATM   21  C   UNL     1      -5.510  -1.808 -33.608  1.00  0.00     0.050 A 
HETATM   22  C   UNL     1      -5.932  -0.681 -32.877  1.00  0.00     0.049 A 
BRANCH  21  23
HETATM   23  C   UNL     1      -6.416  -2.402 -34.662  1.00  0.00     0.417 C 
HETATM   24  F   UNL     1      -7.269  -3.345 -34.178  1.00  0.00    -0.166 F 
HETATM   25  F   UNL     1      -7.197  -1.461 -35.260  1.00  0.00    -0.166 F 
HETATM   26  F   UNL     1      -5.718  -3.003 -35.663  1.00  0.00    -0.166 F 
ENDBRANCH  21  23
ENDBRANCH   3  16
TORSDOF 5
ENDMDL
MODEL 3
REMARK VINA RESULT:      -7.9      2.257      3.630
REMARK  5 active torsions:
REMARK  status: ('A' for Active; 'I' for Inactive)
REMARK    1  A    between atoms: C_2  and  C_3 
REMARK    2  A    between atoms: C_3  and  N_4 
REMARK    3  A    between atoms: C_3  and  C_19 
REMARK       I    between atoms: N_4  and  C_5 
REMARK       I    between atoms: C_5  and  N_6 
REMARK    4  A    between atoms: N_6  and  C_7 
REMARK    5  A    between atoms: C_12  and  C_13 
ROOT
HETATM    1  N   UNL     1      -3.458   3.431 -32.667  1.00  0.00    -0.334 N 
HETATM    2  C   UNL     1      -4.609   3.273 -31.979  1.00  0.00     0.321 C 
HETATM    3  N   UNL     1      -5.028   2.014 -31.680  1.00  0.00    -0.306 N 
HETATM    4  O   UNL     1      -5.244   4.221 -31.517  1.00  0.00    -0.247 OA
HETATM    5  H   UNL     1      -3.154   2.669 -33.249  1.00  0.00     0.165 HD
HETATM    6  H   UNL     1      -5.761   2.070 -30.982  1.00  0.00     0.171 HD
ENDROOT
BRANCH   1   7
HETATM    7  C   UNL     1      -2.914   4.740 -32.978  1.00  0.00     0.122 C 
BRANCH   7   8
HETATM    8  C   UNL     1      -2.157   4.763 -34.318  1.00  0.00     0.026 C 
HETATM    9  C   UNL     1      -1.271   5.983 -34.540  1.00  0.00     0.007 C 
ENDBRANCH   7   8
BRANCH   7  10
HETATM   10  C   UNL     1      -2.093   5.207 -31.814  1.00  0.00     0.001 A 
HETATM   11  C   UNL     1      -0.911   4.708 -31.295  1.00  0.00     0.122 A 
HETATM   12  N   UNL     1      -0.604   5.483 -30.215  1.00  0.00    -0.285 N 
HETATM   13  C   UNL     1       0.518   5.325 -29.322  1.00  0.00     0.179 C 
HETATM   14  N   UNL     1      -1.484   6.476 -30.003  1.00  0.00    -0.185 NA
HETATM   15  C   UNL     1      -2.390   6.303 -30.967  1.00  0.00     0.149 A 
ENDBRANCH   7  10
ENDBRANCH   1   7
BRANCH   3  16
HETATM   16  C   UNL     1      -4.633   0.719 -32.068  1.00  0.00     0.075 A 
HETATM   17  C   UNL     1      -3.518   0.017 -31.601  1.00  0.00     0.143 A 
HETATM   18  F   UNL     1      -2.665   0.559 -30.719  1.00  0.00    -0.204 F 
HETATM   19  C   UNL     1      -3.210  -1.260 -32.072  1.00  0.00     0.045 A 
HETATM   20  C   UNL     1      -4.019  -1.867 -33.030  1.00  0.00     0.019 A 
HETATM   21  C   UNL     1      -5.138  -1.189 -33.532  1.00  0.00     0.050 A 
HETATM   22  C   UNL     1      -5.425   0.104 -33.053  1.00  0.00     0.049 A 
BRANCH  21  23
HETATM   23  C   UNL     1      -6.040  -1.824 -34.565  1.00  0.00     0.417 C 
HETATM   24  F   UNL     1      -5.400  -2.711 -35.376  1.00  0.00    -0.166 F 
HETATM   25  F   UNL     1      -7.070  -2.509 -33.998  1.00  0.00    -0.166 F 
HETATM   26  F   UNL     1      -6.609  -0.903 -35.390  1.00  0.00    -0.166 F 
ENDBRANCH  21  23
ENDBRANCH   3  16
TORSDOF 5
ENDMDL
MODEL 4
REMARK VINA RESULT:      -7.7      1.372      1.834
REMARK  5 active torsions:
REMARK  status: ('A' for Active; 'I' for Inactive)
REMARK    1  A    between atoms: C_2  and  C_3 
REMARK    2  A    between atoms: C_3  and  N_4 
REMARK    3  A    between atoms: C_3  and  C_19 
REMARK       I    between atoms: N_4  and  C_5 
REMARK       I    between atoms: C_5  and  N_6 
REMARK    4  A    between atoms: N_6  and  C_7 
REMARK    5  A    between atoms: C_12  and  C_13 
ROOT
HETATM    1  N   UNL     1      -4.283   1.760 -31.877  1.00  0.00    -0.334 N 
HETATM    2  C   UNL     1      -3.632   0.611 -31.597  1.00  0.00     0.321 C 
HETATM    3  N   UNL     1      -4.061  -0.545 -32.170  1.00  0.00    -0.306 N 
HETATM    4  O   UNL     1      -2.600   0.578 -30.925  1.00  0.00    -0.247 OA
HETATM    5  H   UNL     1      -5.243   1.693 -32.169  1.00  0.00     0.165 HD
HETATM    6  H   UNL     1      -3.349  -1.255 -32.048  1.00  0.00     0.171 HD
ENDROOT
BRANCH   1   7
HETATM    7  C   UNL     1      -3.856   3.042 -31.349  1.00  0.00     0.122 C 
BRANCH   7   8
HETATM    8  C   UNL     1      -4.932   3.712 -30.476  1.00  0.00     0.026 C 
HETATM    9  C   UNL     1      -6.275   2.992 -30.438  1.00  0.00     0.007 C 
ENDBRANCH   7   8
BRANCH   7  10
HETATM   10  C   UNL     1      -3.387   3.898 -32.488  1.00  0.00     0.001 A 
HETATM   11  C   UNL     1      -2.112   4.316 -32.828  1.00  0.00     0.122 A 
HETATM   12  N   UNL     1      -2.243   5.102 -33.935  1.00  0.00    -0.285 N 
HETATM   13  C   UNL     1      -1.194   5.802 -34.634  1.00  0.00     0.179 C 
HETATM   14  N   UNL     1      -3.511   5.210 -34.365  1.00  0.00    -0.185 NA
HETATM   15  C   UNL     1      -4.205   4.487 -33.483  1.00  0.00     0.149 A 
ENDBRANCH   7  10
ENDBRANCH   1   7
BRANCH   3  16
HETATM   16  C   UNL     1      -5.196  -0.920 -32.916  1.00  0.00     0.075 A 
HETATM   17  C   UNL     1      -5.226  -1.819 -33.985  1.00  0.00     0.143 A 
HETATM   18  F   UNL     1      -4.112  -2.411 -34.438  1.00  0.00    -0.204 F 
HETATM   19  C   UNL     1      -6.412  -2.103 -34.666  1.00  0.00     0.045 A 
HETATM   20  C   UNL     1      -7.602  -1.485 -34.287  1.00  0.00     0.019 A 
HETATM   21  C   UNL     1      -7.608  -0.567 -33.229  1.00  0.00     0.050 A 
HETATM   22  C   UNL     1      -6.400  -0.286 -32.562  1.00  0.00     0.049 A 
BRANCH  21  23
HETATM   23  C   UNL     1      -8.884   0.112 -32.789  1.00  0.00     0.417 C 
HETATM   24  F   UNL     1      -9.205   1.205 -33.534  1.00  0.00    -0.166 F 
HETATM   25  F   UNL     1      -9.960  -0.718 -32.858  1.00  0.00    -0.166 F 
HETATM   26  F   UNL     1      -8.822   0.542 -31.499  1.00  0.00    -0.166 F 
ENDBRANCH  21  23
ENDBRANCH   3  16
TORSDOF 5
ENDMDL
MODEL 5
REMARK VINA RESULT:      -7.7      4.214      7.443
REMARK  5 active torsions:
REMARK  status: ('A' for Active; 'I' for Inactive)
REMARK    1  A    between atoms: C_2  and  C_3 
REMARK    2  A    between atoms: C_3  and  N_4 
REMARK    3  A    between atoms: C_3  and  C_19 
REMARK       I    between atoms: N_4  and  C_5 
REMARK       I    between atoms: C_5  and  N_6 
REMARK    4  A    between atoms: N_6  and  C_7 
REMARK    5  A    between atoms: C_12  and  C_13 
ROOT
HETATM    1  N   UNL     1      -4.230   1.518 -32.277  1.00  0.00    -0.334 N 
HETATM    2  C   UNL     1      -4.422   2.211 -31.135  1.00  0.00     0.321 C 
HETATM    3  N   UNL     1      -3.877   3.451 -31.018  1.00  0.00    -0.306 N 
HETATM    4  O   UNL     1      -5.158   1.814 -30.231  1.00  0.00    -0.247 OA
HETATM    5  H   UNL     1      -3.420   1.743 -32.829  1.00  0.00     0.165 HD
HETATM    6  H   UNL     1      -4.293   3.919 -30.222  1.00  0.00     0.171 HD
ENDROOT
BRANCH   1   7
HETATM    7  C   UNL     1      -4.823   0.212 -32.501  1.00  0.00     0.122 C 
BRANCH   7   8
HETATM    8  C   UNL     1      -3.921  -0.712 -33.339  1.00  0.00     0.026 C 
HETATM    9  C   UNL     1      -4.134  -2.204 -33.113  1.00  0.00     0.007 C 
ENDBRANCH   7   8
BRANCH   7  10
HETATM   10  C   UNL     1      -6.194   0.400 -33.078  1.00  0.00     0.001 A 
HETATM   11  C   UNL     1      -7.438   0.284 -32.484  1.00  0.00     0.122 A 
HETATM   12  N   UNL     1      -8.359   0.529 -33.460  1.00  0.00    -0.285 N 
HETATM   13  C   UNL     1      -9.795   0.482 -33.333  1.00  0.00     0.179 C 
HETATM   14  N   UNL     1      -7.810   0.826 -34.649  1.00  0.00    -0.185 NA
HETATM   15  C   UNL     1      -6.498   0.740 -34.419  1.00  0.00     0.149 A 
ENDBRANCH   7  10
ENDBRANCH   1   7
BRANCH   3  16
HETATM   16  C   UNL     1      -2.954   4.203 -31.772  1.00  0.00     0.075 A 
HETATM   17  C   UNL     1      -3.097   4.596 -33.106  1.00  0.00     0.143 A 
HETATM   18  F   UNL     1      -4.169   4.246 -33.831  1.00  0.00    -0.204 F 
HETATM   19  C   UNL     1      -2.104   5.327 -33.761  1.00  0.00     0.045 A 
HETATM   20  C   UNL     1      -0.937   5.682 -33.089  1.00  0.00     0.019 A 
HETATM   21  C   UNL     1      -0.751   5.293 -31.756  1.00  0.00     0.050 A 
HETATM   22  C   UNL     1      -1.759   4.546 -31.116  1.00  0.00     0.049 A 
BRANCH  21  23
HETATM   23  C   UNL     1       0.500   5.670 -30.997  1.00  0.00     0.417 C 
HETATM   24  F   UNL     1       1.505   4.760 -31.117  1.00  0.00    -0.166 F 
HETATM   25  F   UNL     1       1.017   6.858 -31.414  1.00  0.00    -0.166 F 
HETATM   26  F   UNL     1       0.273   5.806 -29.662  1.00  0.00    -0.166 F 
ENDBRANCH  21  23
ENDBRANCH   3  16
TORSDOF 5
ENDMDL
MODEL 6
REMARK VINA RESULT:      -7.6      1.741      2.950
REMARK  5 active torsions:
REMARK  status: ('A' for Active; 'I' for Inactive)
REMARK    1  A    between atoms: C_2  and  C_3 
REMARK    2  A    between atoms: C_3  and  N_4 
REMARK    3  A    between atoms: C_3  and  C_19 
REMARK       I    between atoms: N_4  and  C_5 
REMARK       I    between atoms: C_5  and  N_6 
REMARK    4  A    between atoms: N_6  and  C_7 
REMARK    5  A    between atoms: C_12  and  C_13 
ROOT
HETATM    1  N   UNL     1      -4.439   1.861 -31.943  1.00  0.00    -0.334 N 
HETATM    2  C   UNL     1      -3.632   0.782 -31.848  1.00  0.00     0.321 C 
HETATM    3  N   UNL     1      -3.880  -0.296 -32.638  1.00  0.00    -0.306 N 
HETATM    4  O   UNL     1      -2.616   0.770 -31.152  1.00  0.00    -0.247 OA
HETATM    5  H   UNL     1      -5.374   1.714 -32.282  1.00  0.00     0.165 HD
HETATM    6  H   UNL     1      -3.074  -0.911 -32.617  1.00  0.00     0.171 HD
ENDROOT
BRANCH   1   7
HETATM    7  C   UNL     1      -4.210   3.070 -31.176  1.00  0.00     0.122 C 
BRANCH   7   8
HETATM    8  C   UNL     1      -5.327   3.341 -30.151  1.00  0.00     0.026 C 
HETATM    9  C   UNL     1      -6.600   2.528 -30.350  1.00  0.00     0.007 C 
ENDBRANCH   7   8
BRANCH   7  10
HETATM   10  C   UNL     1      -3.978   4.205 -32.127  1.00  0.00     0.001 A 
HETATM   11  C   UNL     1      -2.797   4.729 -32.624  1.00  0.00     0.122 A 
HETATM   12  N   UNL     1      -3.144   5.775 -33.429  1.00  0.00    -0.285 N 
HETATM   13  C   UNL     1      -2.253   6.659 -34.138  1.00  0.00     0.179 C 
HETATM   14  N   UNL     1      -4.471   5.960 -33.520  1.00  0.00    -0.185 NA
HETATM   15  C   UNL     1      -4.975   5.014 -32.725  1.00  0.00     0.149 A 
ENDBRANCH   7  10
ENDBRANCH   1   7
BRANCH   3  16
HETATM   16  C   UNL     1      -4.938  -0.683 -33.485  1.00  0.00     0.075 A 
HETATM   17  C   UNL     1      -5.872   0.166 -34.086  1.00  0.00     0.143 A 
HETATM   18  F   UNL     1      -5.860   1.489 -33.871  1.00  0.00    -0.204 F 
HETATM   19  C   UNL     1      -6.894  -0.333 -34.895  1.00  0.00     0.045 A 
HETATM   20  C   UNL     1      -7.004  -1.703 -35.121  1.00  0.00     0.019 A 
HETATM   21  C   UNL     1      -6.095  -2.586 -34.524  1.00  0.00     0.050 A 
HETATM   22  C   UNL     1      -5.077  -2.065 -33.701  1.00  0.00     0.049 A 
BRANCH  21  23
HETATM   23  C   UNL     1      -6.183  -4.076 -34.757  1.00  0.00     0.417 C 
HETATM   24  F   UNL     1      -5.166  -4.778 -34.186  1.00  0.00    -0.166 F 
HETATM   25  F   UNL     1      -7.332  -4.609 -34.261  1.00  0.00    -0.166 F 
HETATM   26  F   UNL     1      -6.162  -4.394 -36.080  1.00  0.00    -0.166 F 
ENDBRANCH  21  23
ENDBRANCH   3  16
TORSDOF 5
ENDMDL
MODEL 7
REMARK VINA RESULT:      -7.5      2.472      4.323
REMARK  5 active torsions:
REMARK  status: ('A' for Active; 'I' for Inactive)
REMARK    1  A    between atoms: C_2  and  C_3 
REMARK    2  A    between atoms: C_3  and  N_4 
REMARK    3  A    between atoms: C_3  and  C_19 
REMARK       I    between atoms: N_4  and  C_5 
REMARK       I    between atoms: C_5  and  N_6 
REMARK    4  A    between atoms: N_6  and  C_7 
REMARK    5  A    between atoms: C_12  and  C_13 
ROOT
HETATM    1  N   UNL     1      -4.885   4.107 -33.602  1.00  0.00    -0.334 N 
HETATM    2  C   UNL     1      -5.979   4.095 -32.811  1.00  0.00     0.321 C 
HETATM    3  N   UNL     1      -6.735   2.966 -32.751  1.00  0.00    -0.306 N 
HETATM    4  O   UNL     1      -6.267   5.026 -32.059  1.00  0.00    -0.247 OA
HETATM    5  H   UNL     1      -4.866   3.470 -34.381  1.00  0.00     0.165 HD
HETATM    6  H   UNL     1      -7.366   3.035 -31.961  1.00  0.00     0.171 HD
ENDROOT
BRANCH   1   7
HETATM    7  C   UNL     1      -3.998   5.252 -33.681  1.00  0.00     0.122 C 
BRANCH   7   8
HETATM    8  C   UNL     1      -3.334   5.394 -35.062  1.00  0.00     0.026 C 
HETATM    9  C   UNL     1      -1.835   5.122 -35.092  1.00  0.00     0.007 C 
ENDBRANCH   7   8
BRANCH   7  10
HETATM   10  C   UNL     1      -3.019   5.179 -32.548  1.00  0.00     0.001 A 
HETATM   11  C   UNL     1      -2.495   6.182 -31.751  1.00  0.00     0.122 A 
HETATM   12  N   UNL     1      -1.624   5.580 -30.890  1.00  0.00    -0.285 N 
HETATM   13  C   UNL     1      -0.803   6.221 -29.894  1.00  0.00     0.179 C 
HETATM   14  N   UNL     1      -1.558   4.247 -31.045  1.00  0.00    -0.185 NA
HETATM   15  C   UNL     1      -2.396   4.006 -32.054  1.00  0.00     0.149 A 
ENDBRANCH   7  10
ENDBRANCH   1   7
BRANCH   3  16
HETATM   16  C   UNL     1      -6.774   1.759 -33.478  1.00  0.00     0.075 A 
HETATM   17  C   UNL     1      -7.771   1.362 -34.373  1.00  0.00     0.143 A 
HETATM   18  F   UNL     1      -8.851   2.122 -34.605  1.00  0.00    -0.204 F 
HETATM   19  C   UNL     1      -7.716   0.129 -35.025  1.00  0.00     0.045 A 
HETATM   20  C   UNL     1      -6.651  -0.739 -34.793  1.00  0.00     0.019 A 
HETATM   21  C   UNL     1      -5.640  -0.381 -33.892  1.00  0.00     0.050 A 
HETATM   22  C   UNL     1      -5.720   0.862 -33.235  1.00  0.00     0.049 A 
BRANCH  21  23
HETATM   23  C   UNL     1      -4.468  -1.298 -33.626  1.00  0.00     0.417 C 
HETATM   24  F   UNL     1      -4.382  -2.339 -34.498  1.00  0.00    -0.166 F 
HETATM   25  F   UNL     1      -3.276  -0.645 -33.701  1.00  0.00    -0.166 F 
HETATM   26  F   UNL     1      -4.517  -1.851 -32.384  1.00  0.00    -0.166 F 
ENDBRANCH  21  23
ENDBRANCH   3  16
TORSDOF 5
ENDMDL
MODEL 8
REMARK VINA RESULT:      -7.3      3.988      7.207
REMARK  5 active torsions:
REMARK  status: ('A' for Active; 'I' for Inactive)
REMARK    1  A    between atoms: C_2  and  C_3 
REMARK    2  A    between atoms: C_3  and  N_4 
REMARK    3  A    between atoms: C_3  and  C_19 
REMARK       I    between atoms: N_4  and  C_5 
REMARK       I    between atoms: C_5  and  N_6 
REMARK    4  A    between atoms: N_6  and  C_7 
REMARK    5  A    between atoms: C_12  and  C_13 
ROOT
HETATM    1  N   UNL     1      -5.199   2.818 -32.394  1.00  0.00    -0.334 N 
HETATM    2  C   UNL     1      -5.835   3.996 -32.566  1.00  0.00     0.321 C 
HETATM    3  N   UNL     1      -5.153   5.040 -33.107  1.00  0.00    -0.306 N 
HETATM    4  O   UNL     1      -7.039   4.139 -32.351  1.00  0.00    -0.247 OA
HETATM    5  H   UNL     1      -4.197   2.838 -32.306  1.00  0.00     0.165 HD
HETATM    6  H   UNL     1      -5.813   5.759 -33.378  1.00  0.00     0.171 HD
ENDROOT
BRANCH   1   7
HETATM    7  C   UNL     1      -5.870   1.642 -31.873  1.00  0.00     0.122 C 
BRANCH   7   8
HETATM    8  C   UNL     1      -5.665   1.464 -30.358  1.00  0.00     0.026 C 
HETATM    9  C   UNL     1      -6.218   0.168 -29.777  1.00  0.00     0.007 C 
ENDBRANCH   7   8
BRANCH   7  10
HETATM   10  C   UNL     1      -5.449   0.451 -32.682  1.00  0.00     0.001 A 
HETATM   11  C   UNL     1      -6.205  -0.442 -33.420  1.00  0.00     0.122 A 
HETATM   12  N   UNL     1      -5.333  -1.357 -33.935  1.00  0.00    -0.285 N 
HETATM   13  C   UNL     1      -5.656  -2.509 -34.740  1.00  0.00     0.179 C 
HETATM   14  N   UNL     1      -4.053  -1.113 -33.611  1.00  0.00    -0.185 NA
HETATM   15  C   UNL     1      -4.124  -0.022 -32.845  1.00  0.00     0.149 A 
ENDBRANCH   7  10
ENDBRANCH   1   7
BRANCH   3  16
HETATM   16  C   UNL     1      -3.800   5.287 -33.415  1.00  0.00     0.075 A 
HETATM   17  C   UNL     1      -3.232   5.323 -34.692  1.00  0.00     0.143 A 
HETATM   18  F   UNL     1      -3.960   5.081 -35.791  1.00  0.00    -0.204 F 
HETATM   19  C   UNL     1      -1.869   5.560 -34.877  1.00  0.00     0.045 A 
HETATM   20  C   UNL     1      -1.038   5.766 -33.778  1.00  0.00     0.019 A 
HETATM   21  C   UNL     1      -1.569   5.723 -32.482  1.00  0.00     0.050 A 
HETATM   22  C   UNL     1      -2.944   5.471 -32.315  1.00  0.00     0.049 A 
BRANCH  21  23
HETATM   23  C   UNL     1      -0.695   5.952 -31.270  1.00  0.00     0.417 C 
HETATM   24  F   UNL     1      -0.360   4.806 -30.615  1.00  0.00    -0.166 F 
HETATM   25  F   UNL     1       0.481   6.559 -31.590  1.00  0.00    -0.166 F 
HETATM   26  F   UNL     1      -1.293   6.752 -30.347  1.00  0.00    -0.166 F 
ENDBRANCH  21  23
ENDBRANCH   3  16
TORSDOF 5
ENDMDL
MODEL 9
REMARK VINA RESULT:      -7.2      3.975      5.560
REMARK  5 active torsions:
REMARK  status: ('A' for Active; 'I' for Inactive)
REMARK    1  A    between atoms: C_2  and  C_3 
REMARK    2  A    between atoms: C_3  and  N_4 
REMARK    3  A    between atoms: C_3  and  C_19 
REMARK       I    between atoms: N_4  and  C_5 
REMARK       I    between atoms: C_5  and  N_6 
REMARK    4  A    between atoms: N_6  and  C_7 
REMARK    5  A    between atoms: C_12  and  C_13 
ROOT
HETATM    1  N   UNL     1      -6.895   0.897 -33.305  1.00  0.00    -0.334 N 
HETATM    2  C   UNL     1      -7.348   0.572 -34.534  1.00  0.00     0.321 C 
HETATM    3  N   UNL     1      -8.545   1.068 -34.947  1.00  0.00    -0.306 N 
HETATM    4  O   UNL     1      -6.678  -0.071 -35.342  1.00  0.00    -0.247 OA
HETATM    5  H   UNL     1      -7.576   1.158 -32.611  1.00  0.00     0.165 HD
HETATM    6  H   UNL     1      -8.632   0.927 -35.946  1.00  0.00     0.171 HD
ENDROOT
BRANCH   1   7
HETATM    7  C   UNL     1      -5.605   0.453 -32.811  1.00  0.00     0.122 C 
BRANCH   7   8
HETATM    8  C   UNL     1      -5.729  -0.542 -31.643  1.00  0.00     0.026 C 
HETATM    9  C   UNL     1      -6.530  -0.041 -30.447  1.00  0.00     0.007 C 
ENDBRANCH   7   8
BRANCH   7  10
HETATM   10  C   UNL     1      -4.774   1.658 -32.490  1.00  0.00     0.001 A 
HETATM   11  C   UNL     1      -5.016   3.001 -32.723  1.00  0.00     0.122 A 
HETATM   12  N   UNL     1      -3.925   3.678 -32.263  1.00  0.00    -0.285 N 
HETATM   13  C   UNL     1      -3.695   5.101 -32.324  1.00  0.00     0.179 C 
HETATM   14  N   UNL     1      -2.993   2.880 -31.717  1.00  0.00    -0.185 NA
HETATM   15  C   UNL     1      -3.504   1.656 -31.862  1.00  0.00     0.149 A 
ENDBRANCH   7  10
ENDBRANCH   1   7
BRANCH   3  16
HETATM   16  C   UNL     1      -9.601   1.760 -34.320  1.00  0.00     0.075 A 
HETATM   17  C   UNL     1      -9.532   3.030 -33.740  1.00  0.00     0.143 A 
HETATM   18  F   UNL     1      -8.386   3.724 -33.701  1.00  0.00    -0.204 F 
HETATM   19  C   UNL     1     -10.643   3.612 -33.127  1.00  0.00     0.045 A 
HETATM   20  C   UNL     1     -11.856   2.928 -33.080  1.00  0.00     0.019 A 
HETATM   21  C   UNL     1     -11.959   1.647 -33.638  1.00  0.00     0.050 A 
HETATM   22  C   UNL     1     -10.825   1.072 -34.242  1.00  0.00     0.049 A 
BRANCH  21  23
HETATM   23  C   UNL     1     -13.264   0.884 -33.611  1.00  0.00     0.417 C 
HETATM   24  F   UNL     1     -13.939   0.918 -34.792  1.00  0.00    -0.166 F 
HETATM   25  F   UNL     1     -13.085  -0.432 -33.318  1.00  0.00    -0.166 F 
HETATM   26  F   UNL     1     -14.123   1.366 -32.672  1.00  0.00    -0.166 F 
ENDBRANCH  21  23
ENDBRANCH   3  16
TORSDOF 5
ENDMDL
MODEL 10
REMARK VINA RESULT:      -7.2     14.744     16.431
REMARK  5 active torsions:
REMARK  status: ('A' for Active; 'I' for Inactive)
REMARK    1  A    between atoms: C_2  and  C_3 
REMARK    2  A    between atoms: C_3  and  N_4 
REMARK    3  A    between atoms: C_3  and  C_19 
REMARK       I    between atoms: N_4  and  C_5 
REMARK       I    between atoms: C_5  and  N_6 
REMARK    4  A    between atoms: N_6  and  C_7 
REMARK    5  A    between atoms: C_12  and  C_13 
ROOT
HETATM    1  N   UNL     1      -3.519 -13.528 -39.188  1.00  0.00    -0.334 N 
HETATM    2  C   UNL     1      -3.804 -12.384 -38.532  1.00  0.00     0.321 C 
HETATM    3  N   UNL     1      -5.010 -12.262 -37.915  1.00  0.00    -0.306 N 
HETATM    4  O   UNL     1      -2.981 -11.482 -38.377  1.00  0.00    -0.247 OA
HETATM    5  H   UNL     1      -4.291 -14.078 -39.524  1.00  0.00     0.165 HD
HETATM    6  H   UNL     1      -4.981 -11.465 -37.291  1.00  0.00     0.171 HD
ENDROOT
BRANCH   1   7
HETATM    7  C   UNL     1      -2.236 -13.757 -39.826  1.00  0.00     0.122 C 
BRANCH   7   8
HETATM    8  C   UNL     1      -2.373 -14.394 -41.220  1.00  0.00     0.026 C 
HETATM    9  C   UNL     1      -3.706 -14.147 -41.917  1.00  0.00     0.007 C 
ENDBRANCH   7   8
BRANCH   7  10
HETATM   10  C   UNL     1      -1.368 -14.542 -38.888  1.00  0.00     0.001 A 
HETATM   11  C   UNL     1      -1.661 -15.651 -38.114  1.00  0.00     0.122 A 
HETATM   12  N   UNL     1      -0.524 -15.952 -37.421  1.00  0.00    -0.285 N 
HETATM   13  C   UNL     1      -0.350 -17.005 -36.451  1.00  0.00     0.179 C 
HETATM   14  N   UNL     1       0.505 -15.138 -37.706  1.00  0.00    -0.185 NA
HETATM   15  C   UNL     1      -0.009 -14.279 -38.588  1.00  0.00     0.149 A 
ENDBRANCH   7  10
ENDBRANCH   1   7
BRANCH   3  16
HETATM   16  C   UNL     1      -6.203 -13.013 -37.913  1.00  0.00     0.075 A 
HETATM   17  C   UNL     1      -6.472 -14.140 -37.131  1.00  0.00     0.143 A 
HETATM   18  F   UNL     1      -5.558 -14.650 -36.293  1.00  0.00    -0.204 F 
HETATM   19  C   UNL     1      -7.688 -14.819 -37.226  1.00  0.00     0.045 A 
HETATM   20  C   UNL     1      -8.668 -14.381 -38.115  1.00  0.00     0.019 A 
HETATM   21  C   UNL     1      -8.428 -13.263 -38.925  1.00  0.00     0.050 A 
HETATM   22  C   UNL     1      -7.191 -12.598 -38.823  1.00  0.00     0.049 A 
BRANCH  21  23
HETATM   23  C   UNL     1      -9.474 -12.758 -39.892  1.00  0.00     0.417 C 
HETATM   24  F   UNL     1      -9.722 -13.613 -40.922  1.00  0.00    -0.166 F 
HETATM   25  F   UNL     1     -10.673 -12.541 -39.287  1.00  0.00    -0.166 F 
HETATM   26  F   UNL     1      -9.120 -11.575 -40.463  1.00  0.00    -0.166 F 
ENDBRANCH  21  23
ENDBRANCH   3  16
TORSDOF 5
ENDMDL
