MODEL 1
REMARK VINA RESULT:      -9.5      0.000      0.000
REMARK  5 active torsions:
REMARK  status: ('A' for Active; 'I' for Inactive)
REMARK    1  A    between atoms: C_3  and  O_4 
REMARK    2  A    between atoms: C_6  and  N_7 
REMARK       I    between atoms: N_7  and  C_8 
REMARK    3  A    between atoms: C_8  and  C_9 
REMARK    4  A    between atoms: C_14  and  C_15 
REMARK    5  A    between atoms: C_23  and  C_24 
ROOT
HETATM    1  C   UNL     1      -5.567   1.667 -31.937  1.00  0.00     0.148 A 
HETATM    2  N   UNL     1      -5.737   2.583 -32.919  1.00  0.00    -0.165 NA
HETATM    3  N   UNL     1      -5.274   3.722 -32.366  1.00  0.00    -0.240 N 
HETATM    4  C   UNL     1      -4.909   3.595 -31.057  1.00  0.00     0.123 A 
HETATM    5  N   UNL     1      -4.495   4.650 -30.324  1.00  0.00    -0.366 N 
HETATM    6  C   UNL     1      -4.297   5.974 -30.900  1.00  0.00     0.118 C 
HETATM    7  C   UNL     1      -5.180   6.170 -32.146  1.00  0.00     0.066 C 
HETATM    8  C   UNL     1      -5.221   4.967 -33.108  1.00  0.00     0.221 C 
HETATM    9  C   UNL     1      -5.062   2.269 -30.752  1.00  0.00     0.089 A 
HETATM   10  H   UNL     1      -4.123   4.521 -29.385  1.00  0.00     0.161 HD
ENDROOT
BRANCH   1  11
HETATM   11  C   UNL     1      -5.886   0.239 -32.125  1.00  0.00     0.276 C 
HETATM   12  N   UNL     1      -5.339  -0.261 -33.290  1.00  0.00    -0.322 N 
HETATM   13  H   UNL     1      -4.837   0.438 -33.833  1.00  0.00     0.169 HD
HETATM   14  O   UNL     1      -6.567  -0.371 -31.310  1.00  0.00    -0.266 OA
BRANCH  12  15
HETATM   15  C   UNL     1      -5.394  -1.574 -33.786  1.00  0.00     0.037 A 
HETATM   16  C   UNL     1      -4.330  -2.477 -33.724  1.00  0.00     0.066 A 
HETATM   17  C   UNL     1      -4.471  -3.758 -34.256  1.00  0.00     0.067 A 
HETATM   18  C   UNL     1      -5.664  -4.165 -34.846  1.00  0.00     0.036 A 
HETATM   19  C   UNL     1      -6.730  -3.271 -34.908  1.00  0.00     0.005 A 
HETATM   20  C   UNL     1      -6.595  -1.981 -34.385  1.00  0.00     0.029 A 
BRANCH  17  21
HETATM   21  O   UNL     1      -3.398  -4.597 -34.183  1.00  0.00    -0.361 OA
HETATM   22  H   UNL     1      -3.697  -5.504 -34.360  1.00  0.00     0.217 HD
ENDBRANCH  17  21
ENDBRANCH  12  15
ENDBRANCH   1  11
BRANCH   8  23
HETATM   23  C   UNL     1      -4.080   4.936 -34.098  1.00  0.00     0.409 C 
HETATM   24  F   UNL     1      -3.074   4.113 -33.750  1.00  0.00    -0.169 F 
HETATM   25  F   UNL     1      -4.495   4.568 -35.334  1.00  0.00    -0.169 F 
HETATM   26  F   UNL     1      -3.549   6.180 -34.237  1.00  0.00    -0.169 F 
ENDBRANCH   8  23
BRANCH   6  27
HETATM   27  C   UNL     1      -2.828   6.319 -31.083  1.00  0.00    -0.035 A 
HETATM   28  C   UNL     1      -2.385   7.597 -31.469  1.00  0.00     0.012 A 
HETATM   29  C   UNL     1      -1.026   7.862 -31.653  1.00  0.00     0.043 A 
HETATM   30  C   UNL     1      -0.098   6.849 -31.462  1.00  0.00     0.116 A 
HETATM   31  F   UNL     1       1.204   7.100 -31.646  1.00  0.00    -0.206 F 
HETATM   32  C   UNL     1      -0.504   5.575 -31.088  1.00  0.00     0.043 A 
HETATM   33  C   UNL     1      -1.862   5.311 -30.898  1.00  0.00     0.012 A 
ENDBRANCH   6  27
TORSDOF 5
ENDMDL
MODEL 2
REMARK VINA RESULT:      -9.2      3.676      8.664
REMARK  5 active torsions:
REMARK  status: ('A' for Active; 'I' for Inactive)
REMARK    1  A    between atoms: C_3  and  O_4 
REMARK    2  A    between atoms: C_6  and  N_7 
REMARK       I    between atoms: N_7  and  C_8 
REMARK    3  A    between atoms: C_8  and  C_9 
REMARK    4  A    between atoms: C_14  and  C_15 
REMARK    5  A    between atoms: C_23  and  C_24 
ROOT
HETATM    1  C   UNL     1      -4.824   4.305 -32.094  1.00  0.00     0.148 A 
HETATM    2  N   UNL     1      -5.484   3.576 -31.163  1.00  0.00    -0.165 NA
HETATM    3  N   UNL     1      -6.072   2.604 -31.888  1.00  0.00    -0.240 N 
HETATM    4  C   UNL     1      -5.896   2.734 -33.236  1.00  0.00     0.123 A 
HETATM    5  N   UNL     1      -6.478   1.894 -34.117  1.00  0.00    -0.366 N 
HETATM    6  C   UNL     1      -7.239   0.723 -33.699  1.00  0.00     0.118 C 
HETATM    7  C   UNL     1      -7.821   0.922 -32.287  1.00  0.00     0.066 C 
HETATM    8  C   UNL     1      -6.852   1.551 -31.267  1.00  0.00     0.221 C 
HETATM    9  C   UNL     1      -5.071   3.812 -33.405  1.00  0.00     0.089 A 
HETATM   10  H   UNL     1      -6.251   1.936 -35.109  1.00  0.00     0.161 HD
ENDROOT
BRANCH   1  11
HETATM   11  C   UNL     1      -3.974   5.457 -31.737  1.00  0.00     0.276 C 
HETATM   12  N   UNL     1      -2.815   5.063 -31.098  1.00  0.00    -0.322 N 
HETATM   13  H   UNL     1      -2.755   4.058 -30.954  1.00  0.00     0.169 HD
HETATM   14  O   UNL     1      -4.316   6.603 -32.000  1.00  0.00    -0.266 OA
BRANCH  12  15
HETATM   15  C   UNL     1      -1.754   5.864 -30.645  1.00  0.00     0.037 A 
HETATM   16  C   UNL     1      -1.863   6.784 -29.599  1.00  0.00     0.066 A 
HETATM   17  C   UNL     1      -0.759   7.549 -29.226  1.00  0.00     0.067 A 
HETATM   18  C   UNL     1       0.465   7.408 -29.872  1.00  0.00     0.036 A 
HETATM   19  C   UNL     1       0.583   6.490 -30.913  1.00  0.00     0.005 A 
HETATM   20  C   UNL     1      -0.523   5.725 -31.300  1.00  0.00     0.029 A 
BRANCH  17  21
HETATM   21  O   UNL     1      -0.921   8.443 -28.208  1.00  0.00    -0.361 OA
HETATM   22  H   UNL     1      -0.052   8.803 -27.966  1.00  0.00     0.217 HD
ENDBRANCH  17  21
ENDBRANCH  12  15
ENDBRANCH   1  11
BRANCH   8  23
HETATM   23  C   UNL     1      -5.939   0.552 -30.594  1.00  0.00     0.409 C 
HETATM   24  F   UNL     1      -6.320  -0.729 -30.747  1.00  0.00    -0.169 F 
HETATM   25  F   UNL     1      -4.665   0.651 -31.046  1.00  0.00    -0.169 F 
HETATM   26  F   UNL     1      -5.883   0.797 -29.259  1.00  0.00    -0.169 F 
ENDBRANCH   8  23
BRANCH   6  27
HETATM   27  C   UNL     1      -6.479  -0.576 -33.912  1.00  0.00    -0.035 A 
HETATM   28  C   UNL     1      -5.082  -0.676 -33.779  1.00  0.00     0.012 A 
HETATM   29  C   UNL     1      -4.422  -1.885 -34.011  1.00  0.00     0.043 A 
HETATM   30  C   UNL     1      -5.153  -3.003 -34.388  1.00  0.00     0.116 A 
HETATM   31  F   UNL     1      -4.520  -4.160 -34.619  1.00  0.00    -0.206 F 
HETATM   32  C   UNL     1      -6.531  -2.936 -34.534  1.00  0.00     0.043 A 
HETATM   33  C   UNL     1      -7.193  -1.729 -34.296  1.00  0.00     0.012 A 
ENDBRANCH   6  27
TORSDOF 5
ENDMDL
MODEL 3
REMARK VINA RESULT:      -8.6      2.623      3.782
REMARK  5 active torsions:
REMARK  status: ('A' for Active; 'I' for Inactive)
REMARK    1  A    between atoms: C_3  and  O_4 
REMARK    2  A    between atoms: C_6  and  N_7 
REMARK       I    between atoms: N_7  and  C_8 
REMARK    3  A    between atoms: C_8  and  C_9 
REMARK    4  A    between atoms: C_14  and  C_15 
REMARK    5  A    between atoms: C_23  and  C_24 
ROOT
HETATM    1  C   UNL     1      -3.307   3.195 -31.634  1.00  0.00     0.148 A 
HETATM    2  N   UNL     1      -2.157   3.774 -32.054  1.00  0.00    -0.165 NA
HETATM    3  N   UNL     1      -2.274   5.045 -31.623  1.00  0.00    -0.240 N 
HETATM    4  C   UNL     1      -3.475   5.325 -31.037  1.00  0.00     0.123 A 
HETATM    5  N   UNL     1      -3.793   6.567 -30.616  1.00  0.00    -0.366 N 
HETATM    6  C   UNL     1      -2.844   7.673 -30.649  1.00  0.00     0.118 C 
HETATM    7  C   UNL     1      -1.780   7.452 -31.740  1.00  0.00     0.066 C 
HETATM    8  C   UNL     1      -1.218   6.020 -31.818  1.00  0.00     0.221 C 
HETATM    9  C   UNL     1      -4.161   4.141 -31.004  1.00  0.00     0.089 A 
HETATM   10  H   UNL     1      -4.645   6.737 -30.083  1.00  0.00     0.161 HD
ENDROOT
BRANCH   1  11
HETATM   11  C   UNL     1      -3.588   1.761 -31.835  1.00  0.00     0.276 C 
HETATM   12  N   UNL     1      -4.613   1.559 -32.738  1.00  0.00    -0.322 N 
HETATM   13  H   UNL     1      -5.020   2.423 -33.086  1.00  0.00     0.169 HD
HETATM   14  O   UNL     1      -2.954   0.900 -31.237  1.00  0.00    -0.266 OA
BRANCH  12  15
HETATM   15  C   UNL     1      -5.134   0.342 -33.208  1.00  0.00     0.037 A 
HETATM   16  C   UNL     1      -4.355  -0.781 -33.494  1.00  0.00     0.066 A 
HETATM   17  C   UNL     1      -4.957  -1.944 -33.972  1.00  0.00     0.067 A 
HETATM   18  C   UNL     1      -6.333  -2.016 -34.163  1.00  0.00     0.036 A 
HETATM   19  C   UNL     1      -7.117  -0.901 -33.876  1.00  0.00     0.005 A 
HETATM   20  C   UNL     1      -6.520   0.273 -33.405  1.00  0.00     0.029 A 
BRANCH  17  21
HETATM   21  O   UNL     1      -4.150  -3.009 -34.250  1.00  0.00    -0.361 OA
HETATM   22  H   UNL     1      -3.569  -3.169 -33.489  1.00  0.00     0.217 HD
ENDBRANCH  17  21
ENDBRANCH  12  15
ENDBRANCH   1  11
BRANCH   8  23
HETATM   23  C   UNL     1      -0.080   5.756 -30.857  1.00  0.00     0.409 C 
HETATM   24  F   UNL     1      -0.470   5.250 -29.673  1.00  0.00    -0.169 F 
HETATM   25  F   UNL     1       0.833   4.904 -31.381  1.00  0.00    -0.169 F 
HETATM   26  F   UNL     1       0.588   6.910 -30.599  1.00  0.00    -0.169 F 
ENDBRANCH   8  23
BRANCH   6  27
HETATM   27  C   UNL     1      -2.301   8.020 -29.272  1.00  0.00    -0.035 A 
HETATM   28  C   UNL     1      -2.613   7.278 -28.118  1.00  0.00     0.012 A 
HETATM   29  C   UNL     1      -2.113   7.650 -26.868  1.00  0.00     0.043 A 
HETATM   30  C   UNL     1      -1.305   8.773 -26.759  1.00  0.00     0.116 A 
HETATM   31  F   UNL     1      -0.832   9.134 -25.559  1.00  0.00    -0.206 F 
HETATM   32  C   UNL     1      -0.984   9.529 -27.878  1.00  0.00     0.043 A 
HETATM   33  C   UNL     1      -1.478   9.154 -29.129  1.00  0.00     0.012 A 
ENDBRANCH   6  27
TORSDOF 5
ENDMDL
MODEL 4
REMARK VINA RESULT:      -8.6      4.333      8.549
REMARK  5 active torsions:
REMARK  status: ('A' for Active; 'I' for Inactive)
REMARK    1  A    between atoms: C_3  and  O_4 
REMARK    2  A    between atoms: C_6  and  N_7 
REMARK       I    between atoms: N_7  and  C_8 
REMARK    3  A    between atoms: C_8  and  C_9 
REMARK    4  A    between atoms: C_14  and  C_15 
REMARK    5  A    between atoms: C_23  and  C_24 
ROOT
HETATM    1  C   UNL     1      -5.145   2.259 -31.936  1.00  0.00     0.148 A 
HETATM    2  N   UNL     1      -5.346   1.152 -32.688  1.00  0.00    -0.165 NA
HETATM    3  N   UNL     1      -6.683   0.990 -32.651  1.00  0.00    -0.240 N 
HETATM    4  C   UNL     1      -7.328   1.878 -31.838  1.00  0.00     0.123 A 
HETATM    5  N   UNL     1      -8.658   1.814 -31.622  1.00  0.00    -0.366 N 
HETATM    6  C   UNL     1      -9.522   0.872 -32.322  1.00  0.00     0.118 C 
HETATM    7  C   UNL     1      -8.730  -0.370 -32.772  1.00  0.00     0.066 C 
HETATM    8  C   UNL     1      -7.347  -0.072 -33.383  1.00  0.00     0.221 C 
HETATM    9  C   UNL     1      -6.363   2.733 -31.378  1.00  0.00     0.089 A 
HETATM   10  H   UNL     1      -9.140   2.547 -31.103  1.00  0.00     0.161 HD
ENDROOT
BRANCH   1  11
HETATM   11  C   UNL     1      -3.807   2.853 -31.749  1.00  0.00     0.276 C 
HETATM   12  N   UNL     1      -3.757   4.159 -32.196  1.00  0.00    -0.322 N 
HETATM   13  H   UNL     1      -4.632   4.480 -32.603  1.00  0.00     0.169 HD
HETATM   14  O   UNL     1      -2.890   2.210 -31.254  1.00  0.00    -0.266 OA
BRANCH  12  15
HETATM   15  C   UNL     1      -2.676   5.055 -32.152  1.00  0.00     0.037 A 
HETATM   16  C   UNL     1      -2.613   6.238 -32.892  1.00  0.00     0.066 A 
HETATM   17  C   UNL     1      -1.492   7.061 -32.796  1.00  0.00     0.067 A 
HETATM   18  C   UNL     1      -0.427   6.732 -31.964  1.00  0.00     0.036 A 
HETATM   19  C   UNL     1      -0.484   5.556 -31.221  1.00  0.00     0.005 A 
HETATM   20  C   UNL     1      -1.601   4.720 -31.317  1.00  0.00     0.029 A 
BRANCH  17  21
HETATM   21  O   UNL     1      -1.473   8.198 -33.550  1.00  0.00    -0.361 OA
HETATM   22  H   UNL     1      -2.292   8.694 -33.390  1.00  0.00     0.217 HD
ENDBRANCH  17  21
ENDBRANCH  12  15
ENDBRANCH   1  11
BRANCH   8  23
HETATM   23  C   UNL     1      -7.389   0.260 -34.858  1.00  0.00     0.409 C 
HETATM   24  F   UNL     1      -8.564  -0.020 -35.449  1.00  0.00    -0.169 F 
HETATM   25  F   UNL     1      -7.122   1.568 -35.087  1.00  0.00    -0.169 F 
HETATM   26  F   UNL     1      -6.431  -0.441 -35.520  1.00  0.00    -0.169 F 
ENDBRANCH   8  23
BRANCH   6  27
HETATM   27  C   UNL     1     -10.359   1.536 -33.403  1.00  0.00    -0.035 A 
HETATM   28  C   UNL     1     -10.028   2.779 -33.971  1.00  0.00     0.012 A 
HETATM   29  C   UNL     1     -10.842   3.365 -34.943  1.00  0.00     0.043 A 
HETATM   30  C   UNL     1     -12.000   2.718 -35.348  1.00  0.00     0.116 A 
HETATM   31  F   UNL     1     -12.785   3.284 -36.274  1.00  0.00    -0.206 F 
HETATM   32  C   UNL     1     -12.358   1.494 -34.802  1.00  0.00     0.043 A 
HETATM   33  C   UNL     1     -11.542   0.903 -33.835  1.00  0.00     0.012 A 
ENDBRANCH   6  27
TORSDOF 5
ENDMDL
MODEL 5
REMARK VINA RESULT:      -8.6      2.477      3.497
REMARK  5 active torsions:
REMARK  status: ('A' for Active; 'I' for Inactive)
REMARK    1  A    between atoms: C_3  and  O_4 
REMARK    2  A    between atoms: C_6  and  N_7 
REMARK       I    between atoms: N_7  and  C_8 
REMARK    3  A    between atoms: C_8  and  C_9 
REMARK    4  A    between atoms: C_14  and  C_15 
REMARK    5  A    between atoms: C_23  and  C_24 
ROOT
HETATM    1  C   UNL     1      -4.836   4.167 -31.346  1.00  0.00     0.148 A 
HETATM    2  N   UNL     1      -3.881   4.653 -32.174  1.00  0.00    -0.165 NA
HETATM    3  N   UNL     1      -3.372   5.692 -31.484  1.00  0.00    -0.240 N 
HETATM    4  C   UNL     1      -4.017   5.948 -30.308  1.00  0.00     0.123 A 
HETATM    5  N   UNL     1      -3.690   6.998 -29.527  1.00  0.00    -0.366 N 
HETATM    6  C   UNL     1      -2.557   7.868 -29.817  1.00  0.00     0.118 C 
HETATM    7  C   UNL     1      -2.234   7.867 -31.323  1.00  0.00     0.066 C 
HETATM    8  C   UNL     1      -2.265   6.480 -31.992  1.00  0.00     0.221 C 
HETATM    9  C   UNL     1      -4.957   4.962 -30.174  1.00  0.00     0.089 A 
HETATM   10  H   UNL     1      -4.104   7.113 -28.603  1.00  0.00     0.161 HD
ENDROOT
BRANCH   1  11
HETATM   11  C   UNL     1      -5.625   2.964 -31.672  1.00  0.00     0.276 C 
HETATM   12  N   UNL     1      -5.293   2.450 -32.910  1.00  0.00    -0.322 N 
HETATM   13  H   UNL     1      -4.589   2.998 -33.399  1.00  0.00     0.169 HD
HETATM   14  O   UNL     1      -6.465   2.526 -30.896  1.00  0.00    -0.266 OA
BRANCH  12  15
HETATM   15  C   UNL     1      -5.798   1.302 -33.543  1.00  0.00     0.037 A 
HETATM   16  C   UNL     1      -5.277   0.019 -33.361  1.00  0.00     0.066 A 
HETATM   17  C   UNL     1      -5.835  -1.062 -34.042  1.00  0.00     0.067 A 
HETATM   18  C   UNL     1      -6.915  -0.892 -34.902  1.00  0.00     0.036 A 
HETATM   19  C   UNL     1      -7.442   0.384 -35.085  1.00  0.00     0.005 A 
HETATM   20  C   UNL     1      -6.884   1.476 -34.412  1.00  0.00     0.029 A 
BRANCH  17  21
HETATM   21  O   UNL     1      -5.281  -2.293 -33.841  1.00  0.00    -0.361 OA
HETATM   22  H   UNL     1      -4.378  -2.293 -34.199  1.00  0.00     0.217 HD
ENDBRANCH  17  21
ENDBRANCH  12  15
ENDBRANCH   1  11
BRANCH   8  23
HETATM   23  C   UNL     1      -0.972   5.708 -31.860  1.00  0.00     0.409 C 
HETATM   24  F   UNL     1      -0.883   4.976 -30.735  1.00  0.00    -0.169 F 
HETATM   25  F   UNL     1      -0.779   4.867 -32.905  1.00  0.00    -0.169 F 
HETATM   26  F   UNL     1       0.084   6.563 -31.866  1.00  0.00    -0.169 F 
ENDBRANCH   8  23
BRANCH   6  27
HETATM   27  C   UNL     1      -1.373   7.613 -28.898  1.00  0.00    -0.035 A 
HETATM   28  C   UNL     1      -1.469   6.850 -27.720  1.00  0.00     0.012 A 
HETATM   29  C   UNL     1      -0.361   6.665 -26.891  1.00  0.00     0.043 A 
HETATM   30  C   UNL     1       0.851   7.249 -27.226  1.00  0.00     0.116 A 
HETATM   31  F   UNL     1       1.912   7.079 -26.427  1.00  0.00    -0.206 F 
HETATM   32  C   UNL     1       0.978   8.014 -28.378  1.00  0.00     0.043 A 
HETATM   33  C   UNL     1      -0.129   8.194 -29.211  1.00  0.00     0.012 A 
ENDBRANCH   6  27
TORSDOF 5
ENDMDL
MODEL 6
REMARK VINA RESULT:      -8.4      5.988      7.346
REMARK  5 active torsions:
REMARK  status: ('A' for Active; 'I' for Inactive)
REMARK    1  A    between atoms: C_3  and  O_4 
REMARK    2  A    between atoms: C_6  and  N_7 
REMARK       I    between atoms: N_7  and  C_8 
REMARK    3  A    between atoms: C_8  and  C_9 
REMARK    4  A    between atoms: C_14  and  C_15 
REMARK    5  A    between atoms: C_23  and  C_24 
ROOT
HETATM    1  C   UNL     1      -8.960   1.107 -32.538  1.00  0.00     0.148 A 
HETATM    2  N   UNL     1     -10.171   0.836 -33.080  1.00  0.00    -0.165 NA
HETATM    3  N   UNL     1     -10.825   2.010 -32.983  1.00  0.00    -0.240 N 
HETATM    4  C   UNL     1     -10.127   2.981 -32.323  1.00  0.00     0.123 A 
HETATM    5  N   UNL     1     -10.659   4.195 -32.067  1.00  0.00    -0.366 N 
HETATM    6  C   UNL     1     -11.965   4.600 -32.571  1.00  0.00     0.118 C 
HETATM    7  C   UNL     1     -12.865   3.374 -32.816  1.00  0.00     0.066 C 
HETATM    8  C   UNL     1     -12.168   2.184 -33.502  1.00  0.00     0.221 C 
HETATM    9  C   UNL     1      -8.903   2.438 -32.042  1.00  0.00     0.089 A 
HETATM   10  H   UNL     1     -10.090   4.943 -31.674  1.00  0.00     0.161 HD
ENDROOT
BRANCH   1  11
HETATM   11  C   UNL     1      -7.876   0.108 -32.489  1.00  0.00     0.276 C 
HETATM   12  N   UNL     1      -7.766  -0.589 -33.676  1.00  0.00    -0.322 N 
HETATM   13  H   UNL     1      -8.462  -0.322 -34.368  1.00  0.00     0.169 HD
HETATM   14  O   UNL     1      -7.194  -0.041 -31.483  1.00  0.00    -0.266 OA
BRANCH  12  15
HETATM   15  C   UNL     1      -6.835  -1.585 -34.020  1.00  0.00     0.037 A 
HETATM   16  C   UNL     1      -7.188  -2.847 -34.504  1.00  0.00     0.066 A 
HETATM   17  C   UNL     1      -6.196  -3.779 -34.805  1.00  0.00     0.067 A 
HETATM   18  C   UNL     1      -4.848  -3.475 -34.642  1.00  0.00     0.036 A 
HETATM   19  C   UNL     1      -4.490  -2.217 -34.163  1.00  0.00     0.005 A 
HETATM   20  C   UNL     1      -5.478  -1.279 -33.850  1.00  0.00     0.029 A 
BRANCH  17  21
HETATM   21  O   UNL     1      -6.592  -5.003 -35.262  1.00  0.00    -0.361 OA
HETATM   22  H   UNL     1      -7.543  -5.106 -35.097  1.00  0.00     0.217 HD
ENDBRANCH  17  21
ENDBRANCH  12  15
ENDBRANCH   1  11
BRANCH   8  23
HETATM   23  C   UNL     1     -12.135   2.282 -35.011  1.00  0.00     0.409 C 
HETATM   24  F   UNL     1     -12.239   1.097 -35.639  1.00  0.00    -0.169 F 
HETATM   25  F   UNL     1     -13.122   3.079 -35.485  1.00  0.00    -0.169 F 
HETATM   26  F   UNL     1     -10.968   2.848 -35.415  1.00  0.00    -0.169 F 
ENDBRANCH   8  23
BRANCH   6  27
HETATM   27  C   UNL     1     -11.868   5.578 -33.731  1.00  0.00    -0.035 A 
HETATM   28  C   UNL     1     -12.996   6.158 -34.339  1.00  0.00     0.012 A 
HETATM   29  C   UNL     1     -12.861   7.030 -35.421  1.00  0.00     0.043 A 
HETATM   30  C   UNL     1     -11.597   7.323 -35.912  1.00  0.00     0.116 A 
HETATM   31  F   UNL     1     -11.468   8.153 -36.955  1.00  0.00    -0.206 F 
HETATM   32  C   UNL     1     -10.465   6.762 -35.339  1.00  0.00     0.043 A 
HETATM   33  C   UNL     1     -10.598   5.894 -34.252  1.00  0.00     0.012 A 
ENDBRANCH   6  27
TORSDOF 5
ENDMDL
MODEL 7
REMARK VINA RESULT:      -8.4      1.820      2.477
REMARK  5 active torsions:
REMARK  status: ('A' for Active; 'I' for Inactive)
REMARK    1  A    between atoms: C_3  and  O_4 
REMARK    2  A    between atoms: C_6  and  N_7 
REMARK       I    between atoms: N_7  and  C_8 
REMARK    3  A    between atoms: C_8  and  C_9 
REMARK    4  A    between atoms: C_14  and  C_15 
REMARK    5  A    between atoms: C_23  and  C_24 
ROOT
HETATM    1  C   UNL     1      -5.809   1.201 -33.047  1.00  0.00     0.148 A 
HETATM    2  N   UNL     1      -6.721   2.199 -33.123  1.00  0.00    -0.165 NA
HETATM    3  N   UNL     1      -6.244   3.121 -32.264  1.00  0.00    -0.240 N 
HETATM    4  C   UNL     1      -5.132   2.721 -31.580  1.00  0.00     0.123 A 
HETATM    5  N   UNL     1      -4.566   3.487 -30.625  1.00  0.00    -0.366 N 
HETATM    6  C   UNL     1      -5.024   4.839 -30.331  1.00  0.00     0.118 C 
HETATM    7  C   UNL     1      -6.505   5.014 -30.715  1.00  0.00     0.066 C 
HETATM    8  C   UNL     1      -6.901   4.400 -32.072  1.00  0.00     0.221 C 
HETATM    9  C   UNL     1      -4.807   1.489 -32.081  1.00  0.00     0.089 A 
HETATM   10  H   UNL     1      -3.677   3.225 -30.202  1.00  0.00     0.161 HD
ENDROOT
BRANCH   1  11
HETATM   11  C   UNL     1      -5.896  -0.013 -33.882  1.00  0.00     0.276 C 
HETATM   12  N   UNL     1      -5.256  -1.087 -33.296  1.00  0.00    -0.322 N 
HETATM   13  H   UNL     1      -4.811  -0.858 -32.411  1.00  0.00     0.169 HD
HETATM   14  O   UNL     1      -6.476  -0.001 -34.960  1.00  0.00    -0.266 OA
BRANCH  12  15
HETATM   15  C   UNL     1      -5.158  -2.407 -33.768  1.00  0.00     0.037 A 
HETATM   16  C   UNL     1      -6.173  -3.062 -34.470  1.00  0.00     0.066 A 
HETATM   17  C   UNL     1      -5.993  -4.379 -34.888  1.00  0.00     0.067 A 
HETATM   18  C   UNL     1      -4.809  -5.062 -34.627  1.00  0.00     0.036 A 
HETATM   19  C   UNL     1      -3.791  -4.414 -33.931  1.00  0.00     0.005 A 
HETATM   20  C   UNL     1      -3.967  -3.095 -33.500  1.00  0.00     0.029 A 
BRANCH  17  21
HETATM   21  O   UNL     1      -7.019  -4.979 -35.557  1.00  0.00    -0.361 OA
HETATM   22  H   UNL     1      -7.316  -5.751 -35.049  1.00  0.00     0.217 HD
ENDBRANCH  17  21
ENDBRANCH  12  15
ENDBRANCH   1  11
BRANCH   8  23
HETATM   23  C   UNL     1      -6.636   5.305 -33.253  1.00  0.00     0.409 C 
HETATM   24  F   UNL     1      -6.671   6.617 -32.958  1.00  0.00    -0.169 F 
HETATM   25  F   UNL     1      -5.434   5.051 -33.823  1.00  0.00    -0.169 F 
HETATM   26  F   UNL     1      -7.563   5.088 -34.223  1.00  0.00    -0.169 F 
ENDBRANCH   8  23
BRANCH   6  27
HETATM   27  C   UNL     1      -4.083   5.906 -30.868  1.00  0.00    -0.035 A 
HETATM   28  C   UNL     1      -2.848   5.604 -31.470  1.00  0.00     0.012 A 
HETATM   29  C   UNL     1      -2.002   6.618 -31.925  1.00  0.00     0.043 A 
HETATM   30  C   UNL     1      -2.380   7.944 -31.773  1.00  0.00     0.116 A 
HETATM   31  F   UNL     1      -1.566   8.918 -32.202  1.00  0.00    -0.206 F 
HETATM   32  C   UNL     1      -3.589   8.276 -31.178  1.00  0.00     0.043 A 
HETATM   33  C   UNL     1      -4.438   7.262 -30.728  1.00  0.00     0.012 A 
ENDBRANCH   6  27
TORSDOF 5
ENDMDL
MODEL 8
REMARK VINA RESULT:      -8.4      5.873      7.812
REMARK  5 active torsions:
REMARK  status: ('A' for Active; 'I' for Inactive)
REMARK    1  A    between atoms: C_3  and  O_4 
REMARK    2  A    between atoms: C_6  and  N_7 
REMARK       I    between atoms: N_7  and  C_8 
REMARK    3  A    between atoms: C_8  and  C_9 
REMARK    4  A    between atoms: C_14  and  C_15 
REMARK    5  A    between atoms: C_23  and  C_24 
ROOT
HETATM    1  C   UNL     1      -9.174   0.656 -33.472  1.00  0.00     0.148 A 
HETATM    2  N   UNL     1      -9.131   1.743 -34.278  1.00  0.00    -0.165 NA
HETATM    3  N   UNL     1     -10.390   2.220 -34.225  1.00  0.00    -0.240 N 
HETATM    4  C   UNL     1     -11.249   1.440 -33.504  1.00  0.00     0.123 A 
HETATM    5  N   UNL     1     -12.564   1.726 -33.409  1.00  0.00    -0.366 N 
HETATM    6  C   UNL     1     -13.145   2.940 -33.966  1.00  0.00     0.118 C 
HETATM    7  C   UNL     1     -12.303   3.462 -35.146  1.00  0.00     0.066 C 
HETATM    8  C   UNL     1     -10.779   3.433 -34.918  1.00  0.00     0.221 C 
HETATM    9  C   UNL     1     -10.488   0.430 -32.980  1.00  0.00     0.089 A 
HETATM   10  H   UNL     1     -13.169   1.200 -32.781  1.00  0.00     0.161 HD
ENDROOT
BRANCH   1  11
HETATM   11  C   UNL     1      -7.978  -0.157 -33.179  1.00  0.00     0.276 C 
HETATM   12  N   UNL     1      -7.682  -1.027 -34.209  1.00  0.00    -0.322 N 
HETATM   13  H   UNL     1      -8.348  -0.984 -34.977  1.00  0.00     0.169 HD
HETATM   14  O   UNL     1      -7.368  -0.031 -32.124  1.00  0.00    -0.266 OA
BRANCH  12  15
HETATM   15  C   UNL     1      -6.607  -1.926 -34.310  1.00  0.00     0.037 A 
HETATM   16  C   UNL     1      -6.736  -3.250 -34.738  1.00  0.00     0.066 A 
HETATM   17  C   UNL     1      -5.614  -4.076 -34.792  1.00  0.00     0.067 A 
HETATM   18  C   UNL     1      -4.355  -3.605 -34.435  1.00  0.00     0.036 A 
HETATM   19  C   UNL     1      -4.219  -2.285 -34.012  1.00  0.00     0.005 A 
HETATM   20  C   UNL     1      -5.340  -1.452 -33.945  1.00  0.00     0.029 A 
BRANCH  17  21
HETATM   21  O   UNL     1      -5.795  -5.365 -35.203  1.00  0.00    -0.361 OA
HETATM   22  H   UNL     1      -5.800  -5.944 -34.425  1.00  0.00     0.217 HD
ENDBRANCH  17  21
ENDBRANCH  12  15
ENDBRANCH   1  11
BRANCH   8  23
HETATM   23  C   UNL     1     -10.247   4.645 -34.188  1.00  0.00     0.409 C 
HETATM   24  F   UNL     1     -10.222   4.511 -32.850  1.00  0.00    -0.169 F 
HETATM   25  F   UNL     1      -8.991   4.960 -34.587  1.00  0.00    -0.169 F 
HETATM   26  F   UNL     1     -11.013   5.731 -34.468  1.00  0.00    -0.169 F 
ENDBRANCH   8  23
BRANCH   6  27
HETATM   27  C   UNL     1     -13.481   3.972 -32.901  1.00  0.00    -0.035 A 
HETATM   28  C   UNL     1     -13.922   5.272 -33.207  1.00  0.00     0.012 A 
HETATM   29  C   UNL     1     -14.192   6.196 -32.196  1.00  0.00     0.043 A 
HETATM   30  C   UNL     1     -14.015   5.832 -30.869  1.00  0.00     0.116 A 
HETATM   31  F   UNL     1     -14.266   6.721 -29.899  1.00  0.00    -0.206 F 
HETATM   32  C   UNL     1     -13.574   4.560 -30.534  1.00  0.00     0.043 A 
HETATM   33  C   UNL     1     -13.309   3.632 -31.544  1.00  0.00     0.012 A 
ENDBRANCH   6  27
TORSDOF 5
ENDMDL
MODEL 9
REMARK VINA RESULT:      -8.4      2.255      3.453
REMARK  5 active torsions:
REMARK  status: ('A' for Active; 'I' for Inactive)
REMARK    1  A    between atoms: C_3  and  O_4 
REMARK    2  A    between atoms: C_6  and  N_7 
REMARK       I    between atoms: N_7  and  C_8 
REMARK    3  A    between atoms: C_8  and  C_9 
REMARK    4  A    between atoms: C_14  and  C_15 
REMARK    5  A    between atoms: C_23  and  C_24 
ROOT
HETATM    1  C   UNL     1      -5.751   1.278 -32.786  1.00  0.00     0.148 A 
HETATM    2  N   UNL     1      -4.582   1.960 -32.813  1.00  0.00    -0.165 NA
HETATM    3  N   UNL     1      -4.974   3.248 -32.859  1.00  0.00    -0.240 N 
HETATM    4  C   UNL     1      -6.326   3.413 -32.959  1.00  0.00     0.123 A 
HETATM    5  N   UNL     1      -6.890   4.632 -33.094  1.00  0.00    -0.366 N 
HETATM    6  C   UNL     1      -6.116   5.865 -33.027  1.00  0.00     0.118 C 
HETATM    7  C   UNL     1      -4.651   5.618 -33.436  1.00  0.00     0.066 C 
HETATM    8  C   UNL     1      -4.020   4.341 -32.848  1.00  0.00     0.221 C 
HETATM    9  C   UNL     1      -6.863   2.156 -32.889  1.00  0.00     0.089 A 
HETATM   10  H   UNL     1      -7.901   4.748 -33.056  1.00  0.00     0.161 HD
ENDROOT
BRANCH   1  11
HETATM   11  C   UNL     1      -5.804  -0.192 -32.669  1.00  0.00     0.276 C 
HETATM   12  N   UNL     1      -5.581  -0.813 -33.882  1.00  0.00    -0.322 N 
HETATM   13  H   UNL     1      -5.449  -0.162 -34.651  1.00  0.00     0.169 HD
HETATM   14  O   UNL     1      -6.029  -0.735 -31.594  1.00  0.00    -0.266 OA
BRANCH  12  15
HETATM   15  C   UNL     1      -5.519  -2.190 -34.158  1.00  0.00     0.037 A 
HETATM   16  C   UNL     1      -4.375  -2.970 -33.978  1.00  0.00     0.066 A 
HETATM   17  C   UNL     1      -4.400  -4.328 -34.294  1.00  0.00     0.067 A 
HETATM   18  C   UNL     1      -5.556  -4.932 -34.780  1.00  0.00     0.036 A 
HETATM   19  C   UNL     1      -6.702  -4.161 -34.958  1.00  0.00     0.005 A 
HETATM   20  C   UNL     1      -6.682  -2.796 -34.652  1.00  0.00     0.029 A 
BRANCH  17  21
HETATM   21  O   UNL     1      -3.253  -5.043 -34.114  1.00  0.00    -0.361 OA
HETATM   22  H   UNL     1      -2.494  -4.442 -34.188  1.00  0.00     0.217 HD
ENDBRANCH  17  21
ENDBRANCH  12  15
ENDBRANCH   1  11
BRANCH   8  23
HETATM   23  C   UNL     1      -3.452   4.523 -31.459  1.00  0.00     0.409 C 
HETATM   24  F   UNL     1      -2.391   3.739 -31.194  1.00  0.00    -0.169 F 
HETATM   25  F   UNL     1      -3.075   5.804 -31.233  1.00  0.00    -0.169 F 
HETATM   26  F   UNL     1      -4.400   4.241 -30.527  1.00  0.00    -0.169 F 
ENDBRANCH   8  23
BRANCH   6  27
HETATM   27  C   UNL     1      -6.308   6.608 -31.715  1.00  0.00    -0.035 A 
HETATM   28  C   UNL     1      -5.621   7.794 -31.400  1.00  0.00     0.012 A 
HETATM   29  C   UNL     1      -5.808   8.428 -30.170  1.00  0.00     0.043 A 
HETATM   30  C   UNL     1      -6.677   7.877 -29.240  1.00  0.00     0.116 A 
HETATM   31  F   UNL     1      -6.851   8.481 -28.057  1.00  0.00    -0.206 F 
HETATM   32  C   UNL     1      -7.365   6.705 -29.518  1.00  0.00     0.043 A 
HETATM   33  C   UNL     1      -7.184   6.073 -30.750  1.00  0.00     0.012 A 
ENDBRANCH   6  27
TORSDOF 5
ENDMDL
MODEL 10
REMARK VINA RESULT:      -8.3      5.860      8.447
REMARK  5 active torsions:
REMARK  status: ('A' for Active; 'I' for Inactive)
REMARK    1  A    between atoms: C_3  and  O_4 
REMARK    2  A    between atoms: C_6  and  N_7 
REMARK       I    between atoms: N_7  and  C_8 
REMARK    3  A    between atoms: C_8  and  C_9 
REMARK    4  A    between atoms: C_14  and  C_15 
REMARK    5  A    between atoms: C_23  and  C_24 
ROOT
HETATM    1  C   UNL     1     -10.246   2.727 -32.409  1.00  0.00     0.148 A 
HETATM    2  N   UNL     1      -9.093   3.423 -32.551  1.00  0.00    -0.165 NA
HETATM    3  N   UNL     1      -8.154   2.561 -32.114  1.00  0.00    -0.240 N 
HETATM    4  C   UNL     1      -8.660   1.395 -31.616  1.00  0.00     0.123 A 
HETATM    5  N   UNL     1      -7.869   0.450 -31.066  1.00  0.00    -0.366 N 
HETATM    6  C   UNL     1      -6.414   0.548 -31.065  1.00  0.00     0.118 C 
HETATM    7  C   UNL     1      -5.963   2.019 -31.137  1.00  0.00     0.066 C 
HETATM    8  C   UNL     1      -6.741   2.888 -32.143  1.00  0.00     0.221 C 
HETATM    9  C   UNL     1     -10.012   1.458 -31.814  1.00  0.00     0.089 A 
HETATM   10  H   UNL     1      -8.246  -0.458 -30.799  1.00  0.00     0.161 HD
ENDROOT
BRANCH   1  11
HETATM   11  C   UNL     1     -11.552   3.269 -32.830  1.00  0.00     0.276 C 
HETATM   12  N   UNL     1     -12.547   2.982 -31.917  1.00  0.00    -0.322 N 
HETATM   13  H   UNL     1     -12.224   2.425 -31.130  1.00  0.00     0.169 HD
HETATM   14  O   UNL     1     -11.673   3.887 -33.881  1.00  0.00    -0.266 OA
BRANCH  12  15
HETATM   15  C   UNL     1     -13.900   3.359 -31.954  1.00  0.00     0.037 A 
HETATM   16  C   UNL     1     -14.925   2.541 -32.434  1.00  0.00     0.066 A 
HETATM   17  C   UNL     1     -16.239   3.005 -32.446  1.00  0.00     0.067 A 
HETATM   18  C   UNL     1     -16.558   4.276 -31.978  1.00  0.00     0.036 A 
HETATM   19  C   UNL     1     -15.542   5.096 -31.495  1.00  0.00     0.005 A 
HETATM   20  C   UNL     1     -14.219   4.642 -31.487  1.00  0.00     0.029 A 
BRANCH  17  21
HETATM   21  O   UNL     1     -17.202   2.172 -32.937  1.00  0.00    -0.361 OA
HETATM   22  H   UNL     1     -17.671   2.625 -33.656  1.00  0.00     0.217 HD
ENDBRANCH  17  21
ENDBRANCH  12  15
ENDBRANCH   1  11
BRANCH   8  23
HETATM   23  C   UNL     1      -6.215   2.807 -33.558  1.00  0.00     0.409 C 
HETATM   24  F   UNL     1      -4.923   2.442 -33.642  1.00  0.00    -0.169 F 
HETATM   25  F   UNL     1      -6.930   1.937 -34.311  1.00  0.00    -0.169 F 
HETATM   26  F   UNL     1      -6.331   4.015 -34.168  1.00  0.00    -0.169 F 
ENDBRANCH   8  23
BRANCH   6  27
HETATM   27  C   UNL     1      -5.764  -0.382 -32.076  1.00  0.00    -0.035 A 
HETATM   28  C   UNL     1      -4.381  -0.637 -32.101  1.00  0.00     0.012 A 
HETATM   29  C   UNL     1      -3.822  -1.478 -33.066  1.00  0.00     0.043 A 
HETATM   30  C   UNL     1      -4.640  -2.064 -34.021  1.00  0.00     0.116 A 
HETATM   31  F   UNL     1      -4.104  -2.864 -34.952  1.00  0.00    -0.206 F 
HETATM   32  C   UNL     1      -6.008  -1.828 -34.027  1.00  0.00     0.043 A 
HETATM   33  C   UNL     1      -6.568  -0.992 -33.059  1.00  0.00     0.012 A 
ENDBRANCH   6  27
TORSDOF 5
ENDMDL
