MODEL 1
REMARK VINA RESULT:      -8.7      0.000      0.000
REMARK  11 active torsions:
REMARK  status: ('A' for Active; 'I' for Inactive)
REMARK    1  A    between atoms: C_4  and  C_5 
REMARK    2  A    between atoms: C_5  and  N_6 
REMARK    3  A    between atoms: C_7  and  S_8 
REMARK    4  A    between atoms: C_9  and  C_10 
REMARK       I    between atoms: C_10  and  N_11 
REMARK    5  A    between atoms: N_11  and  C_12 
REMARK    6  A    between atoms: C_15  and  O_16 
REMARK    7  A    between atoms: O_16  and  C_17 
REMARK    8  A    between atoms: C_27  and  C_28 
REMARK       I    between atoms: C_28  and  N_29 
REMARK    9  A    between atoms: N_29  and  C_30 
REMARK   10  A    between atoms: C_30  and  C_31 
REMARK   11  A    between atoms: C_31  and  O_32 
ROOT
HETATM    1  N   UNL     1      -5.970   1.741 -33.682  1.00  0.00    -0.321 N 
HETATM    2  C   UNL     1      -5.720   3.035 -33.184  1.00  0.00     0.104 A 
HETATM    3  C   UNL     1      -4.691   2.952 -32.242  1.00  0.00     0.142 A 
HETATM    4  N   UNL     1      -4.382   1.587 -32.218  1.00  0.00    -0.301 N 
HETATM    5  C   UNL     1      -5.125   0.899 -33.078  1.00  0.00     0.116 A 
HETATM    6  C   UNL     1      -3.334   0.924 -31.393  1.00  0.00     0.100 A 
HETATM    7  C   UNL     1      -3.201  -0.448 -31.582  1.00  0.00     0.035 A 
HETATM    8  C   UNL     1      -4.013  -1.133 -32.491  1.00  0.00     0.036 A 
HETATM    9  C   UNL     1      -4.981  -0.468 -33.248  1.00  0.00     0.066 A 
ENDROOT
BRANCH   3  10
HETATM   10  C   UNL     1      -4.039   3.963 -31.413  1.00  0.00     0.276 C 
HETATM   11  N   UNL     1      -2.778   4.320 -31.870  1.00  0.00    -0.322 N 
HETATM   12  H   UNL     1      -2.436   3.909 -32.732  1.00  0.00     0.169 HD
HETATM   13  O   UNL     1      -4.536   4.430 -30.389  1.00  0.00    -0.266 OA
BRANCH  11  14
HETATM   14  C   UNL     1      -1.870   5.235 -31.286  1.00  0.00     0.035 A 
HETATM   15  C   UNL     1      -2.114   6.597 -31.115  1.00  0.00     0.032 A 
HETATM   16  C   UNL     1      -1.148   7.419 -30.521  1.00  0.00     0.039 A 
HETATM   17  C   UNL     1       0.076   6.902 -30.090  1.00  0.00     0.075 A 
HETATM   18  C   UNL     1       0.321   5.543 -30.257  1.00  0.00     0.039 A 
HETATM   19  C   UNL     1      -0.644   4.717 -30.848  1.00  0.00     0.032 A 
BRANCH  17  20
HETATM   20  O   UNL     1       0.919   7.819 -29.535  1.00  0.00    -0.290 OA
BRANCH  20  21
HETATM   21  C   UNL     1       0.968   7.921 -28.117  1.00  0.00     0.505 C 
HETATM   22  F   UNL     1       1.319   6.726 -27.583  1.00  0.00    -0.184 F 
HETATM   23  F   UNL     1       1.899   8.836 -27.752  1.00  0.00    -0.184 F 
ENDBRANCH  20  21
ENDBRANCH  17  20
ENDBRANCH  11  14
ENDBRANCH   3  10
BRANCH   2  24
HETATM   24  S   UNL     1      -6.581   4.495 -33.660  1.00  0.00    -0.123 SA
HETATM   25  H   UNL     1      -5.859   4.903 -34.712  1.00  0.00     0.108 HD
ENDBRANCH   2  24
BRANCH   1  26
HETATM   26  C   UNL     1      -6.960   1.342 -34.693  1.00  0.00     0.177 C 
BRANCH  26  27
HETATM   27  C   UNL     1      -8.267   1.037 -34.030  1.00  0.00     0.001 A 
HETATM   28  S   UNL     1      -9.594   2.114 -34.187  1.00  0.00    -0.105 SA
HETATM   29  C   UNL     1     -10.605   1.116 -33.239  1.00  0.00     0.050 A 
HETATM   30  C   UNL     1      -9.946  -0.007 -32.791  1.00  0.00     0.008 A 
HETATM   31  C   UNL     1      -8.595  -0.049 -33.239  1.00  0.00     0.017 A 
ENDBRANCH  26  27
ENDBRANCH   1  26
BRANCH   8  32
HETATM   32  C   UNL     1      -3.842  -2.579 -32.760  1.00  0.00     0.251 C 
HETATM   33  N   UNL     1      -4.467  -3.098 -33.866  1.00  0.00    -0.355 N 
HETATM   34  H   UNL     1      -4.945  -2.498 -34.524  1.00  0.00     0.162 HD
HETATM   35  O   UNL     1      -3.120  -3.231 -32.014  1.00  0.00    -0.268 OA
BRANCH  33  36
HETATM   36  C   UNL     1      -4.415  -4.523 -34.195  1.00  0.00     0.148 C 
BRANCH  36  37
HETATM   37  C   UNL     1      -5.491  -4.967 -35.194  1.00  0.00     0.183 C 
BRANCH  37  38
HETATM   38  O   UNL     1      -6.804  -4.854 -34.655  1.00  0.00    -0.399 OA
HETATM   39  H   UNL     1      -7.386  -4.495 -35.358  1.00  0.00     0.209 HD
ENDBRANCH  37  38
ENDBRANCH  36  37
ENDBRANCH  33  36
ENDBRANCH   8  32
TORSDOF 11
ENDMDL
MODEL 2
REMARK VINA RESULT:      -8.4      5.997      9.764
REMARK  11 active torsions:
REMARK  status: ('A' for Active; 'I' for Inactive)
REMARK    1  A    between atoms: C_4  and  C_5 
REMARK    2  A    between atoms: C_5  and  N_6 
REMARK    3  A    between atoms: C_7  and  S_8 
REMARK    4  A    between atoms: C_9  and  C_10 
REMARK       I    between atoms: C_10  and  N_11 
REMARK    5  A    between atoms: N_11  and  C_12 
REMARK    6  A    between atoms: C_15  and  O_16 
REMARK    7  A    between atoms: O_16  and  C_17 
REMARK    8  A    between atoms: C_27  and  C_28 
REMARK       I    between atoms: C_28  and  N_29 
REMARK    9  A    between atoms: N_29  and  C_30 
REMARK   10  A    between atoms: C_30  and  C_31 
REMARK   11  A    between atoms: C_31  and  O_32 
ROOT
HETATM    1  N   UNL     1      -6.626   2.987 -32.461  1.00  0.00    -0.321 N 
HETATM    2  C   UNL     1      -7.905   3.567 -32.579  1.00  0.00     0.104 A 
HETATM    3  C   UNL     1      -8.723   2.686 -33.289  1.00  0.00     0.142 A 
HETATM    4  N   UNL     1      -7.874   1.610 -33.572  1.00  0.00    -0.301 N 
HETATM    5  C   UNL     1      -6.660   1.794 -33.066  1.00  0.00     0.116 A 
HETATM    6  C   UNL     1      -8.229   0.362 -34.304  1.00  0.00     0.100 A 
HETATM    7  C   UNL     1      -7.207  -0.575 -34.423  1.00  0.00     0.035 A 
HETATM    8  C   UNL     1      -5.941  -0.333 -33.882  1.00  0.00     0.036 A 
HETATM    9  C   UNL     1      -5.654   0.852 -33.198  1.00  0.00     0.066 A 
ENDROOT
BRANCH   3  10
HETATM   10  C   UNL     1     -10.120   2.770 -33.708  1.00  0.00     0.276 C 
HETATM   11  N   UNL     1     -11.011   2.287 -32.758  1.00  0.00    -0.322 N 
HETATM   12  H   UNL     1     -10.648   1.971 -31.865  1.00  0.00     0.169 HD
HETATM   13  O   UNL     1     -10.479   3.191 -34.807  1.00  0.00    -0.266 OA
BRANCH  11  14
HETATM   14  C   UNL     1     -12.419   2.191 -32.858  1.00  0.00     0.035 A 
HETATM   15  C   UNL     1     -13.318   3.129 -32.353  1.00  0.00     0.032 A 
HETATM   16  C   UNL     1     -14.697   2.941 -32.508  1.00  0.00     0.039 A 
HETATM   17  C   UNL     1     -15.205   1.818 -33.164  1.00  0.00     0.075 A 
HETATM   18  C   UNL     1     -14.310   0.881 -33.671  1.00  0.00     0.039 A 
HETATM   19  C   UNL     1     -12.930   1.067 -33.520  1.00  0.00     0.032 A 
BRANCH  17  20
HETATM   20  O   UNL     1     -16.566   1.766 -33.236  1.00  0.00    -0.290 OA
BRANCH  20  21
HETATM   21  C   UNL     1     -17.317   2.765 -32.558  1.00  0.00     0.505 C 
HETATM   22  F   UNL     1     -18.419   3.081 -33.280  1.00  0.00    -0.184 F 
HETATM   23  F   UNL     1     -17.723   2.298 -31.352  1.00  0.00    -0.184 F 
ENDBRANCH  20  21
ENDBRANCH  17  20
ENDBRANCH  11  14
ENDBRANCH   3  10
BRANCH   2  24
HETATM   24  S   UNL     1      -8.369   5.146 -31.952  1.00  0.00    -0.123 SA
HETATM   25  H   UNL     1      -8.678   4.851 -30.683  1.00  0.00     0.108 HD
ENDBRANCH   2  24
BRANCH   1  26
HETATM   26  C   UNL     1      -5.442   3.545 -31.792  1.00  0.00     0.177 C 
BRANCH  26  27
HETATM   27  C   UNL     1      -4.492   4.089 -32.812  1.00  0.00     0.001 A 
HETATM   28  S   UNL     1      -5.055   5.119 -34.064  1.00  0.00    -0.105 SA
HETATM   29  C   UNL     1      -3.488   5.291 -34.722  1.00  0.00     0.050 A 
HETATM   30  C   UNL     1      -2.553   4.566 -34.019  1.00  0.00     0.008 A 
HETATM   31  C   UNL     1      -3.132   3.864 -32.923  1.00  0.00     0.017 A 
ENDBRANCH  26  27
ENDBRANCH   1  26
BRANCH   8  32
HETATM   32  C   UNL     1      -4.860  -1.344 -33.934  1.00  0.00     0.251 C 
HETATM   33  N   UNL     1      -5.199  -2.618 -34.317  1.00  0.00    -0.355 N 
HETATM   34  H   UNL     1      -6.131  -2.833 -34.644  1.00  0.00     0.162 HD
HETATM   35  O   UNL     1      -3.715  -0.989 -33.677  1.00  0.00    -0.268 OA
BRANCH  33  36
HETATM   36  C   UNL     1      -4.224  -3.709 -34.347  1.00  0.00     0.148 C 
BRANCH  36  37
HETATM   37  C   UNL     1      -4.859  -5.105 -34.366  1.00  0.00     0.183 C 
BRANCH  37  38
HETATM   38  O   UNL     1      -6.043  -5.147 -35.156  1.00  0.00    -0.399 OA
HETATM   39  H   UNL     1      -5.810  -5.540 -36.023  1.00  0.00     0.209 HD
ENDBRANCH  37  38
ENDBRANCH  36  37
ENDBRANCH  33  36
ENDBRANCH   8  32
TORSDOF 11
ENDMDL
MODEL 3
REMARK VINA RESULT:      -8.2      2.843      4.770
REMARK  11 active torsions:
REMARK  status: ('A' for Active; 'I' for Inactive)
REMARK    1  A    between atoms: C_4  and  C_5 
REMARK    2  A    between atoms: C_5  and  N_6 
REMARK    3  A    between atoms: C_7  and  S_8 
REMARK    4  A    between atoms: C_9  and  C_10 
REMARK       I    between atoms: C_10  and  N_11 
REMARK    5  A    between atoms: N_11  and  C_12 
REMARK    6  A    between atoms: C_15  and  O_16 
REMARK    7  A    between atoms: O_16  and  C_17 
REMARK    8  A    between atoms: C_27  and  C_28 
REMARK       I    between atoms: C_28  and  N_29 
REMARK    9  A    between atoms: N_29  and  C_30 
REMARK   10  A    between atoms: C_30  and  C_31 
REMARK   11  A    between atoms: C_31  and  O_32 
ROOT
HETATM    1  N   UNL     1      -5.744   0.944 -32.199  1.00  0.00    -0.321 N 
HETATM    2  C   UNL     1      -4.433   1.376 -31.912  1.00  0.00     0.104 A 
HETATM    3  C   UNL     1      -4.306   2.702 -32.331  1.00  0.00     0.142 A 
HETATM    4  N   UNL     1      -5.565   2.997 -32.865  1.00  0.00    -0.301 N 
HETATM    5  C   UNL     1      -6.397   1.966 -32.763  1.00  0.00     0.116 A 
HETATM    6  C   UNL     1      -6.005   4.294 -33.450  1.00  0.00     0.100 A 
HETATM    7  C   UNL     1      -7.328   4.340 -33.882  1.00  0.00     0.035 A 
HETATM    8  C   UNL     1      -8.163   3.226 -33.763  1.00  0.00     0.036 A 
HETATM    9  C   UNL     1      -7.709   2.029 -33.203  1.00  0.00     0.066 A 
ENDROOT
BRANCH   3  10
HETATM   10  C   UNL     1      -3.184   3.637 -32.293  1.00  0.00     0.276 C 
HETATM   11  N   UNL     1      -2.970   4.191 -31.038  1.00  0.00    -0.322 N 
HETATM   12  H   UNL     1      -3.550   3.885 -30.264  1.00  0.00     0.169 HD
HETATM   13  O   UNL     1      -2.512   3.937 -33.279  1.00  0.00    -0.266 OA
BRANCH  11  14
HETATM   14  C   UNL     1      -1.999   5.151 -30.667  1.00  0.00     0.035 A 
HETATM   15  C   UNL     1      -2.286   6.439 -30.217  1.00  0.00     0.032 A 
HETATM   16  C   UNL     1      -1.248   7.314 -29.870  1.00  0.00     0.039 A 
HETATM   17  C   UNL     1       0.089   6.924 -29.968  1.00  0.00     0.075 A 
HETATM   18  C   UNL     1       0.379   5.639 -30.415  1.00  0.00     0.039 A 
HETATM   19  C   UNL     1      -0.657   4.760 -30.759  1.00  0.00     0.032 A 
BRANCH  17  20
HETATM   20  O   UNL     1       0.990   7.881 -29.601  1.00  0.00    -0.290 OA
BRANCH  20  21
HETATM   21  C   UNL     1       1.134   8.179 -28.218  1.00  0.00     0.505 C 
HETATM   22  F   UNL     1       1.357   7.037 -27.523  1.00  0.00    -0.184 F 
HETATM   23  F   UNL     1       2.194   9.001 -28.031  1.00  0.00    -0.184 F 
ENDBRANCH  20  21
ENDBRANCH  17  20
ENDBRANCH  11  14
ENDBRANCH   3  10
BRANCH   2  24
HETATM   24  S   UNL     1      -3.175   0.391 -31.172  1.00  0.00    -0.123 SA
HETATM   25  H   UNL     1      -3.698  -0.837 -31.276  1.00  0.00     0.108 HD
ENDBRANCH   2  24
BRANCH   1  26
HETATM   26  C   UNL     1      -6.335  -0.375 -31.933  1.00  0.00     0.177 C 
BRANCH  26  27
HETATM   27  C   UNL     1      -6.199  -1.246 -33.143  1.00  0.00     0.001 A 
HETATM   28  S   UNL     1      -4.682  -1.939 -33.549  1.00  0.00    -0.105 SA
HETATM   29  C   UNL     1      -5.332  -2.727 -34.918  1.00  0.00     0.050 A 
HETATM   30  C   UNL     1      -6.672  -2.456 -35.081  1.00  0.00     0.008 A 
HETATM   31  C   UNL     1      -7.171  -1.594 -34.062  1.00  0.00     0.017 A 
ENDBRANCH  26  27
ENDBRANCH   1  26
BRANCH   8  32
HETATM   32  C   UNL     1      -9.592   3.273 -34.150  1.00  0.00     0.251 C 
HETATM   33  N   UNL     1     -10.196   2.091 -34.498  1.00  0.00    -0.355 N 
HETATM   34  H   UNL     1      -9.711   1.210 -34.399  1.00  0.00     0.162 HD
HETATM   35  O   UNL     1     -10.176   4.350 -34.100  1.00  0.00    -0.268 OA
BRANCH  33  36
HETATM   36  C   UNL     1     -11.586   2.029 -34.952  1.00  0.00     0.148 C 
BRANCH  36  37
HETATM   37  C   UNL     1     -12.459   1.061 -34.142  1.00  0.00     0.183 C 
BRANCH  37  38
HETATM   38  O   UNL     1     -11.699   0.314 -33.197  1.00  0.00    -0.399 OA
HETATM   39  H   UNL     1     -10.970  -0.127 -33.682  1.00  0.00     0.209 HD
ENDBRANCH  37  38
ENDBRANCH  36  37
ENDBRANCH  33  36
ENDBRANCH   8  32
TORSDOF 11
ENDMDL
MODEL 4
REMARK VINA RESULT:      -7.9      4.760     10.234
REMARK  11 active torsions:
REMARK  status: ('A' for Active; 'I' for Inactive)
REMARK    1  A    between atoms: C_4  and  C_5 
REMARK    2  A    between atoms: C_5  and  N_6 
REMARK    3  A    between atoms: C_7  and  S_8 
REMARK    4  A    between atoms: C_9  and  C_10 
REMARK       I    between atoms: C_10  and  N_11 
REMARK    5  A    between atoms: N_11  and  C_12 
REMARK    6  A    between atoms: C_15  and  O_16 
REMARK    7  A    between atoms: O_16  and  C_17 
REMARK    8  A    between atoms: C_27  and  C_28 
REMARK       I    between atoms: C_28  and  N_29 
REMARK    9  A    between atoms: N_29  and  C_30 
REMARK   10  A    between atoms: C_30  and  C_31 
REMARK   11  A    between atoms: C_31  and  O_32 
ROOT
HETATM    1  N   UNL     1      -3.747   6.325 -32.306  1.00  0.00    -0.321 N 
HETATM    2  C   UNL     1      -4.200   5.395 -33.263  1.00  0.00     0.104 A 
HETATM    3  C   UNL     1      -5.214   4.627 -32.685  1.00  0.00     0.142 A 
HETATM    4  N   UNL     1      -5.309   5.140 -31.386  1.00  0.00    -0.301 N 
HETATM    5  C   UNL     1      -4.458   6.141 -31.188  1.00  0.00     0.116 A 
HETATM    6  C   UNL     1      -6.251   4.699 -30.320  1.00  0.00     0.100 A 
HETATM    7  C   UNL     1      -6.168   5.398 -29.119  1.00  0.00     0.035 A 
HETATM    8  C   UNL     1      -5.249   6.439 -28.953  1.00  0.00     0.036 A 
HETATM    9  C   UNL     1      -4.387   6.822 -29.984  1.00  0.00     0.066 A 
ENDROOT
BRANCH   3  10
HETATM   10  C   UNL     1      -6.024   3.527 -33.201  1.00  0.00     0.276 C 
HETATM   11  N   UNL     1      -5.400   2.290 -33.105  1.00  0.00    -0.322 N 
HETATM   12  H   UNL     1      -4.490   2.236 -32.660  1.00  0.00     0.169 HD
HETATM   13  O   UNL     1      -7.136   3.676 -33.706  1.00  0.00    -0.266 OA
BRANCH  11  14
HETATM   14  C   UNL     1      -5.887   1.036 -33.540  1.00  0.00     0.035 A 
HETATM   15  C   UNL     1      -6.678   0.840 -34.672  1.00  0.00     0.032 A 
HETATM   16  C   UNL     1      -7.107  -0.448 -35.020  1.00  0.00     0.039 A 
HETATM   17  C   UNL     1      -6.762  -1.558 -34.248  1.00  0.00     0.075 A 
HETATM   18  C   UNL     1      -5.972  -1.367 -33.119  1.00  0.00     0.039 A 
HETATM   19  C   UNL     1      -5.538  -0.081 -32.770  1.00  0.00     0.032 A 
BRANCH  17  20
HETATM   20  O   UNL     1      -7.254  -2.746 -34.705  1.00  0.00    -0.290 OA
BRANCH  20  21
HETATM   21  C   UNL     1      -6.338  -3.803 -34.965  1.00  0.00     0.505 C 
HETATM   22  F   UNL     1      -6.944  -4.766 -35.700  1.00  0.00    -0.184 F 
HETATM   23  F   UNL     1      -5.281  -3.333 -35.671  1.00  0.00    -0.184 F 
ENDBRANCH  20  21
ENDBRANCH  17  20
ENDBRANCH  11  14
ENDBRANCH   3  10
BRANCH   2  24
HETATM   24  S   UNL     1      -3.570   5.228 -34.899  1.00  0.00    -0.123 SA
HETATM   25  H   UNL     1      -4.303   6.130 -35.564  1.00  0.00     0.108 HD
ENDBRANCH   2  24
BRANCH   1  26
HETATM   26  C   UNL     1      -2.696   7.340 -32.464  1.00  0.00     0.177 C 
BRANCH  26  27
HETATM   27  C   UNL     1      -1.459   6.906 -31.742  1.00  0.00     0.001 A 
HETATM   28  S   UNL     1      -0.746   5.381 -32.075  1.00  0.00    -0.105 SA
HETATM   29  C   UNL     1       0.512   5.646 -30.950  1.00  0.00     0.050 A 
HETATM   30  C   UNL     1       0.387   6.861 -30.315  1.00  0.00     0.008 A 
HETATM   31  C   UNL     1      -0.755   7.585 -30.764  1.00  0.00     0.017 A 
ENDBRANCH  26  27
ENDBRANCH   1  26
BRANCH   8  32
HETATM   32  C   UNL     1      -5.191   7.242 -27.711  1.00  0.00     0.251 C 
HETATM   33  N   UNL     1      -3.986   7.807 -27.375  1.00  0.00    -0.355 N 
HETATM   34  H   UNL     1      -3.195   7.758 -28.001  1.00  0.00     0.162 HD
HETATM   35  O   UNL     1      -6.223   7.401 -27.068  1.00  0.00    -0.268 OA
BRANCH  33  36
HETATM   36  C   UNL     1      -3.800   8.572 -26.141  1.00  0.00     0.148 C 
BRANCH  36  37
HETATM   37  C   UNL     1      -3.022   7.815 -25.056  1.00  0.00     0.183 C 
BRANCH  37  38
HETATM   38  O   UNL     1      -2.564   6.545 -25.510  1.00  0.00    -0.399 OA
HETATM   39  H   UNL     1      -2.869   6.431 -26.435  1.00  0.00     0.209 HD
ENDBRANCH  37  38
ENDBRANCH  36  37
ENDBRANCH  33  36
ENDBRANCH   8  32
TORSDOF 11
ENDMDL
MODEL 5
REMARK VINA RESULT:      -7.8      5.544      9.567
REMARK  11 active torsions:
REMARK  status: ('A' for Active; 'I' for Inactive)
REMARK    1  A    between atoms: C_4  and  C_5 
REMARK    2  A    between atoms: C_5  and  N_6 
REMARK    3  A    between atoms: C_7  and  S_8 
REMARK    4  A    between atoms: C_9  and  C_10 
REMARK       I    between atoms: C_10  and  N_11 
REMARK    5  A    between atoms: N_11  and  C_12 
REMARK    6  A    between atoms: C_15  and  O_16 
REMARK    7  A    between atoms: O_16  and  C_17 
REMARK    8  A    between atoms: C_27  and  C_28 
REMARK       I    between atoms: C_28  and  N_29 
REMARK    9  A    between atoms: N_29  and  C_30 
REMARK   10  A    between atoms: C_30  and  C_31 
REMARK   11  A    between atoms: C_31  and  O_32 
ROOT
HETATM    1  N   UNL     1      -9.943   3.714 -32.337  1.00  0.00    -0.321 N 
HETATM    2  C   UNL     1      -9.506   2.451 -32.783  1.00  0.00     0.104 A 
HETATM    3  C   UNL     1      -8.471   2.023 -31.948  1.00  0.00     0.142 A 
HETATM    4  N   UNL     1      -8.334   3.076 -31.036  1.00  0.00    -0.301 N 
HETATM    5  C   UNL     1      -9.212   4.045 -31.266  1.00  0.00     0.116 A 
HETATM    6  C   UNL     1      -7.377   3.150 -29.896  1.00  0.00     0.100 A 
HETATM    7  C   UNL     1      -7.466   4.296 -29.111  1.00  0.00     0.035 A 
HETATM    8  C   UNL     1      -8.401   5.295 -29.398  1.00  0.00     0.036 A 
HETATM    9  C   UNL     1      -9.283   5.181 -30.476  1.00  0.00     0.066 A 
ENDROOT
BRANCH   3  10
HETATM   10  C   UNL     1      -7.650   0.814 -31.946  1.00  0.00     0.276 C 
HETATM   11  N   UNL     1      -6.932   0.634 -33.120  1.00  0.00    -0.322 N 
HETATM   12  H   UNL     1      -6.989   1.344 -33.842  1.00  0.00     0.169 HD
HETATM   13  O   UNL     1      -7.621   0.012 -31.014  1.00  0.00    -0.266 OA
BRANCH  11  14
HETATM   14  C   UNL     1      -6.077  -0.442 -33.457  1.00  0.00     0.035 A 
HETATM   15  C   UNL     1      -4.766  -0.587 -33.006  1.00  0.00     0.032 A 
HETATM   16  C   UNL     1      -4.002  -1.694 -33.397  1.00  0.00     0.039 A 
HETATM   17  C   UNL     1      -4.527  -2.672 -34.245  1.00  0.00     0.075 A 
HETATM   18  C   UNL     1      -5.835  -2.531 -34.695  1.00  0.00     0.039 A 
HETATM   19  C   UNL     1      -6.603  -1.427 -34.303  1.00  0.00     0.032 A 
BRANCH  17  20
HETATM   20  O   UNL     1      -3.668  -3.689 -34.543  1.00  0.00    -0.290 OA
BRANCH  20  21
HETATM   21  C   UNL     1      -3.696  -4.857 -33.733  1.00  0.00     0.505 C 
HETATM   22  F   UNL     1      -3.446  -4.528 -32.442  1.00  0.00    -0.184 F 
HETATM   23  F   UNL     1      -4.922  -5.430 -33.793  1.00  0.00    -0.184 F 
ENDBRANCH  20  21
ENDBRANCH  17  20
ENDBRANCH  11  14
ENDBRANCH   3  10
BRANCH   2  24
HETATM   24  S   UNL     1     -10.149   1.583 -34.174  1.00  0.00    -0.123 SA
HETATM   25  H   UNL     1     -10.722   0.524 -33.588  1.00  0.00     0.108 HD
ENDBRANCH   2  24
BRANCH   1  26
HETATM   26  C   UNL     1     -11.012   4.548 -32.903  1.00  0.00     0.177 C 
BRANCH  26  27
HETATM   27  C   UNL     1     -12.338   4.104 -32.370  1.00  0.00     0.001 A 
HETATM   28  S   UNL     1     -13.401   3.173 -33.345  1.00  0.00    -0.105 SA
HETATM   29  C   UNL     1     -14.568   3.078 -32.103  1.00  0.00     0.050 A 
HETATM   30  C   UNL     1     -14.173   3.756 -30.972  1.00  0.00     0.008 A 
HETATM   31  C   UNL     1     -12.891   4.356 -31.127  1.00  0.00     0.017 A 
ENDBRANCH  26  27
ENDBRANCH   1  26
BRANCH   8  32
HETATM   32  C   UNL     1      -8.562   6.488 -28.536  1.00  0.00     0.251 C 
HETATM   33  N   UNL     1      -9.770   7.139 -28.571  1.00  0.00    -0.355 N 
HETATM   34  H   UNL     1     -10.550   6.762 -29.091  1.00  0.00     0.162 HD
HETATM   35  O   UNL     1      -7.633   6.811 -27.805  1.00  0.00    -0.268 OA
BRANCH  33  36
HETATM   36  C   UNL     1     -10.021   8.361 -27.806  1.00  0.00     0.148 C 
BRANCH  36  37
HETATM   37  C   UNL     1     -10.462   8.106 -26.360  1.00  0.00     0.183 C 
BRANCH  37  38
HETATM   38  O   UNL     1      -9.676   8.833 -25.421  1.00  0.00    -0.399 OA
HETATM   39  H   UNL     1     -10.289   9.285 -24.804  1.00  0.00     0.209 HD
ENDBRANCH  37  38
ENDBRANCH  36  37
ENDBRANCH  33  36
ENDBRANCH   8  32
TORSDOF 11
ENDMDL
MODEL 6
REMARK VINA RESULT:      -7.8      5.337     10.409
REMARK  11 active torsions:
REMARK  status: ('A' for Active; 'I' for Inactive)
REMARK    1  A    between atoms: C_4  and  C_5 
REMARK    2  A    between atoms: C_5  and  N_6 
REMARK    3  A    between atoms: C_7  and  S_8 
REMARK    4  A    between atoms: C_9  and  C_10 
REMARK       I    between atoms: C_10  and  N_11 
REMARK    5  A    between atoms: N_11  and  C_12 
REMARK    6  A    between atoms: C_15  and  O_16 
REMARK    7  A    between atoms: O_16  and  C_17 
REMARK    8  A    between atoms: C_27  and  C_28 
REMARK       I    between atoms: C_28  and  N_29 
REMARK    9  A    between atoms: N_29  and  C_30 
REMARK   10  A    between atoms: C_30  and  C_31 
REMARK   11  A    between atoms: C_31  and  O_32 
ROOT
HETATM    1  N   UNL     1      -3.932   5.801 -31.396  1.00  0.00    -0.321 N 
HETATM    2  C   UNL     1      -3.691   4.531 -31.958  1.00  0.00     0.104 A 
HETATM    3  C   UNL     1      -4.585   3.621 -31.389  1.00  0.00     0.142 A 
HETATM    4  N   UNL     1      -5.321   4.406 -30.494  1.00  0.00    -0.301 N 
HETATM    5  C   UNL     1      -4.939   5.678 -30.524  1.00  0.00     0.116 A 
HETATM    6  C   UNL     1      -6.437   3.951 -29.618  1.00  0.00     0.100 A 
HETATM    7  C   UNL     1      -7.032   4.940 -28.841  1.00  0.00     0.035 A 
HETATM    8  C   UNL     1      -6.589   6.265 -28.898  1.00  0.00     0.036 A 
HETATM    9  C   UNL     1      -5.540   6.648 -29.739  1.00  0.00     0.066 A 
ENDROOT
BRANCH   3  10
HETATM   10  C   UNL     1      -4.780   2.187 -31.585  1.00  0.00     0.276 C 
HETATM   11  N   UNL     1      -5.532   1.882 -32.712  1.00  0.00    -0.322 N 
HETATM   12  H   UNL     1      -5.838   2.638 -33.315  1.00  0.00     0.169 HD
HETATM   13  O   UNL     1      -4.353   1.328 -30.814  1.00  0.00    -0.266 OA
BRANCH  11  14
HETATM   14  C   UNL     1      -5.933   0.603 -33.168  1.00  0.00     0.035 A 
HETATM   15  C   UNL     1      -7.256   0.202 -33.346  1.00  0.00     0.032 A 
HETATM   16  C   UNL     1      -7.547  -1.089 -33.807  1.00  0.00     0.039 A 
HETATM   17  C   UNL     1      -6.530  -2.001 -34.093  1.00  0.00     0.075 A 
HETATM   18  C   UNL     1      -5.208  -1.603 -33.918  1.00  0.00     0.039 A 
HETATM   19  C   UNL     1      -4.914  -0.312 -33.461  1.00  0.00     0.032 A 
BRANCH  17  20
HETATM   20  O   UNL     1      -6.962  -3.219 -34.528  1.00  0.00    -0.290 OA
BRANCH  20  21
HETATM   21  C   UNL     1      -6.018  -4.096 -35.132  1.00  0.00     0.505 C 
HETATM   22  F   UNL     1      -5.508  -4.935 -34.198  1.00  0.00    -0.184 F 
HETATM   23  F   UNL     1      -6.627  -4.843 -36.084  1.00  0.00    -0.184 F 
ENDBRANCH  20  21
ENDBRANCH  17  20
ENDBRANCH  11  14
ENDBRANCH   3  10
BRANCH   2  24
HETATM   24  S   UNL     1      -2.453   4.165 -33.156  1.00  0.00    -0.123 SA
HETATM   25  H   UNL     1      -3.197   3.838 -34.220  1.00  0.00     0.108 HD
ENDBRANCH   2  24
BRANCH   1  26
HETATM   26  C   UNL     1      -3.240   7.062 -31.692  1.00  0.00     0.177 C 
BRANCH  26  27
HETATM   27  C   UNL     1      -1.899   7.073 -31.027  1.00  0.00     0.001 A 
HETATM   28  S   UNL     1      -1.772   7.252 -29.325  1.00  0.00    -0.105 SA
HETATM   29  C   UNL     1      -0.068   7.151 -29.372  1.00  0.00     0.050 A 
HETATM   30  C   UNL     1       0.404   7.004 -30.657  1.00  0.00     0.008 A 
HETATM   31  C   UNL     1      -0.650   6.968 -31.614  1.00  0.00     0.017 A 
ENDBRANCH  26  27
ENDBRANCH   1  26
BRANCH   8  32
HETATM   32  C   UNL     1      -7.252   7.347 -28.135  1.00  0.00     0.251 C 
HETATM   33  N   UNL     1      -8.565   7.619 -28.428  1.00  0.00    -0.355 N 
HETATM   34  H   UNL     1      -9.087   7.038 -29.070  1.00  0.00     0.162 HD
HETATM   35  O   UNL     1      -6.616   7.916 -27.255  1.00  0.00    -0.268 OA
BRANCH  33  36
HETATM   36  C   UNL     1      -9.301   8.704 -27.778  1.00  0.00     0.148 C 
BRANCH  36  37
HETATM   37  C   UNL     1     -10.192   8.239 -26.618  1.00  0.00     0.183 C 
BRANCH  37  38
HETATM   38  O   UNL     1      -9.707   8.686 -25.356  1.00  0.00    -0.399 OA
HETATM   39  H   UNL     1     -10.381   9.287 -24.973  1.00  0.00     0.209 HD
ENDBRANCH  37  38
ENDBRANCH  36  37
ENDBRANCH  33  36
ENDBRANCH   8  32
TORSDOF 11
ENDMDL
MODEL 7
REMARK VINA RESULT:      -7.7      4.679      9.483
REMARK  11 active torsions:
REMARK  status: ('A' for Active; 'I' for Inactive)
REMARK    1  A    between atoms: C_4  and  C_5 
REMARK    2  A    between atoms: C_5  and  N_6 
REMARK    3  A    between atoms: C_7  and  S_8 
REMARK    4  A    between atoms: C_9  and  C_10 
REMARK       I    between atoms: C_10  and  N_11 
REMARK    5  A    between atoms: N_11  and  C_12 
REMARK    6  A    between atoms: C_15  and  O_16 
REMARK    7  A    between atoms: O_16  and  C_17 
REMARK    8  A    between atoms: C_27  and  C_28 
REMARK       I    between atoms: C_28  and  N_29 
REMARK    9  A    between atoms: N_29  and  C_30 
REMARK   10  A    between atoms: C_30  and  C_31 
REMARK   11  A    between atoms: C_31  and  O_32 
ROOT
HETATM    1  N   UNL     1      -5.881   5.071 -30.553  1.00  0.00    -0.321 N 
HETATM    2  C   UNL     1      -6.631   4.120 -31.275  1.00  0.00     0.104 A 
HETATM    3  C   UNL     1      -5.781   3.488 -32.185  1.00  0.00     0.142 A 
HETATM    4  N   UNL     1      -4.547   4.111 -31.963  1.00  0.00    -0.301 N 
HETATM    5  C   UNL     1      -4.620   5.019 -30.996  1.00  0.00     0.116 A 
HETATM    6  C   UNL     1      -3.261   3.815 -32.655  1.00  0.00     0.100 A 
HETATM    7  C   UNL     1      -2.164   4.555 -32.224  1.00  0.00     0.035 A 
HETATM    8  C   UNL     1      -2.291   5.507 -31.208  1.00  0.00     0.036 A 
HETATM    9  C   UNL     1      -3.518   5.749 -30.583  1.00  0.00     0.066 A 
ENDROOT
BRANCH   3  10
HETATM   10  C   UNL     1      -6.014   2.445 -33.181  1.00  0.00     0.276 C 
HETATM   11  N   UNL     1      -5.588   1.188 -32.771  1.00  0.00    -0.322 N 
HETATM   12  H   UNL     1      -5.208   1.081 -31.837  1.00  0.00     0.169 HD
HETATM   13  O   UNL     1      -6.505   2.656 -34.289  1.00  0.00    -0.266 OA
BRANCH  11  14
HETATM   14  C   UNL     1      -5.632  -0.023 -33.501  1.00  0.00     0.035 A 
HETATM   15  C   UNL     1      -6.673  -0.404 -34.347  1.00  0.00     0.032 A 
HETATM   16  C   UNL     1      -6.617  -1.627 -35.029  1.00  0.00     0.039 A 
HETATM   17  C   UNL     1      -5.531  -2.490 -34.879  1.00  0.00     0.075 A 
HETATM   18  C   UNL     1      -4.490  -2.112 -34.037  1.00  0.00     0.039 A 
HETATM   19  C   UNL     1      -4.540  -0.889 -33.357  1.00  0.00     0.032 A 
BRANCH  17  20
HETATM   20  O   UNL     1      -5.616  -3.645 -35.600  1.00  0.00    -0.290 OA
BRANCH  20  21
HETATM   21  C   UNL     1      -6.131  -4.806 -34.959  1.00  0.00     0.505 C 
HETATM   22  F   UNL     1      -5.221  -5.285 -34.077  1.00  0.00    -0.184 F 
HETATM   23  F   UNL     1      -7.258  -4.493 -34.276  1.00  0.00    -0.184 F 
ENDBRANCH  20  21
ENDBRANCH  17  20
ENDBRANCH  11  14
ENDBRANCH   3  10
BRANCH   2  24
HETATM   24  S   UNL     1      -8.352   3.811 -31.069  1.00  0.00    -0.123 SA
HETATM   25  H   UNL     1      -8.674   4.697 -30.118  1.00  0.00     0.108 HD
ENDBRANCH   2  24
BRANCH   1  26
HETATM   26  C   UNL     1      -6.352   5.969 -29.489  1.00  0.00     0.177 C 
BRANCH  26  27
HETATM   27  C   UNL     1      -6.995   7.178 -30.094  1.00  0.00     0.001 A 
HETATM   28  S   UNL     1      -8.632   7.559 -29.747  1.00  0.00    -0.105 SA
HETATM   29  C   UNL     1      -8.584   8.960 -30.722  1.00  0.00     0.050 A 
HETATM   30  C   UNL     1      -7.356   9.131 -31.318  1.00  0.00     0.008 A 
HETATM   31  C   UNL     1      -6.440   8.099 -30.964  1.00  0.00     0.017 A 
ENDBRANCH  26  27
ENDBRANCH   1  26
BRANCH   8  32
HETATM   32  C   UNL     1      -1.125   6.254 -30.684  1.00  0.00     0.251 C 
HETATM   33  N   UNL     1      -0.961   6.303 -29.322  1.00  0.00    -0.355 N 
HETATM   34  H   UNL     1      -1.557   5.768 -28.706  1.00  0.00     0.162 HD
HETATM   35  O   UNL     1      -0.343   6.754 -31.485  1.00  0.00    -0.268 OA
BRANCH  33  36
HETATM   36  C   UNL     1       0.122   7.061 -28.694  1.00  0.00     0.148 C 
BRANCH  36  37
HETATM   37  C   UNL     1       0.460   6.594 -27.272  1.00  0.00     0.183 C 
BRANCH  37  38
HETATM   38  O   UNL     1      -0.538   5.728 -26.740  1.00  0.00    -0.399 OA
HETATM   39  H   UNL     1      -1.157   6.274 -26.211  1.00  0.00     0.209 HD
ENDBRANCH  37  38
ENDBRANCH  36  37
ENDBRANCH  33  36
ENDBRANCH   8  32
TORSDOF 11
ENDMDL
MODEL 8
REMARK VINA RESULT:      -7.5      6.100      9.707
REMARK  11 active torsions:
REMARK  status: ('A' for Active; 'I' for Inactive)
REMARK    1  A    between atoms: C_4  and  C_5 
REMARK    2  A    between atoms: C_5  and  N_6 
REMARK    3  A    between atoms: C_7  and  S_8 
REMARK    4  A    between atoms: C_9  and  C_10 
REMARK       I    between atoms: C_10  and  N_11 
REMARK    5  A    between atoms: N_11  and  C_12 
REMARK    6  A    between atoms: C_15  and  O_16 
REMARK    7  A    between atoms: O_16  and  C_17 
REMARK    8  A    between atoms: C_27  and  C_28 
REMARK       I    between atoms: C_28  and  N_29 
REMARK    9  A    between atoms: N_29  and  C_30 
REMARK   10  A    between atoms: C_30  and  C_31 
REMARK   11  A    between atoms: C_31  and  O_32 
ROOT
HETATM    1  N   UNL     1     -10.313   3.743 -32.017  1.00  0.00    -0.321 N 
HETATM    2  C   UNL     1      -8.954   3.461 -32.262  1.00  0.00     0.104 A 
HETATM    3  C   UNL     1      -8.881   2.350 -33.106  1.00  0.00     0.142 A 
HETATM    4  N   UNL     1     -10.223   2.014 -33.317  1.00  0.00    -0.301 N 
HETATM    5  C   UNL     1     -11.045   2.847 -32.689  1.00  0.00     0.116 A 
HETATM    6  C   UNL     1     -10.742   0.902 -34.162  1.00  0.00     0.100 A 
HETATM    7  C   UNL     1     -12.128   0.800 -34.235  1.00  0.00     0.035 A 
HETATM    8  C   UNL     1     -12.954   1.695 -33.548  1.00  0.00     0.036 A 
HETATM    9  C   UNL     1     -12.423   2.727 -32.769  1.00  0.00     0.066 A 
ENDROOT
BRANCH   3  10
HETATM   10  C   UNL     1      -7.747   1.623 -33.671  1.00  0.00     0.276 C 
HETATM   11  N   UNL     1      -7.618   0.333 -33.176  1.00  0.00    -0.322 N 
HETATM   12  H   UNL     1      -8.314  -0.012 -32.524  1.00  0.00     0.169 HD
HETATM   13  O   UNL     1      -6.959   2.110 -34.481  1.00  0.00    -0.266 OA
BRANCH  11  14
HETATM   14  C   UNL     1      -6.617  -0.619 -33.483  1.00  0.00     0.035 A 
HETATM   15  C   UNL     1      -5.361  -0.673 -32.880  1.00  0.00     0.032 A 
HETATM   16  C   UNL     1      -4.439  -1.660 -33.254  1.00  0.00     0.039 A 
HETATM   17  C   UNL     1      -4.750  -2.604 -34.234  1.00  0.00     0.075 A 
HETATM   18  C   UNL     1      -6.003  -2.554 -34.836  1.00  0.00     0.039 A 
HETATM   19  C   UNL     1      -6.928  -1.571 -34.462  1.00  0.00     0.032 A 
BRANCH  17  20
HETATM   20  O   UNL     1      -3.755  -3.500 -34.498  1.00  0.00    -0.290 OA
BRANCH  20  21
HETATM   21  C   UNL     1      -3.768  -4.746 -33.812  1.00  0.00     0.505 C 
HETATM   22  F   UNL     1      -3.440  -4.557 -32.511  1.00  0.00    -0.184 F 
HETATM   23  F   UNL     1      -5.010  -5.286 -33.860  1.00  0.00    -0.184 F 
ENDBRANCH  20  21
ENDBRANCH  17  20
ENDBRANCH  11  14
ENDBRANCH   3  10
BRANCH   2  24
HETATM   24  S   UNL     1      -7.591   4.353 -31.594  1.00  0.00    -0.123 SA
HETATM   25  H   UNL     1      -8.158   4.966 -30.547  1.00  0.00     0.108 HD
ENDBRANCH   2  24
BRANCH   1  26
HETATM   26  C   UNL     1     -10.873   4.822 -31.191  1.00  0.00     0.177 C 
BRANCH  26  27
HETATM   27  C   UNL     1     -10.959   6.083 -31.994  1.00  0.00     0.001 A 
HETATM   28  S   UNL     1      -9.923   7.407 -31.648  1.00  0.00    -0.105 SA
HETATM   29  C   UNL     1     -10.590   8.346 -32.909  1.00  0.00     0.050 A 
HETATM   30  C   UNL     1     -11.595   7.679 -33.572  1.00  0.00     0.008 A 
HETATM   31  C   UNL     1     -11.815   6.377 -33.039  1.00  0.00     0.017 A 
ENDBRANCH  26  27
ENDBRANCH   1  26
BRANCH   8  32
HETATM   32  C   UNL     1     -14.429   1.651 -33.667  1.00  0.00     0.251 C 
HETATM   33  N   UNL     1     -15.163   2.352 -32.743  1.00  0.00    -0.355 N 
HETATM   34  H   UNL     1     -14.712   2.953 -32.068  1.00  0.00     0.162 HD
HETATM   35  O   UNL     1     -14.921   1.031 -34.603  1.00  0.00    -0.268 OA
BRANCH  33  36
HETATM   36  C   UNL     1     -16.626   2.331 -32.731  1.00  0.00     0.148 C 
BRANCH  36  37
HETATM   37  C   UNL     1     -17.257   3.560 -32.064  1.00  0.00     0.183 C 
BRANCH  37  38
HETATM   38  O   UNL     1     -16.956   4.764 -32.763  1.00  0.00    -0.399 OA
HETATM   39  H   UNL     1     -16.128   4.618 -33.267  1.00  0.00     0.209 HD
ENDBRANCH  37  38
ENDBRANCH  36  37
ENDBRANCH  33  36
ENDBRANCH   8  32
TORSDOF 11
ENDMDL
MODEL 9
REMARK VINA RESULT:      -7.5      4.922      9.625
REMARK  11 active torsions:
REMARK  status: ('A' for Active; 'I' for Inactive)
REMARK    1  A    between atoms: C_4  and  C_5 
REMARK    2  A    between atoms: C_5  and  N_6 
REMARK    3  A    between atoms: C_7  and  S_8 
REMARK    4  A    between atoms: C_9  and  C_10 
REMARK       I    between atoms: C_10  and  N_11 
REMARK    5  A    between atoms: N_11  and  C_12 
REMARK    6  A    between atoms: C_15  and  O_16 
REMARK    7  A    between atoms: O_16  and  C_17 
REMARK    8  A    between atoms: C_27  and  C_28 
REMARK       I    between atoms: C_28  and  N_29 
REMARK    9  A    between atoms: N_29  and  C_30 
REMARK   10  A    between atoms: C_30  and  C_31 
REMARK   11  A    between atoms: C_31  and  O_32 
ROOT
HETATM    1  N   UNL     1      -6.763   4.850 -30.077  1.00  0.00    -0.321 N 
HETATM    2  C   UNL     1      -7.236   3.816 -30.910  1.00  0.00     0.104 A 
HETATM    3  C   UNL     1      -6.214   3.459 -31.791  1.00  0.00     0.142 A 
HETATM    4  N   UNL     1      -5.167   4.319 -31.441  1.00  0.00    -0.301 N 
HETATM    5  C   UNL     1      -5.499   5.111 -30.427  1.00  0.00     0.116 A 
HETATM    6  C   UNL     1      -3.809   4.367 -32.051  1.00  0.00     0.100 A 
HETATM    7  C   UNL     1      -2.933   5.295 -31.495  1.00  0.00     0.035 A 
HETATM    8  C   UNL     1      -3.330   6.115 -30.435  1.00  0.00     0.036 A 
HETATM    9  C   UNL     1      -4.615   6.032 -29.889  1.00  0.00     0.066 A 
ENDROOT
BRANCH   3  10
HETATM   10  C   UNL     1      -6.147   2.469 -32.864  1.00  0.00     0.276 C 
HETATM   11  N   UNL     1      -6.000   1.167 -32.404  1.00  0.00    -0.322 N 
HETATM   12  H   UNL     1      -5.997   1.000 -31.403  1.00  0.00     0.169 HD
HETATM   13  O   UNL     1      -6.181   2.755 -34.060  1.00  0.00    -0.266 OA
BRANCH  11  14
HETATM   14  C   UNL     1      -5.868  -0.015 -33.171  1.00  0.00     0.035 A 
HETATM   15  C   UNL     1      -4.723  -0.809 -33.216  1.00  0.00     0.032 A 
HETATM   16  C   UNL     1      -4.695  -1.965 -34.007  1.00  0.00     0.039 A 
HETATM   17  C   UNL     1      -5.802  -2.347 -34.768  1.00  0.00     0.075 A 
HETATM   18  C   UNL     1      -6.946  -1.558 -34.723  1.00  0.00     0.039 A 
HETATM   19  C   UNL     1      -6.979  -0.403 -33.930  1.00  0.00     0.032 A 
BRANCH  17  20
HETATM   20  O   UNL     1      -5.629  -3.491 -35.491  1.00  0.00    -0.290 OA
BRANCH  20  21
HETATM   21  C   UNL     1      -6.128  -4.711 -34.956  1.00  0.00     0.505 C 
HETATM   22  F   UNL     1      -5.228  -5.232 -34.087  1.00  0.00    -0.184 F 
HETATM   23  F   UNL     1      -7.281  -4.482 -34.284  1.00  0.00    -0.184 F 
ENDBRANCH  20  21
ENDBRANCH  17  20
ENDBRANCH  11  14
ENDBRANCH   3  10
BRANCH   2  24
HETATM   24  S   UNL     1      -8.853   3.120 -30.852  1.00  0.00    -0.123 SA
HETATM   25  H   UNL     1      -8.768   2.163 -31.784  1.00  0.00     0.108 HD
ENDBRANCH   2  24
BRANCH   1  26
HETATM   26  C   UNL     1      -7.485   5.538 -28.998  1.00  0.00     0.177 C 
BRANCH  26  27
HETATM   27  C   UNL     1      -8.161   6.760 -29.538  1.00  0.00     0.001 A 
HETATM   28  S   UNL     1      -9.810   6.706 -30.011  1.00  0.00    -0.105 SA
HETATM   29  C   UNL     1      -9.809   8.356 -30.451  1.00  0.00     0.050 A 
HETATM   30  C   UNL     1      -8.576   8.938 -30.264  1.00  0.00     0.008 A 
HETATM   31  C   UNL     1      -7.621   8.017 -29.746  1.00  0.00     0.017 A 
ENDBRANCH  26  27
ENDBRANCH   1  26
BRANCH   8  32
HETATM   32  C   UNL     1      -2.395   7.058 -29.781  1.00  0.00     0.251 C 
HETATM   33  N   UNL     1      -1.891   6.706 -28.553  1.00  0.00    -0.355 N 
HETATM   34  H   UNL     1      -2.075   5.794 -28.157  1.00  0.00     0.162 HD
HETATM   35  O   UNL     1      -2.083   8.081 -30.379  1.00  0.00    -0.268 OA
BRANCH  33  36
HETATM   36  C   UNL     1      -1.006   7.587 -27.791  1.00  0.00     0.148 C 
BRANCH  36  37
HETATM   37  C   UNL     1      -0.528   6.985 -26.463  1.00  0.00     0.183 C 
BRANCH  37  38
HETATM   38  O   UNL     1      -0.677   5.569 -26.430  1.00  0.00    -0.399 OA
HETATM   39  H   UNL     1      -1.620   5.364 -26.603  1.00  0.00     0.209 HD
ENDBRANCH  37  38
ENDBRANCH  36  37
ENDBRANCH  33  36
ENDBRANCH   8  32
TORSDOF 11
ENDMDL
MODEL 10
REMARK VINA RESULT:      -7.4      1.612      2.139
REMARK  11 active torsions:
REMARK  status: ('A' for Active; 'I' for Inactive)
REMARK    1  A    between atoms: C_4  and  C_5 
REMARK    2  A    between atoms: C_5  and  N_6 
REMARK    3  A    between atoms: C_7  and  S_8 
REMARK    4  A    between atoms: C_9  and  C_10 
REMARK       I    between atoms: C_10  and  N_11 
REMARK    5  A    between atoms: N_11  and  C_12 
REMARK    6  A    between atoms: C_15  and  O_16 
REMARK    7  A    between atoms: O_16  and  C_17 
REMARK    8  A    between atoms: C_27  and  C_28 
REMARK       I    between atoms: C_28  and  N_29 
REMARK    9  A    between atoms: N_29  and  C_30 
REMARK   10  A    between atoms: C_30  and  C_31 
REMARK   11  A    between atoms: C_31  and  O_32 
ROOT
HETATM    1  N   UNL     1      -7.720   2.177 -31.850  1.00  0.00    -0.321 N 
HETATM    2  C   UNL     1      -7.057   3.406 -31.661  1.00  0.00     0.104 A 
HETATM    3  C   UNL     1      -5.755   3.284 -32.151  1.00  0.00     0.142 A 
HETATM    4  N   UNL     1      -5.702   1.962 -32.607  1.00  0.00    -0.301 N 
HETATM    5  C   UNL     1      -6.862   1.337 -32.440  1.00  0.00     0.116 A 
HETATM    6  C   UNL     1      -4.542   1.286 -33.251  1.00  0.00     0.100 A 
HETATM    7  C   UNL     1      -4.758  -0.030 -33.649  1.00  0.00     0.035 A 
HETATM    8  C   UNL     1      -5.994  -0.651 -33.443  1.00  0.00     0.036 A 
HETATM    9  C   UNL     1      -7.059   0.025 -32.839  1.00  0.00     0.066 A 
ENDROOT
BRANCH   3  10
HETATM   10  C   UNL     1      -4.637   4.223 -32.206  1.00  0.00     0.276 C 
HETATM   11  N   UNL     1      -3.944   4.324 -31.007  1.00  0.00    -0.322 N 
HETATM   12  H   UNL     1      -4.220   3.733 -30.231  1.00  0.00     0.169 HD
HETATM   13  O   UNL     1      -4.353   4.889 -33.201  1.00  0.00    -0.266 OA
BRANCH  11  14
HETATM   14  C   UNL     1      -2.842   5.161 -30.710  1.00  0.00     0.035 A 
HETATM   15  C   UNL     1      -2.917   6.344 -29.976  1.00  0.00     0.032 A 
HETATM   16  C   UNL     1      -1.764   7.101 -29.733  1.00  0.00     0.039 A 
HETATM   17  C   UNL     1      -0.519   6.697 -30.220  1.00  0.00     0.075 A 
HETATM   18  C   UNL     1      -0.440   5.516 -30.952  1.00  0.00     0.039 A 
HETATM   19  C   UNL     1      -1.591   4.755 -31.193  1.00  0.00     0.032 A 
BRANCH  17  20
HETATM   20  O   UNL     1       0.513   7.534 -29.911  1.00  0.00    -0.290 OA
BRANCH  20  21
HETATM   21  C   UNL     1       0.810   7.762 -28.538  1.00  0.00     0.505 C 
HETATM   22  F   UNL     1       1.132   6.591 -27.937  1.00  0.00    -0.184 F 
HETATM   23  F   UNL     1       1.871   8.598 -28.429  1.00  0.00    -0.184 F 
ENDBRANCH  20  21
ENDBRANCH  17  20
ENDBRANCH  11  14
ENDBRANCH   3  10
BRANCH   2  24
HETATM   24  S   UNL     1      -7.758   4.837 -30.911  1.00  0.00    -0.123 SA
HETATM   25  H   UNL     1      -8.778   4.308 -30.223  1.00  0.00     0.108 HD
ENDBRANCH   2  24
BRANCH   1  26
HETATM   26  C   UNL     1      -9.104   1.837 -31.494  1.00  0.00     0.177 C 
BRANCH  26  27
HETATM   27  C   UNL     1      -9.999   2.049 -32.674  1.00  0.00     0.001 A 
HETATM   28  S   UNL     1     -10.703   3.587 -32.968  1.00  0.00    -0.105 SA
HETATM   29  C   UNL     1     -11.490   3.034 -34.379  1.00  0.00     0.050 A 
HETATM   30  C   UNL     1     -11.242   1.701 -34.618  1.00  0.00     0.008 A 
HETATM   31  C   UNL     1     -10.390   1.129 -33.630  1.00  0.00     0.017 A 
ENDBRANCH  26  27
ENDBRANCH   1  26
BRANCH   8  32
HETATM   32  C   UNL     1      -6.271  -2.024 -33.922  1.00  0.00     0.251 C 
HETATM   33  N   UNL     1      -5.207  -2.769 -34.365  1.00  0.00    -0.355 N 
HETATM   34  H   UNL     1      -4.259  -2.429 -34.277  1.00  0.00     0.162 HD
HETATM   35  O   UNL     1      -7.421  -2.444 -33.860  1.00  0.00    -0.268 OA
BRANCH  33  36
HETATM   36  C   UNL     1      -5.371  -4.116 -34.914  1.00  0.00     0.148 C 
BRANCH  36  37
HETATM   37  C   UNL     1      -4.607  -5.197 -34.139  1.00  0.00     0.183 C 
BRANCH  37  38
HETATM   38  O   UNL     1      -3.221  -4.890 -34.014  1.00  0.00    -0.399 OA
HETATM   39  H   UNL     1      -2.726  -5.736 -34.023  1.00  0.00     0.209 HD
ENDBRANCH  37  38
ENDBRANCH  36  37
ENDBRANCH  33  36
ENDBRANCH   8  32
TORSDOF 11
ENDMDL
