MODEL 1
REMARK VINA RESULT:      -8.6      0.000      0.000
REMARK  6 active torsions:
REMARK  status: ('A' for Active; 'I' for Inactive)
REMARK    1  A    between atoms: C_2  and  C_3 
REMARK    2  A    between atoms: C_3  and  O_4 
REMARK    3  A    between atoms: O_4  and  C_5 
REMARK    4  A    between atoms: C_7  and  C_8 
REMARK       I    between atoms: C_8  and  N_9 
REMARK    5  A    between atoms: N_9  and  C_10 
REMARK    6  A    between atoms: C_17  and  C_18 
REMARK       I    between atoms: C_18  and  N_19 
ROOT
HETATM    1  C   UNL     1      -8.967   1.621 -33.662  1.00  0.00     0.036 A 
HETATM    2  C   UNL     1     -10.195   0.949 -33.613  1.00  0.00     0.046 A 
HETATM    3  C   UNL     1     -11.377   1.622 -33.994  1.00  0.00     0.030 A 
HETATM    4  C   UNL     1     -11.293   2.948 -34.396  1.00  0.00     0.063 A 
HETATM    5  N   UNL     1     -12.575   3.321 -34.689  1.00  0.00    -0.277 N 
HETATM    6  H   UNL     1     -12.892   4.228 -35.011  1.00  0.00     0.189 HD
HETATM    7  N   UNL     1     -13.487   2.349 -34.528  1.00  0.00    -0.168 NA
HETATM    8  C   UNL     1     -12.762   1.291 -34.100  1.00  0.00     0.156 A 
HETATM    9  C   UNL     1     -10.090   3.653 -34.450  1.00  0.00     0.034 A 
HETATM   10  C   UNL     1      -8.930   2.959 -34.081  1.00  0.00     0.032 A 
ENDROOT
BRANCH   1  11
HETATM   11  N   UNL     1      -7.730   1.029 -33.317  1.00  0.00    -0.323 N 
HETATM   12  C   UNL     1      -7.137   0.994 -32.068  1.00  0.00     0.256 C 
HETATM   13  O   UNL     1      -7.590   1.466 -31.032  1.00  0.00    -0.267 OA
HETATM   14  H   UNL     1      -7.261   0.541 -34.067  1.00  0.00     0.169 HD
BRANCH  12  15
HETATM   15  C   UNL     1      -5.829   0.276 -31.990  1.00  0.00     0.035 A 
HETATM   16  C   UNL     1      -5.592  -0.745 -32.924  1.00  0.00     0.053 A 
HETATM   17  C   UNL     1      -4.394  -1.460 -32.904  1.00  0.00     0.069 A 
HETATM   18  C   UNL     1      -3.428  -1.143 -31.946  1.00  0.00     0.037 A 
HETATM   19  C   UNL     1      -3.662  -0.142 -31.002  1.00  0.00     0.004 A 
HETATM   20  C   UNL     1      -4.866   0.564 -31.015  1.00  0.00     0.017 A 
BRANCH  17  21
HETATM   21  O   UNL     1      -4.051  -2.475 -33.753  1.00  0.00    -0.351 OA
BRANCH  21  22
HETATM   22  C   UNL     1      -4.992  -2.804 -34.779  1.00  0.00     0.179 C 
BRANCH  22  23
HETATM   23  C   UNL     1      -5.625  -4.167 -34.458  1.00  0.00     0.002 C 
HETATM   24  C   UNL     1      -4.556  -5.228 -34.185  1.00  0.00     0.011 C 
HETATM   25  C   UNL     1      -6.535  -4.612 -35.602  1.00  0.00     0.011 C 
ENDBRANCH  22  23
ENDBRANCH  21  22
ENDBRANCH  17  21
ENDBRANCH  12  15
ENDBRANCH   1  11
BRANCH   8  26
HETATM   26  C   UNL     1     -13.401  -0.002 -33.814  1.00  0.00     0.270 C 
HETATM   27  N   UNL     1     -14.707  -0.080 -34.214  1.00  0.00    -0.365 N 
HETATM   28  H   UNL     1     -15.124   0.724 -34.670  1.00  0.00     0.159 HD
HETATM   29  H   UNL     1     -15.221  -0.934 -34.073  1.00  0.00     0.159 HD
HETATM   30  O   UNL     1     -12.847  -0.954 -33.274  1.00  0.00    -0.266 OA
ENDBRANCH   8  26
TORSDOF 6
ENDMDL
MODEL 2
REMARK VINA RESULT:      -8.5      4.585      8.188
REMARK  6 active torsions:
REMARK  status: ('A' for Active; 'I' for Inactive)
REMARK    1  A    between atoms: C_2  and  C_3 
REMARK    2  A    between atoms: C_3  and  O_4 
REMARK    3  A    between atoms: O_4  and  C_5 
REMARK    4  A    between atoms: C_7  and  C_8 
REMARK       I    between atoms: C_8  and  N_9 
REMARK    5  A    between atoms: N_9  and  C_10 
REMARK    6  A    between atoms: C_17  and  C_18 
REMARK       I    between atoms: C_18  and  N_19 
ROOT
HETATM    1  C   UNL     1      -5.377  -0.001 -33.565  1.00  0.00     0.036 A 
HETATM    2  C   UNL     1      -4.694  -1.214 -33.406  1.00  0.00     0.046 A 
HETATM    3  C   UNL     1      -5.229  -2.397 -33.962  1.00  0.00     0.030 A 
HETATM    4  C   UNL     1      -6.437  -2.329 -34.645  1.00  0.00     0.063 A 
HETATM    5  N   UNL     1      -6.695  -3.608 -35.052  1.00  0.00    -0.277 N 
HETATM    6  H   UNL     1      -7.499  -3.935 -35.576  1.00  0.00     0.189 HD
HETATM    7  N   UNL     1      -5.755  -4.503 -34.708  1.00  0.00    -0.168 NA
HETATM    8  C   UNL     1      -4.841  -3.769 -34.034  1.00  0.00     0.156 A 
HETATM    9  C   UNL     1      -7.149  -1.142 -34.817  1.00  0.00     0.034 A 
HETATM   10  C   UNL     1      -6.590   0.020 -34.269  1.00  0.00     0.032 A 
ENDROOT
BRANCH   1  11
HETATM   11  N   UNL     1      -4.914   1.236 -33.061  1.00  0.00    -0.323 N 
HETATM   12  C   UNL     1      -4.902   1.651 -31.741  1.00  0.00     0.256 C 
HETATM   13  O   UNL     1      -5.284   1.009 -30.770  1.00  0.00    -0.267 OA
HETATM   14  H   UNL     1      -4.507   1.857 -33.746  1.00  0.00     0.169 HD
BRANCH  12  15
HETATM   15  C   UNL     1      -4.330   3.010 -31.493  1.00  0.00     0.035 A 
HETATM   16  C   UNL     1      -2.993   3.229 -31.860  1.00  0.00     0.053 A 
HETATM   17  C   UNL     1      -2.396   4.472 -31.651  1.00  0.00     0.069 A 
HETATM   18  C   UNL     1      -3.147   5.501 -31.078  1.00  0.00     0.037 A 
HETATM   19  C   UNL     1      -4.472   5.287 -30.693  1.00  0.00     0.004 A 
HETATM   20  C   UNL     1      -5.064   4.039 -30.891  1.00  0.00     0.017 A 
BRANCH  17  21
HETATM   21  O   UNL     1      -1.106   4.805 -31.959  1.00  0.00    -0.351 OA
BRANCH  21  22
HETATM   22  C   UNL     1      -0.753   6.187 -31.854  1.00  0.00     0.179 C 
BRANCH  22  23
HETATM   23  C   UNL     1       0.543   6.311 -31.038  1.00  0.00     0.002 C 
HETATM   24  C   UNL     1       1.080   4.936 -30.632  1.00  0.00     0.011 C 
HETATM   25  C   UNL     1       0.310   7.176 -29.800  1.00  0.00     0.011 C 
ENDBRANCH  22  23
ENDBRANCH  21  22
ENDBRANCH  17  21
ENDBRANCH  12  15
ENDBRANCH   1  11
BRANCH   8  26
HETATM   26  C   UNL     1      -3.623  -4.387 -33.488  1.00  0.00     0.270 C 
HETATM   27  N   UNL     1      -3.047  -5.310 -34.318  1.00  0.00    -0.365 N 
HETATM   28  H   UNL     1      -3.477  -5.490 -35.217  1.00  0.00     0.159 HD
HETATM   29  H   UNL     1      -2.199  -5.775 -34.033  1.00  0.00     0.159 HD
HETATM   30  O   UNL     1      -3.130  -4.122 -32.397  1.00  0.00    -0.266 OA
ENDBRANCH   8  26
TORSDOF 6
ENDMDL
MODEL 3
REMARK VINA RESULT:      -8.3      5.272      8.468
REMARK  6 active torsions:
REMARK  status: ('A' for Active; 'I' for Inactive)
REMARK    1  A    between atoms: C_2  and  C_3 
REMARK    2  A    between atoms: C_3  and  O_4 
REMARK    3  A    between atoms: O_4  and  C_5 
REMARK    4  A    between atoms: C_7  and  C_8 
REMARK       I    between atoms: C_8  and  N_9 
REMARK    5  A    between atoms: N_9  and  C_10 
REMARK    6  A    between atoms: C_17  and  C_18 
REMARK       I    between atoms: C_18  and  N_19 
ROOT
HETATM    1  C   UNL     1      -3.371   4.212 -32.816  1.00  0.00     0.036 A 
HETATM    2  C   UNL     1      -2.354   4.276 -31.855  1.00  0.00     0.046 A 
HETATM    3  C   UNL     1      -1.436   5.349 -31.876  1.00  0.00     0.030 A 
HETATM    4  C   UNL     1      -1.558   6.314 -32.868  1.00  0.00     0.063 A 
HETATM    5  N   UNL     1      -0.544   7.201 -32.637  1.00  0.00    -0.277 N 
HETATM    6  H   UNL     1      -0.324   8.035 -33.171  1.00  0.00     0.189 HD
HETATM    7  N   UNL     1       0.220   6.909 -31.573  1.00  0.00    -0.168 NA
HETATM    8  C   UNL     1      -0.319   5.766 -31.090  1.00  0.00     0.156 A 
HETATM    9  C   UNL     1      -2.552   6.281 -33.846  1.00  0.00     0.034 A 
HETATM   10  C   UNL     1      -3.458   5.214 -33.794  1.00  0.00     0.032 A 
ENDROOT
BRANCH   1  11
HETATM   11  N   UNL     1      -4.345   3.189 -32.866  1.00  0.00    -0.323 N 
HETATM   12  C   UNL     1      -5.598   3.195 -32.281  1.00  0.00     0.256 C 
HETATM   13  O   UNL     1      -6.090   4.102 -31.619  1.00  0.00    -0.267 OA
HETATM   14  H   UNL     1      -4.104   2.390 -33.436  1.00  0.00     0.169 HD
BRANCH  12  15
HETATM   15  C   UNL     1      -6.432   1.978 -32.519  1.00  0.00     0.035 A 
HETATM   16  C   UNL     1      -6.012   1.087 -33.519  1.00  0.00     0.053 A 
HETATM   17  C   UNL     1      -6.748  -0.064 -33.797  1.00  0.00     0.069 A 
HETATM   18  C   UNL     1      -7.906  -0.326 -33.062  1.00  0.00     0.037 A 
HETATM   19  C   UNL     1      -8.343   0.562 -32.078  1.00  0.00     0.004 A 
HETATM   20  C   UNL     1      -7.612   1.721 -31.809  1.00  0.00     0.017 A 
BRANCH  17  21
HETATM   21  O   UNL     1      -6.444  -1.001 -34.746  1.00  0.00    -0.351 OA
BRANCH  21  22
HETATM   22  C   UNL     1      -6.772  -2.359 -34.441  1.00  0.00     0.179 C 
BRANCH  22  23
HETATM   23  C   UNL     1      -5.760  -3.285 -35.133  1.00  0.00     0.002 C 
HETATM   24  C   UNL     1      -6.370  -4.658 -35.425  1.00  0.00     0.011 C 
HETATM   25  C   UNL     1      -4.503  -3.434 -34.276  1.00  0.00     0.011 C 
ENDBRANCH  22  23
ENDBRANCH  21  22
ENDBRANCH  17  21
ENDBRANCH  12  15
ENDBRANCH   1  11
BRANCH   8  26
HETATM   26  C   UNL     1       0.232   5.111 -29.895  1.00  0.00     0.270 C 
HETATM   27  N   UNL     1      -0.229   5.627 -28.714  1.00  0.00    -0.365 N 
HETATM   28  H   UNL     1      -0.897   6.388 -28.745  1.00  0.00     0.159 HD
HETATM   29  H   UNL     1       0.083   5.230 -27.842  1.00  0.00     0.159 HD
HETATM   30  O   UNL     1       1.028   4.179 -29.910  1.00  0.00    -0.266 OA
ENDBRANCH   8  26
TORSDOF 6
ENDMDL
MODEL 4
REMARK VINA RESULT:      -8.1      2.634      8.765
REMARK  6 active torsions:
REMARK  status: ('A' for Active; 'I' for Inactive)
REMARK    1  A    between atoms: C_2  and  C_3 
REMARK    2  A    between atoms: C_3  and  O_4 
REMARK    3  A    between atoms: O_4  and  C_5 
REMARK    4  A    between atoms: C_7  and  C_8 
REMARK       I    between atoms: C_8  and  N_9 
REMARK    5  A    between atoms: N_9  and  C_10 
REMARK    6  A    between atoms: C_17  and  C_18 
REMARK       I    between atoms: C_18  and  N_19 
ROOT
HETATM    1  C   UNL     1      -7.332  -0.433 -34.113  1.00  0.00     0.036 A 
HETATM    2  C   UNL     1      -6.389  -0.107 -33.130  1.00  0.00     0.046 A 
HETATM    3  C   UNL     1      -5.273  -0.949 -32.923  1.00  0.00     0.030 A 
HETATM    4  C   UNL     1      -5.148  -2.096 -33.695  1.00  0.00     0.063 A 
HETATM    5  N   UNL     1      -3.998  -2.698 -33.267  1.00  0.00    -0.277 N 
HETATM    6  H   UNL     1      -3.595  -3.564 -33.607  1.00  0.00     0.189 HD
HETATM    7  N   UNL     1      -3.352  -2.036 -32.294  1.00  0.00    -0.168 NA
HETATM    8  C   UNL     1      -4.128  -0.951 -32.070  1.00  0.00     0.156 A 
HETATM    9  C   UNL     1      -6.071  -2.458 -34.677  1.00  0.00     0.034 A 
HETATM   10  C   UNL     1      -7.160  -1.599 -34.873  1.00  0.00     0.032 A 
ENDROOT
BRANCH   1  11
HETATM   11  N   UNL     1      -8.470   0.354 -34.405  1.00  0.00    -0.323 N 
HETATM   12  C   UNL     1      -9.507   0.678 -33.550  1.00  0.00     0.256 C 
HETATM   13  O   UNL     1      -9.616   0.344 -32.375  1.00  0.00    -0.267 OA
HETATM   14  H   UNL     1      -8.490   0.756 -35.331  1.00  0.00     0.169 HD
BRANCH  12  15
HETATM   15  C   UNL     1     -10.575   1.550 -34.125  1.00  0.00     0.035 A 
HETATM   16  C   UNL     1     -11.894   1.070 -34.092  1.00  0.00     0.053 A 
HETATM   17  C   UNL     1     -12.938   1.831 -34.618  1.00  0.00     0.069 A 
HETATM   18  C   UNL     1     -12.657   3.082 -35.171  1.00  0.00     0.037 A 
HETATM   19  C   UNL     1     -11.347   3.561 -35.225  1.00  0.00     0.004 A 
HETATM   20  C   UNL     1     -10.301   2.793 -34.710  1.00  0.00     0.017 A 
BRANCH  17  21
HETATM   21  O   UNL     1     -14.257   1.471 -34.649  1.00  0.00    -0.351 OA
BRANCH  21  22
HETATM   22  C   UNL     1     -14.878   1.188 -33.392  1.00  0.00     0.179 C 
BRANCH  22  23
HETATM   23  C   UNL     1     -15.275   2.513 -32.722  1.00  0.00     0.002 C 
HETATM   24  C   UNL     1     -14.303   2.882 -31.599  1.00  0.00     0.011 C 
HETATM   25  C   UNL     1     -16.702   2.428 -32.182  1.00  0.00     0.011 C 
ENDBRANCH  22  23
ENDBRANCH  21  22
ENDBRANCH  17  21
ENDBRANCH  12  15
ENDBRANCH   1  11
BRANCH   8  26
HETATM   26  C   UNL     1      -3.756   0.056 -31.065  1.00  0.00     0.270 C 
HETATM   27  N   UNL     1      -4.783   0.423 -30.238  1.00  0.00    -0.365 N 
HETATM   28  H   UNL     1      -5.689  -0.012 -30.366  1.00  0.00     0.159 HD
HETATM   29  H   UNL     1      -4.617   1.098 -29.508  1.00  0.00     0.159 HD
HETATM   30  O   UNL     1      -2.638   0.542 -30.939  1.00  0.00    -0.266 OA
ENDBRANCH   8  26
TORSDOF 6
ENDMDL
MODEL 5
REMARK VINA RESULT:      -8.1      4.412      7.750
REMARK  6 active torsions:
REMARK  status: ('A' for Active; 'I' for Inactive)
REMARK    1  A    between atoms: C_2  and  C_3 
REMARK    2  A    between atoms: C_3  and  O_4 
REMARK    3  A    between atoms: O_4  and  C_5 
REMARK    4  A    between atoms: C_7  and  C_8 
REMARK       I    between atoms: C_8  and  N_9 
REMARK    5  A    between atoms: N_9  and  C_10 
REMARK    6  A    between atoms: C_17  and  C_18 
REMARK       I    between atoms: C_18  and  N_19 
ROOT
HETATM    1  C   UNL     1      -5.571   0.305 -33.418  1.00  0.00     0.036 A 
HETATM    2  C   UNL     1      -4.851  -0.883 -33.242  1.00  0.00     0.046 A 
HETATM    3  C   UNL     1      -5.276  -2.063 -33.894  1.00  0.00     0.030 A 
HETATM    4  C   UNL     1      -6.416  -2.016 -34.686  1.00  0.00     0.063 A 
HETATM    5  N   UNL     1      -6.575  -3.286 -35.167  1.00  0.00    -0.277 N 
HETATM    6  H   UNL     1      -7.310  -3.623 -35.778  1.00  0.00     0.189 HD
HETATM    7  N   UNL     1      -5.631  -4.154 -34.770  1.00  0.00    -0.168 NA
HETATM    8  C   UNL     1      -4.819  -3.413 -33.982  1.00  0.00     0.156 A 
HETATM    9  C   UNL     1      -7.163  -0.854 -34.879  1.00  0.00     0.034 A 
HETATM   10  C   UNL     1      -6.712   0.305 -34.234  1.00  0.00     0.032 A 
ENDROOT
BRANCH   1  11
HETATM   11  N   UNL     1      -5.216   1.537 -32.823  1.00  0.00    -0.323 N 
HETATM   12  C   UNL     1      -5.266   1.865 -31.480  1.00  0.00     0.256 C 
HETATM   13  O   UNL     1      -5.621   1.133 -30.563  1.00  0.00    -0.267 OA
HETATM   14  H   UNL     1      -4.841   2.230 -33.455  1.00  0.00     0.169 HD
BRANCH  12  15
HETATM   15  C   UNL     1      -4.806   3.242 -31.130  1.00  0.00     0.035 A 
HETATM   16  C   UNL     1      -3.588   3.679 -31.676  1.00  0.00     0.053 A 
HETATM   17  C   UNL     1      -3.098   4.952 -31.385  1.00  0.00     0.069 A 
HETATM   18  C   UNL     1      -3.836   5.792 -30.548  1.00  0.00     0.037 A 
HETATM   19  C   UNL     1      -5.038   5.360 -29.986  1.00  0.00     0.004 A 
HETATM   20  C   UNL     1      -5.522   4.082 -30.268  1.00  0.00     0.017 A 
BRANCH  17  21
HETATM   21  O   UNL     1      -1.928   5.487 -31.850  1.00  0.00    -0.351 OA
BRANCH  21  22
HETATM   22  C   UNL     1      -1.378   4.904 -33.035  1.00  0.00     0.179 C 
BRANCH  22  23
HETATM   23  C   UNL     1      -1.663   5.831 -34.226  1.00  0.00     0.002 C 
HETATM   24  C   UNL     1      -1.835   7.283 -33.774  1.00  0.00     0.011 C 
HETATM   25  C   UNL     1      -2.905   5.360 -34.981  1.00  0.00     0.011 C 
ENDBRANCH  22  23
ENDBRANCH  21  22
ENDBRANCH  17  21
ENDBRANCH  12  15
ENDBRANCH   1  11
BRANCH   8  26
HETATM   26  C   UNL     1      -3.631  -4.002 -33.347  1.00  0.00     0.270 C 
HETATM   27  N   UNL     1      -3.137  -5.099 -33.999  1.00  0.00    -0.365 N 
HETATM   28  H   UNL     1      -3.599  -5.411 -34.845  1.00  0.00     0.159 HD
HETATM   29  H   UNL     1      -2.314  -5.560 -33.644  1.00  0.00     0.159 HD
HETATM   30  O   UNL     1      -3.096  -3.576 -32.330  1.00  0.00    -0.266 OA
ENDBRANCH   8  26
TORSDOF 6
ENDMDL
MODEL 6
REMARK VINA RESULT:      -7.8      4.141      6.060
REMARK  6 active torsions:
REMARK  status: ('A' for Active; 'I' for Inactive)
REMARK    1  A    between atoms: C_2  and  C_3 
REMARK    2  A    between atoms: C_3  and  O_4 
REMARK    3  A    between atoms: O_4  and  C_5 
REMARK    4  A    between atoms: C_7  and  C_8 
REMARK       I    between atoms: C_8  and  N_9 
REMARK    5  A    between atoms: N_9  and  C_10 
REMARK    6  A    between atoms: C_17  and  C_18 
REMARK       I    between atoms: C_18  and  N_19 
ROOT
HETATM    1  C   UNL     1      -8.186   1.962 -33.657  1.00  0.00     0.036 A 
HETATM    2  C   UNL     1      -9.377   2.355 -34.282  1.00  0.00     0.046 A 
HETATM    3  C   UNL     1     -10.562   1.620 -34.054  1.00  0.00     0.030 A 
HETATM    4  C   UNL     1     -10.511   0.509 -33.221  1.00  0.00     0.063 A 
HETATM    5  N   UNL     1     -11.785   0.012 -33.202  1.00  0.00    -0.277 N 
HETATM    6  H   UNL     1     -12.118  -0.802 -32.699  1.00  0.00     0.189 HD
HETATM    7  N   UNL     1     -12.666   0.710 -33.937  1.00  0.00    -0.168 NA
HETATM    8  C   UNL     1     -11.925   1.708 -34.469  1.00  0.00     0.156 A 
HETATM    9  C   UNL     1      -9.343   0.084 -32.588  1.00  0.00     0.034 A 
HETATM   10  C   UNL     1      -8.185   0.838 -32.820  1.00  0.00     0.032 A 
ENDROOT
BRANCH   1  11
HETATM   11  N   UNL     1      -6.956   2.642 -33.810  1.00  0.00    -0.323 N 
HETATM   12  C   UNL     1      -6.422   3.607 -32.974  1.00  0.00     0.256 C 
HETATM   13  O   UNL     1      -6.924   4.037 -31.942  1.00  0.00    -0.267 OA
HETATM   14  H   UNL     1      -6.392   2.346 -34.594  1.00  0.00     0.169 HD
BRANCH  12  15
HETATM   15  C   UNL     1      -5.084   4.142 -33.371  1.00  0.00     0.035 A 
HETATM   16  C   UNL     1      -4.032   4.006 -32.451  1.00  0.00     0.053 A 
HETATM   17  C   UNL     1      -2.759   4.489 -32.756  1.00  0.00     0.069 A 
HETATM   18  C   UNL     1      -2.541   5.103 -33.991  1.00  0.00     0.037 A 
HETATM   19  C   UNL     1      -3.585   5.259 -34.905  1.00  0.00     0.004 A 
HETATM   20  C   UNL     1      -4.861   4.787 -34.594  1.00  0.00     0.017 A 
BRANCH  17  21
HETATM   21  O   UNL     1      -1.661   4.422 -31.944  1.00  0.00    -0.351 OA
BRANCH  21  22
HETATM   22  C   UNL     1      -0.529   5.210 -32.323  1.00  0.00     0.179 C 
BRANCH  22  23
HETATM   23  C   UNL     1      -0.014   5.970 -31.091  1.00  0.00     0.002 C 
HETATM   24  C   UNL     1       0.259   5.019 -29.923  1.00  0.00     0.011 C 
HETATM   25  C   UNL     1      -1.014   7.048 -30.675  1.00  0.00     0.011 C 
ENDBRANCH  22  23
ENDBRANCH  21  22
ENDBRANCH  17  21
ENDBRANCH  12  15
ENDBRANCH   1  11
BRANCH   8  26
HETATM   26  C   UNL     1     -12.532   2.721 -35.345  1.00  0.00     0.270 C 
HETATM   27  N   UNL     1     -13.206   3.706 -34.676  1.00  0.00    -0.365 N 
HETATM   28  H   UNL     1     -13.231   3.675 -33.663  1.00  0.00     0.159 HD
HETATM   29  H   UNL     1     -13.642   4.452 -35.194  1.00  0.00     0.159 HD
HETATM   30  O   UNL     1     -12.460   2.724 -36.569  1.00  0.00    -0.266 OA
ENDBRANCH   8  26
TORSDOF 6
ENDMDL
MODEL 7
REMARK VINA RESULT:      -7.8      3.042      8.731
REMARK  6 active torsions:
REMARK  status: ('A' for Active; 'I' for Inactive)
REMARK    1  A    between atoms: C_2  and  C_3 
REMARK    2  A    between atoms: C_3  and  O_4 
REMARK    3  A    between atoms: O_4  and  C_5 
REMARK    4  A    between atoms: C_7  and  C_8 
REMARK       I    between atoms: C_8  and  N_9 
REMARK    5  A    between atoms: N_9  and  C_10 
REMARK    6  A    between atoms: C_17  and  C_18 
REMARK       I    between atoms: C_18  and  N_19 
ROOT
HETATM    1  C   UNL     1      -7.397  -0.196 -34.085  1.00  0.00     0.036 A 
HETATM    2  C   UNL     1      -7.112  -1.527 -34.413  1.00  0.00     0.046 A 
HETATM    3  C   UNL     1      -5.833  -2.060 -34.134  1.00  0.00     0.030 A 
HETATM    4  C   UNL     1      -4.879  -1.237 -33.550  1.00  0.00     0.063 A 
HETATM    5  N   UNL     1      -3.764  -2.016 -33.412  1.00  0.00    -0.277 N 
HETATM    6  H   UNL     1      -2.868  -1.742 -33.025  1.00  0.00     0.189 HD
HETATM    7  N   UNL     1      -3.911  -3.279 -33.841  1.00  0.00    -0.168 NA
HETATM    8  C   UNL     1      -5.186  -3.323 -34.290  1.00  0.00     0.156 A 
HETATM    9  C   UNL     1      -5.123   0.096 -33.215  1.00  0.00     0.034 A 
HETATM   10  C   UNL     1      -6.403   0.595 -33.490  1.00  0.00     0.032 A 
ENDROOT
BRANCH   1  11
HETATM   11  N   UNL     1      -8.649   0.420 -34.309  1.00  0.00    -0.323 N 
HETATM   12  C   UNL     1      -9.712   0.504 -33.428  1.00  0.00     0.256 C 
HETATM   13  O   UNL     1      -9.749   0.062 -32.285  1.00  0.00    -0.267 OA
HETATM   14  H   UNL     1      -8.747   0.889 -35.199  1.00  0.00     0.169 HD
BRANCH  12  15
HETATM   15  C   UNL     1     -10.913   1.238 -33.927  1.00  0.00     0.035 A 
HETATM   16  C   UNL     1     -10.705   2.480 -34.548  1.00  0.00     0.053 A 
HETATM   17  C   UNL     1     -11.783   3.221 -35.031  1.00  0.00     0.069 A 
HETATM   18  C   UNL     1     -13.076   2.709 -34.897  1.00  0.00     0.037 A 
HETATM   19  C   UNL     1     -13.296   1.484 -34.265  1.00  0.00     0.004 A 
HETATM   20  C   UNL     1     -12.217   0.749 -33.770  1.00  0.00     0.017 A 
BRANCH  17  21
HETATM   21  O   UNL     1     -11.708   4.440 -35.646  1.00  0.00    -0.351 OA
BRANCH  21  22
HETATM   22  C   UNL     1     -12.860   5.282 -35.552  1.00  0.00     0.179 C 
BRANCH  22  23
HETATM   23  C   UNL     1     -12.401   6.743 -35.424  1.00  0.00     0.002 C 
HETATM   24  C   UNL     1     -13.100   7.639 -36.450  1.00  0.00     0.011 C 
HETATM   25  C   UNL     1     -10.884   6.839 -35.582  1.00  0.00     0.011 C 
ENDBRANCH  22  23
ENDBRANCH  21  22
ENDBRANCH  17  21
ENDBRANCH  12  15
ENDBRANCH   1  11
BRANCH   8  26
HETATM   26  C   UNL     1      -5.756  -4.561 -34.842  1.00  0.00     0.270 C 
HETATM   27  N   UNL     1      -7.046  -4.434 -35.280  1.00  0.00    -0.365 N 
HETATM   28  H   UNL     1      -7.498  -3.529 -35.204  1.00  0.00     0.159 HD
HETATM   29  H   UNL     1      -7.514  -5.227 -35.688  1.00  0.00     0.159 HD
HETATM   30  O   UNL     1      -5.162  -5.630 -34.927  1.00  0.00    -0.266 OA
ENDBRANCH   8  26
TORSDOF 6
ENDMDL
MODEL 8
REMARK VINA RESULT:      -7.7      5.749      8.596
REMARK  6 active torsions:
REMARK  status: ('A' for Active; 'I' for Inactive)
REMARK    1  A    between atoms: C_2  and  C_3 
REMARK    2  A    between atoms: C_3  and  O_4 
REMARK    3  A    between atoms: O_4  and  C_5 
REMARK    4  A    between atoms: C_7  and  C_8 
REMARK       I    between atoms: C_8  and  N_9 
REMARK    5  A    between atoms: N_9  and  C_10 
REMARK    6  A    between atoms: C_17  and  C_18 
REMARK       I    between atoms: C_18  and  N_19 
ROOT
HETATM    1  C   UNL     1      -3.929   2.123 -32.180  1.00  0.00     0.036 A 
HETATM    2  C   UNL     1      -5.309   2.339 -32.076  1.00  0.00     0.046 A 
HETATM    3  C   UNL     1      -6.205   1.274 -32.322  1.00  0.00     0.030 A 
HETATM    4  C   UNL     1      -5.690   0.035 -32.679  1.00  0.00     0.063 A 
HETATM    5  N   UNL     1      -6.779  -0.773 -32.856  1.00  0.00    -0.277 N 
HETATM    6  H   UNL     1      -6.781  -1.750 -33.126  1.00  0.00     0.189 HD
HETATM    7  N   UNL     1      -7.959  -0.174 -32.631  1.00  0.00    -0.168 NA
HETATM    8  C   UNL     1      -7.622   1.093 -32.299  1.00  0.00     0.156 A 
HETATM    9  C   UNL     1      -4.323  -0.216 -32.800  1.00  0.00     0.034 A 
HETATM   10  C   UNL     1      -3.456   0.852 -32.537  1.00  0.00     0.032 A 
ENDROOT
BRANCH   1  11
HETATM   11  N   UNL     1      -2.955   3.119 -31.937  1.00  0.00    -0.323 N 
HETATM   12  C   UNL     1      -2.702   4.246 -32.698  1.00  0.00     0.256 C 
HETATM   13  O   UNL     1      -3.289   4.585 -33.718  1.00  0.00    -0.267 OA
HETATM   14  H   UNL     1      -2.425   3.006 -31.085  1.00  0.00     0.169 HD
BRANCH  12  15
HETATM   15  C   UNL     1      -1.621   5.143 -32.188  1.00  0.00     0.035 A 
HETATM   16  C   UNL     1      -1.071   4.849 -30.930  1.00  0.00     0.053 A 
HETATM   17  C   UNL     1      -0.064   5.650 -30.393  1.00  0.00     0.069 A 
HETATM   18  C   UNL     1       0.400   6.745 -31.125  1.00  0.00     0.037 A 
HETATM   19  C   UNL     1      -0.152   7.056 -32.369  1.00  0.00     0.004 A 
HETATM   20  C   UNL     1      -1.170   6.262 -32.900  1.00  0.00     0.017 A 
BRANCH  17  21
HETATM   21  O   UNL     1       0.544   5.470 -29.181  1.00  0.00    -0.351 OA
BRANCH  21  22
HETATM   22  C   UNL     1       0.016   6.213 -28.078  1.00  0.00     0.179 C 
BRANCH  22  23
HETATM   23  C   UNL     1       0.876   7.468 -27.864  1.00  0.00     0.002 C 
HETATM   24  C   UNL     1       1.530   7.467 -26.480  1.00  0.00     0.011 C 
HETATM   25  C   UNL     1       0.032   8.728 -28.051  1.00  0.00     0.011 C 
ENDBRANCH  22  23
ENDBRANCH  21  22
ENDBRANCH  17  21
ENDBRANCH  12  15
ENDBRANCH   1  11
BRANCH   8  26
HETATM   26  C   UNL     1      -8.648   2.090 -31.959  1.00  0.00     0.270 C 
HETATM   27  N   UNL     1      -9.390   1.771 -30.854  1.00  0.00    -0.365 N 
HETATM   28  H   UNL     1      -9.183   0.910 -30.362  1.00  0.00     0.159 HD
HETATM   29  H   UNL     1     -10.108   2.403 -30.537  1.00  0.00     0.159 HD
HETATM   30  O   UNL     1      -8.850   3.129 -32.578  1.00  0.00    -0.266 OA
ENDBRANCH   8  26
TORSDOF 6
ENDMDL
MODEL 9
REMARK VINA RESULT:      -7.4      3.421      8.587
REMARK  6 active torsions:
REMARK  status: ('A' for Active; 'I' for Inactive)
REMARK    1  A    between atoms: C_2  and  C_3 
REMARK    2  A    between atoms: C_3  and  O_4 
REMARK    3  A    between atoms: O_4  and  C_5 
REMARK    4  A    between atoms: C_7  and  C_8 
REMARK       I    between atoms: C_8  and  N_9 
REMARK    5  A    between atoms: N_9  and  C_10 
REMARK    6  A    between atoms: C_17  and  C_18 
REMARK       I    between atoms: C_18  and  N_19 
ROOT
HETATM    1  C   UNL     1      -6.967   0.185 -33.229  1.00  0.00     0.036 A 
HETATM    2  C   UNL     1      -5.815  -0.397 -32.685  1.00  0.00     0.046 A 
HETATM    3  C   UNL     1      -5.219  -1.503 -33.331  1.00  0.00     0.030 A 
HETATM    4  C   UNL     1      -5.804  -1.999 -34.489  1.00  0.00     0.063 A 
HETATM    5  N   UNL     1      -5.021  -3.053 -34.869  1.00  0.00    -0.277 N 
HETATM    6  H   UNL     1      -5.152  -3.656 -35.673  1.00  0.00     0.189 HD
HETATM    7  N   UNL     1      -3.967  -3.279 -34.069  1.00  0.00    -0.168 NA
HETATM    8  C   UNL     1      -4.074  -2.329 -33.113  1.00  0.00     0.156 A 
HETATM    9  C   UNL     1      -6.955  -1.450 -35.055  1.00  0.00     0.034 A 
HETATM   10  C   UNL     1      -7.519  -0.345 -34.404  1.00  0.00     0.032 A 
ENDROOT
BRANCH   1  11
HETATM   11  N   UNL     1      -7.626   1.303 -32.667  1.00  0.00    -0.323 N 
HETATM   12  C   UNL     1      -8.754   1.297 -31.867  1.00  0.00     0.256 C 
HETATM   13  O   UNL     1      -9.379   0.310 -31.495  1.00  0.00    -0.267 OA
HETATM   14  H   UNL     1      -7.184   2.196 -32.838  1.00  0.00     0.169 HD
BRANCH  12  15
HETATM   15  C   UNL     1      -9.222   2.634 -31.393  1.00  0.00     0.035 A 
HETATM   16  C   UNL     1     -10.410   3.140 -31.943  1.00  0.00     0.053 A 
HETATM   17  C   UNL     1     -10.899   4.385 -31.549  1.00  0.00     0.069 A 
HETATM   18  C   UNL     1     -10.197   5.122 -30.593  1.00  0.00     0.037 A 
HETATM   19  C   UNL     1      -9.005   4.636 -30.053  1.00  0.00     0.004 A 
HETATM   20  C   UNL     1      -8.509   3.396 -30.457  1.00  0.00     0.017 A 
BRANCH  17  21
HETATM   21  O   UNL     1     -12.037   4.984 -32.015  1.00  0.00    -0.351 OA
BRANCH  21  22
HETATM   22  C   UNL     1     -13.023   4.129 -32.601  1.00  0.00     0.179 C 
BRANCH  22  23
HETATM   23  C   UNL     1     -14.086   3.793 -31.543  1.00  0.00     0.002 C 
HETATM   24  C   UNL     1     -14.926   2.584 -31.961  1.00  0.00     0.011 C 
HETATM   25  C   UNL     1     -14.984   5.003 -31.290  1.00  0.00     0.011 C 
ENDBRANCH  22  23
ENDBRANCH  21  22
ENDBRANCH  17  21
ENDBRANCH  12  15
ENDBRANCH   1  11
BRANCH   8  26
HETATM   26  C   UNL     1      -3.085  -2.224 -32.031  1.00  0.00     0.270 C 
HETATM   27  N   UNL     1      -2.745  -3.424 -31.468  1.00  0.00    -0.365 N 
HETATM   28  H   UNL     1      -3.175  -4.268 -31.828  1.00  0.00     0.159 HD
HETATM   29  H   UNL     1      -2.062  -3.452 -30.728  1.00  0.00     0.159 HD
HETATM   30  O   UNL     1      -2.579  -1.178 -31.641  1.00  0.00    -0.266 OA
ENDBRANCH   8  26
TORSDOF 6
ENDMDL
MODEL 10
REMARK VINA RESULT:      -7.3      5.133      8.802
REMARK  6 active torsions:
REMARK  status: ('A' for Active; 'I' for Inactive)
REMARK    1  A    between atoms: C_2  and  C_3 
REMARK    2  A    between atoms: C_3  and  O_4 
REMARK    3  A    between atoms: O_4  and  C_5 
REMARK    4  A    between atoms: C_7  and  C_8 
REMARK       I    between atoms: C_8  and  N_9 
REMARK    5  A    between atoms: N_9  and  C_10 
REMARK    6  A    between atoms: C_17  and  C_18 
REMARK       I    between atoms: C_18  and  N_19 
ROOT
HETATM    1  C   UNL     1      -5.409   1.304 -32.839  1.00  0.00     0.036 A 
HETATM    2  C   UNL     1      -4.724   0.112 -32.571  1.00  0.00     0.046 A 
HETATM    3  C   UNL     1      -4.979  -1.035 -33.357  1.00  0.00     0.030 A 
HETATM    4  C   UNL     1      -5.922  -0.953 -34.374  1.00  0.00     0.063 A 
HETATM    5  N   UNL     1      -5.953  -2.197 -34.940  1.00  0.00    -0.277 N 
HETATM    6  H   UNL     1      -6.533  -2.505 -35.712  1.00  0.00     0.189 HD
HETATM    7  N   UNL     1      -5.102  -3.079 -34.392  1.00  0.00    -0.168 NA
HETATM    8  C   UNL     1      -4.492  -2.376 -33.412  1.00  0.00     0.156 A 
HETATM    9  C   UNL     1      -6.629   0.214 -34.666  1.00  0.00     0.034 A 
HETATM   10  C   UNL     1      -6.347   1.340 -33.881  1.00  0.00     0.032 A 
ENDROOT
BRANCH   1  11
HETATM   11  N   UNL     1      -5.211   2.505 -32.121  1.00  0.00    -0.323 N 
HETATM   12  C   UNL     1      -4.087   3.311 -32.129  1.00  0.00     0.256 C 
HETATM   13  O   UNL     1      -3.061   3.127 -32.775  1.00  0.00    -0.267 OA
HETATM   14  H   UNL     1      -6.005   2.823 -31.583  1.00  0.00     0.169 HD
BRANCH  12  15
HETATM   15  C   UNL     1      -4.163   4.542 -31.285  1.00  0.00     0.035 A 
HETATM   16  C   UNL     1      -3.001   5.321 -31.165  1.00  0.00     0.053 A 
HETATM   17  C   UNL     1      -3.002   6.478 -30.387  1.00  0.00     0.069 A 
HETATM   18  C   UNL     1      -4.177   6.860 -29.735  1.00  0.00     0.037 A 
HETATM   19  C   UNL     1      -5.332   6.083 -29.833  1.00  0.00     0.004 A 
HETATM   20  C   UNL     1      -5.327   4.917 -30.601  1.00  0.00     0.017 A 
BRANCH  17  21
HETATM   21  O   UNL     1      -1.937   7.313 -30.190  1.00  0.00    -0.351 OA
BRANCH  21  22
HETATM   22  C   UNL     1      -1.318   7.275 -28.901  1.00  0.00     0.179 C 
BRANCH  22  23
HETATM   23  C   UNL     1       0.184   7.002 -29.075  1.00  0.00     0.002 C 
HETATM   24  C   UNL     1       1.029   8.085 -28.400  1.00  0.00     0.011 C 
HETATM   25  C   UNL     1       0.536   6.902 -30.558  1.00  0.00     0.011 C 
ENDBRANCH  22  23
ENDBRANCH  21  22
ENDBRANCH  17  21
ENDBRANCH  12  15
ENDBRANCH   1  11
BRANCH   8  26
HETATM   26  C   UNL     1      -3.459  -2.990 -32.565  1.00  0.00     0.270 C 
HETATM   27  N   UNL     1      -2.857  -2.118 -31.699  1.00  0.00    -0.365 N 
HETATM   28  H   UNL     1      -3.159  -1.151 -31.695  1.00  0.00     0.159 HD
HETATM   29  H   UNL     1      -2.147  -2.454 -31.068  1.00  0.00     0.159 HD
HETATM   30  O   UNL     1      -3.139  -4.173 -32.595  1.00  0.00    -0.266 OA
ENDBRANCH   8  26
TORSDOF 6
ENDMDL
