MODEL 1
REMARK VINA RESULT:      -7.5      0.000      0.000
REMARK  7 active torsions:
REMARK  status: ('A' for Active; 'I' for Inactive)
REMARK    1  A    between atoms: C_2  and  N_3 
REMARK    2  A    between atoms: C_6  and  C_7 
REMARK    3  A    between atoms: C_7  and  O_8 
REMARK    4  A    between atoms: O_8  and  C_9 
REMARK    5  A    between atoms: C_9  and  C_10 
REMARK    6  A    between atoms: C_12  and  N_13 
REMARK    7  A    between atoms: C_22  and  N_23 
ROOT
HETATM    1  O   UNL     1      -5.741   3.052 -30.153  1.00  0.00    -0.310 OA
ENDROOT
BRANCH   1   2
HETATM    2  C   UNL     1      -6.127   3.743 -31.265  1.00  0.00     0.299 C 
HETATM    3  O   UNL     1      -7.280   3.802 -31.674  1.00  0.00    -0.259 OA
BRANCH   2   4
HETATM    4  C   UNL     1      -5.025   4.389 -31.949  1.00  0.00     0.103 A 
HETATM    5  C   UNL     1      -5.125   5.499 -32.818  1.00  0.00     0.160 A 
HETATM    6  N   UNL     1      -3.949   5.880 -33.318  1.00  0.00    -0.182 NA
HETATM    7  N   UNL     1      -3.080   4.977 -32.812  1.00  0.00    -0.250 N 
HETATM    8  C   UNL     1      -3.672   4.093 -31.930  1.00  0.00     0.136 A 
BRANCH   7   9
HETATM    9  C   UNL     1      -1.681   5.017 -33.232  1.00  0.00     0.104 C 
HETATM   10  C   UNL     1      -0.902   6.052 -32.423  1.00  0.00     0.034 C 
HETATM   11  C   UNL     1      -1.525   5.261 -34.736  1.00  0.00     0.034 C 
ENDBRANCH   7   9
BRANCH   8  12
HETATM   12  N   UNL     1      -2.982   3.145 -31.253  1.00  0.00    -0.383 N 
HETATM   13  H   UNL     1      -3.148   3.050 -30.250  1.00  0.00     0.157 HD
HETATM   14  H   UNL     1      -2.034   2.884 -31.509  1.00  0.00     0.157 HD
ENDBRANCH   8  12
ENDBRANCH   2   4
ENDBRANCH   1   2
BRANCH   1  15
HETATM   15  C   UNL     1      -6.348   1.757 -30.020  1.00  0.00     0.259 C 
BRANCH  15  16
HETATM   16  C   UNL     1      -5.782   0.695 -30.941  1.00  0.00     0.152 A 
HETATM   17  N   UNL     1      -4.485   0.358 -30.810  1.00  0.00    -0.219 NA
HETATM   18  C   UNL     1      -4.022  -0.575 -31.652  1.00  0.00     0.115 A 
HETATM   19  C   UNL     1      -4.798  -1.162 -32.658  1.00  0.00     0.033 A 
HETATM   20  C   UNL     1      -6.124  -0.721 -32.715  1.00  0.00     0.072 A 
HETATM   21  C   UNL     1      -4.336  -2.128 -33.586  1.00  0.00     0.017 A 
HETATM   22  N   UNL     1      -6.613   0.199 -31.877  1.00  0.00    -0.231 NA
HETATM   23  C   UNL     1      -6.960  -1.262 -33.684  1.00  0.00     0.032 A 
HETATM   24  C   UNL     1      -6.512  -2.223 -34.596  1.00  0.00     0.002 A 
HETATM   25  C   UNL     1      -5.194  -2.656 -34.549  1.00  0.00     0.001 A 
BRANCH  18  26
HETATM   26  N   UNL     1      -2.677  -0.919 -31.465  1.00  0.00    -0.286 NA
HETATM   27  H   UNL     1      -2.230  -0.857 -32.377  1.00  0.00     0.125 HD
HETATM   28  H   UNL     1      -2.237  -0.293 -30.799  1.00  0.00     0.125 HD
ENDBRANCH  18  26
ENDBRANCH  15  16
ENDBRANCH   1  15
TORSDOF 7
ENDMDL
MODEL 2
REMARK VINA RESULT:      -7.4      2.370      3.208
REMARK  7 active torsions:
REMARK  status: ('A' for Active; 'I' for Inactive)
REMARK    1  A    between atoms: C_2  and  N_3 
REMARK    2  A    between atoms: C_6  and  C_7 
REMARK    3  A    between atoms: C_7  and  O_8 
REMARK    4  A    between atoms: O_8  and  C_9 
REMARK    5  A    between atoms: C_9  and  C_10 
REMARK    6  A    between atoms: C_12  and  N_13 
REMARK    7  A    between atoms: C_22  and  N_23 
ROOT
HETATM    1  O   UNL     1      -4.953   5.599 -33.212  1.00  0.00    -0.310 OA
ENDROOT
BRANCH   1   2
HETATM    2  C   UNL     1      -3.794   5.787 -33.907  1.00  0.00     0.299 C 
HETATM    3  O   UNL     1      -3.698   5.698 -35.125  1.00  0.00    -0.259 OA
BRANCH   2   4
HETATM    4  C   UNL     1      -2.657   6.079 -33.057  1.00  0.00     0.103 A 
HETATM    5  C   UNL     1      -1.687   7.081 -33.286  1.00  0.00     0.160 A 
HETATM    6  N   UNL     1      -0.742   7.120 -32.345  1.00  0.00    -0.182 NA
HETATM    7  N   UNL     1      -1.070   6.099 -31.523  1.00  0.00    -0.250 N 
HETATM    8  C   UNL     1      -2.254   5.479 -31.876  1.00  0.00     0.136 A 
BRANCH   7   9
HETATM    9  C   UNL     1      -0.185   5.765 -30.409  1.00  0.00     0.104 C 
HETATM   10  C   UNL     1       0.241   7.026 -29.658  1.00  0.00     0.034 C 
HETATM   11  C   UNL     1       1.032   4.947 -30.850  1.00  0.00     0.034 C 
ENDBRANCH   7   9
BRANCH   8  12
HETATM   12  N   UNL     1      -2.810   4.476 -31.157  1.00  0.00    -0.383 N 
HETATM   13  H   UNL     1      -3.040   3.605 -31.639  1.00  0.00     0.157 HD
HETATM   14  H   UNL     1      -3.434   4.656 -30.376  1.00  0.00     0.157 HD
ENDBRANCH   8  12
ENDBRANCH   2   4
ENDBRANCH   1   2
BRANCH   1  15
HETATM   15  C   UNL     1      -5.923   4.783 -33.887  1.00  0.00     0.259 C 
BRANCH  15  16
HETATM   16  C   UNL     1      -5.798   3.298 -33.616  1.00  0.00     0.152 A 
HETATM   17  N   UNL     1      -4.948   2.890 -32.656  1.00  0.00    -0.219 NA
HETATM   18  C   UNL     1      -4.859   1.568 -32.457  1.00  0.00     0.115 A 
HETATM   19  C   UNL     1      -5.561   0.623 -33.215  1.00  0.00     0.033 A 
HETATM   20  C   UNL     1      -6.399   1.159 -34.198  1.00  0.00     0.072 A 
HETATM   21  C   UNL     1      -5.470  -0.781 -33.055  1.00  0.00     0.017 A 
HETATM   22  N   UNL     1      -6.514   2.475 -34.406  1.00  0.00    -0.231 NA
HETATM   23  C   UNL     1      -7.135   0.285 -34.988  1.00  0.00     0.032 A 
HETATM   24  C   UNL     1      -7.056  -1.102 -34.829  1.00  0.00     0.002 A 
HETATM   25  C   UNL     1      -6.219  -1.638 -33.860  1.00  0.00     0.001 A 
BRANCH  18  26
HETATM   26  N   UNL     1      -3.985   1.187 -31.430  1.00  0.00    -0.286 NA
HETATM   27  H   UNL     1      -3.513   2.033 -31.119  1.00  0.00     0.125 HD
HETATM   28  H   UNL     1      -4.495   0.752 -30.670  1.00  0.00     0.125 HD
ENDBRANCH  18  26
ENDBRANCH  15  16
ENDBRANCH   1  15
TORSDOF 7
ENDMDL
MODEL 3
REMARK VINA RESULT:      -7.4      1.967      3.110
REMARK  7 active torsions:
REMARK  status: ('A' for Active; 'I' for Inactive)
REMARK    1  A    between atoms: C_2  and  N_3 
REMARK    2  A    between atoms: C_6  and  C_7 
REMARK    3  A    between atoms: C_7  and  O_8 
REMARK    4  A    between atoms: O_8  and  C_9 
REMARK    5  A    between atoms: C_9  and  C_10 
REMARK    6  A    between atoms: C_12  and  N_13 
REMARK    7  A    between atoms: C_22  and  N_23 
ROOT
HETATM    1  O   UNL     1      -4.138   2.020 -32.740  1.00  0.00    -0.310 OA
ENDROOT
BRANCH   1   2
HETATM    2  C   UNL     1      -4.076   2.901 -31.700  1.00  0.00     0.299 C 
HETATM    3  O   UNL     1      -4.734   2.800 -30.670  1.00  0.00    -0.259 OA
BRANCH   2   4
HETATM    4  C   UNL     1      -3.168   4.005 -31.937  1.00  0.00     0.103 A 
HETATM    5  C   UNL     1      -2.284   4.130 -33.032  1.00  0.00     0.160 A 
HETATM    6  N   UNL     1      -1.554   5.245 -32.991  1.00  0.00    -0.182 NA
HETATM    7  N   UNL     1      -1.927   5.827 -31.831  1.00  0.00    -0.250 N 
HETATM    8  C   UNL     1      -2.945   5.148 -31.188  1.00  0.00     0.136 A 
BRANCH   7   9
HETATM    9  C   UNL     1      -1.249   7.045 -31.390  1.00  0.00     0.104 C 
HETATM   10  C   UNL     1      -1.653   8.234 -32.260  1.00  0.00     0.034 C 
HETATM   11  C   UNL     1       0.273   6.886 -31.343  1.00  0.00     0.034 C 
ENDBRANCH   7   9
BRANCH   8  12
HETATM   12  N   UNL     1      -3.522   5.584 -30.043  1.00  0.00    -0.383 N 
HETATM   13  H   UNL     1      -4.027   6.472 -30.064  1.00  0.00     0.157 HD
HETATM   14  H   UNL     1      -3.117   5.397 -29.130  1.00  0.00     0.157 HD
ENDBRANCH   8  12
ENDBRANCH   2   4
ENDBRANCH   1   2
BRANCH   1  15
HETATM   15  C   UNL     1      -3.747   0.679 -32.405  1.00  0.00     0.259 C 
BRANCH  15  16
HETATM   16  C   UNL     1      -4.491  -0.404 -33.160  1.00  0.00     0.152 A 
HETATM   17  N   UNL     1      -5.650  -0.084 -33.763  1.00  0.00    -0.219 NA
HETATM   18  C   UNL     1      -6.282  -1.074 -34.409  1.00  0.00     0.115 A 
HETATM   19  C   UNL     1      -5.819  -2.394 -34.442  1.00  0.00     0.033 A 
HETATM   20  C   UNL     1      -4.616  -2.615 -33.764  1.00  0.00     0.072 A 
HETATM   21  C   UNL     1      -6.473  -3.473 -35.086  1.00  0.00     0.017 A 
HETATM   22  N   UNL     1      -3.961  -1.642 -33.124  1.00  0.00    -0.231 NA
HETATM   23  C   UNL     1      -4.087  -3.900 -33.756  1.00  0.00     0.032 A 
HETATM   24  C   UNL     1      -4.724  -4.967 -34.400  1.00  0.00     0.002 A 
HETATM   25  C   UNL     1      -5.923  -4.753 -35.065  1.00  0.00     0.001 A 
BRANCH  18  26
HETATM   26  N   UNL     1      -7.470  -0.694 -35.047  1.00  0.00    -0.286 NA
HETATM   27  H   UNL     1      -7.329   0.256 -35.385  1.00  0.00     0.125 HD
HETATM   28  H   UNL     1      -7.684  -1.325 -35.810  1.00  0.00     0.125 HD
ENDBRANCH  18  26
ENDBRANCH  15  16
ENDBRANCH   1  15
TORSDOF 7
ENDMDL
MODEL 4
REMARK VINA RESULT:      -7.3      2.780      4.629
REMARK  7 active torsions:
REMARK  status: ('A' for Active; 'I' for Inactive)
REMARK    1  A    between atoms: C_2  and  N_3 
REMARK    2  A    between atoms: C_6  and  C_7 
REMARK    3  A    between atoms: C_7  and  O_8 
REMARK    4  A    between atoms: O_8  and  C_9 
REMARK    5  A    between atoms: C_9  and  C_10 
REMARK    6  A    between atoms: C_12  and  N_13 
REMARK    7  A    between atoms: C_22  and  N_23 
ROOT
HETATM    1  O   UNL     1      -3.344   1.620 -32.768  1.00  0.00    -0.310 OA
ENDROOT
BRANCH   1   2
HETATM    2  C   UNL     1      -3.556   2.533 -31.776  1.00  0.00     0.299 C 
HETATM    3  O   UNL     1      -2.671   3.201 -31.255  1.00  0.00    -0.259 OA
BRANCH   2   4
HETATM    4  C   UNL     1      -4.943   2.623 -31.367  1.00  0.00     0.103 A 
HETATM    5  C   UNL     1      -5.408   2.766 -30.040  1.00  0.00     0.160 A 
HETATM    6  N   UNL     1      -6.738   2.811 -29.954  1.00  0.00    -0.182 NA
HETATM    7  N   UNL     1      -7.146   2.643 -31.230  1.00  0.00    -0.250 N 
HETATM    8  C   UNL     1      -6.098   2.587 -32.130  1.00  0.00     0.136 A 
BRANCH   7   9
HETATM    9  C   UNL     1      -8.575   2.535 -31.517  1.00  0.00     0.104 C 
HETATM   10  C   UNL     1      -9.398   3.237 -30.439  1.00  0.00     0.034 C 
HETATM   11  C   UNL     1      -9.029   1.084 -31.701  1.00  0.00     0.034 C 
ENDBRANCH   7   9
BRANCH   8  12
HETATM   12  N   UNL     1      -6.273   2.490 -33.469  1.00  0.00    -0.383 N 
HETATM   13  H   UNL     1      -6.579   1.595 -33.853  1.00  0.00     0.157 HD
HETATM   14  H   UNL     1      -5.698   3.011 -34.126  1.00  0.00     0.157 HD
ENDBRANCH   8  12
ENDBRANCH   2   4
ENDBRANCH   1   2
BRANCH   1  15
HETATM   15  C   UNL     1      -3.288   0.257 -32.317  1.00  0.00     0.259 C 
BRANCH  15  16
HETATM   16  C   UNL     1      -4.162  -0.703 -33.098  1.00  0.00     0.152 A 
HETATM   17  N   UNL     1      -5.299  -0.235 -33.647  1.00  0.00    -0.219 NA
HETATM   18  C   UNL     1      -6.048  -1.120 -34.318  1.00  0.00     0.115 A 
HETATM   19  C   UNL     1      -5.727  -2.477 -34.430  1.00  0.00     0.033 A 
HETATM   20  C   UNL     1      -4.535  -2.856 -33.804  1.00  0.00     0.072 A 
HETATM   21  C   UNL     1      -6.508  -3.449 -35.104  1.00  0.00     0.017 A 
HETATM   22  N   UNL     1      -3.764  -1.989 -33.140  1.00  0.00    -0.231 NA
HETATM   23  C   UNL     1      -4.144  -4.187 -33.876  1.00  0.00     0.032 A 
HETATM   24  C   UNL     1      -4.906  -5.148 -34.548  1.00  0.00     0.002 A 
HETATM   25  C   UNL     1      -6.094  -4.778 -35.162  1.00  0.00     0.001 A 
BRANCH  18  26
HETATM   26  N   UNL     1      -7.207  -0.587 -34.898  1.00  0.00    -0.286 NA
HETATM   27  H   UNL     1      -7.890  -0.491 -34.149  1.00  0.00     0.125 HD
HETATM   28  H   UNL     1      -7.011   0.308 -35.332  1.00  0.00     0.125 HD
ENDBRANCH  18  26
ENDBRANCH  15  16
ENDBRANCH   1  15
TORSDOF 7
ENDMDL
MODEL 5
REMARK VINA RESULT:      -7.0      1.676      2.183
REMARK  7 active torsions:
REMARK  status: ('A' for Active; 'I' for Inactive)
REMARK    1  A    between atoms: C_2  and  N_3 
REMARK    2  A    between atoms: C_6  and  C_7 
REMARK    3  A    between atoms: C_7  and  O_8 
REMARK    4  A    between atoms: O_8  and  C_9 
REMARK    5  A    between atoms: C_9  and  C_10 
REMARK    6  A    between atoms: C_12  and  N_13 
REMARK    7  A    between atoms: C_22  and  N_23 
ROOT
HETATM    1  O   UNL     1      -5.129   2.970 -33.059  1.00  0.00    -0.310 OA
ENDROOT
BRANCH   1   2
HETATM    2  C   UNL     1      -4.995   4.189 -32.461  1.00  0.00     0.299 C 
HETATM    3  O   UNL     1      -5.929   4.947 -32.225  1.00  0.00    -0.259 OA
BRANCH   2   4
HETATM    4  C   UNL     1      -3.621   4.527 -32.150  1.00  0.00     0.103 A 
HETATM    5  C   UNL     1      -2.484   4.146 -32.899  1.00  0.00     0.160 A 
HETATM    6  N   UNL     1      -1.340   4.587 -32.374  1.00  0.00    -0.182 NA
HETATM    7  N   UNL     1      -1.730   5.217 -31.244  1.00  0.00    -0.250 N 
HETATM    8  C   UNL     1      -3.103   5.261 -31.096  1.00  0.00     0.136 A 
BRANCH   7   9
HETATM    9  C   UNL     1      -0.716   5.751 -30.336  1.00  0.00     0.104 C 
HETATM   10  C   UNL     1      -0.511   7.245 -30.573  1.00  0.00     0.034 C 
HETATM   11  C   UNL     1       0.610   4.990 -30.423  1.00  0.00     0.034 C 
ENDBRANCH   7   9
BRANCH   8  12
HETATM   12  N   UNL     1      -3.720   5.900 -30.074  1.00  0.00    -0.383 N 
HETATM   13  H   UNL     1      -3.371   5.746 -29.126  1.00  0.00     0.157 HD
HETATM   14  H   UNL     1      -4.717   6.097 -30.086  1.00  0.00     0.157 HD
ENDBRANCH   8  12
ENDBRANCH   2   4
ENDBRANCH   1   2
BRANCH   1  15
HETATM   15  C   UNL     1      -5.669   1.947 -32.207  1.00  0.00     0.259 C 
BRANCH  15  16
HETATM   16  C   UNL     1      -5.193   0.544 -32.524  1.00  0.00     0.152 A 
HETATM   17  N   UNL     1      -4.057   0.107 -31.949  1.00  0.00    -0.219 NA
HETATM   18  C   UNL     1      -3.666  -1.135 -32.266  1.00  0.00     0.115 A 
HETATM   19  C   UNL     1      -4.348  -1.952 -33.176  1.00  0.00     0.033 A 
HETATM   20  C   UNL     1      -5.503  -1.387 -33.726  1.00  0.00     0.072 A 
HETATM   21  C   UNL     1      -3.949  -3.256 -33.559  1.00  0.00     0.017 A 
HETATM   22  N   UNL     1      -5.920  -0.156 -33.416  1.00  0.00    -0.231 NA
HETATM   23  C   UNL     1      -6.239  -2.139 -34.634  1.00  0.00     0.032 A 
HETATM   24  C   UNL     1      -5.855  -3.431 -35.008  1.00  0.00     0.002 A 
HETATM   25  C   UNL     1      -4.704  -3.991 -34.471  1.00  0.00     0.001 A 
BRANCH  18  26
HETATM   26  N   UNL     1      -2.495  -1.562 -31.626  1.00  0.00    -0.286 NA
HETATM   27  H   UNL     1      -2.045  -0.729 -31.254  1.00  0.00     0.125 HD
HETATM   28  H   UNL     1      -2.712  -2.221 -30.887  1.00  0.00     0.125 HD
ENDBRANCH  18  26
ENDBRANCH  15  16
ENDBRANCH   1  15
TORSDOF 7
ENDMDL
MODEL 6
REMARK VINA RESULT:      -6.9      2.402      3.713
REMARK  7 active torsions:
REMARK  status: ('A' for Active; 'I' for Inactive)
REMARK    1  A    between atoms: C_2  and  N_3 
REMARK    2  A    between atoms: C_6  and  C_7 
REMARK    3  A    between atoms: C_7  and  O_8 
REMARK    4  A    between atoms: O_8  and  C_9 
REMARK    5  A    between atoms: C_9  and  C_10 
REMARK    6  A    between atoms: C_12  and  N_13 
REMARK    7  A    between atoms: C_22  and  N_23 
ROOT
HETATM    1  O   UNL     1      -4.946   5.434 -33.198  1.00  0.00    -0.310 OA
ENDROOT
BRANCH   1   2
HETATM    2  C   UNL     1      -3.826   5.711 -33.928  1.00  0.00     0.299 C 
HETATM    3  O   UNL     1      -3.772   5.664 -35.151  1.00  0.00    -0.259 OA
BRANCH   2   4
HETATM    4  C   UNL     1      -2.677   6.045 -33.111  1.00  0.00     0.103 A 
HETATM    5  C   UNL     1      -1.681   6.995 -33.429  1.00  0.00     0.160 A 
HETATM    6  N   UNL     1      -0.730   7.089 -32.499  1.00  0.00    -0.182 NA
HETATM    7  N   UNL     1      -1.081   6.154 -31.589  1.00  0.00    -0.250 N 
HETATM    8  C   UNL     1      -2.283   5.539 -31.883  1.00  0.00     0.136 A 
BRANCH   7   9
HETATM    9  C   UNL     1      -0.199   5.894 -30.453  1.00  0.00     0.104 C 
HETATM   10  C   UNL     1       0.289   7.203 -29.836  1.00  0.00     0.034 C 
HETATM   11  C   UNL     1       0.976   4.983 -30.819  1.00  0.00     0.034 C 
ENDBRANCH   7   9
BRANCH   8  12
HETATM   12  N   UNL     1      -2.863   4.618 -31.077  1.00  0.00    -0.383 N 
HETATM   13  H   UNL     1      -2.536   3.652 -31.132  1.00  0.00     0.157 HD
HETATM   14  H   UNL     1      -3.843   4.674 -30.813  1.00  0.00     0.157 HD
ENDBRANCH   8  12
ENDBRANCH   2   4
ENDBRANCH   1   2
BRANCH   1  15
HETATM   15  C   UNL     1      -5.897   4.592 -33.868  1.00  0.00     0.259 C 
BRANCH  15  16
HETATM   16  C   UNL     1      -5.698   3.107 -33.638  1.00  0.00     0.152 A 
HETATM   17  N   UNL     1      -6.490   2.244 -34.300  1.00  0.00    -0.219 NA
HETATM   18  C   UNL     1      -6.289   0.942 -34.059  1.00  0.00     0.115 A 
HETATM   19  C   UNL     1      -5.347   0.461 -33.142  1.00  0.00     0.033 A 
HETATM   20  C   UNL     1      -4.594   1.449 -32.497  1.00  0.00     0.072 A 
HETATM   21  C   UNL     1      -5.126  -0.904 -32.837  1.00  0.00     0.017 A 
HETATM   22  N   UNL     1      -4.767   2.753 -32.731  1.00  0.00    -0.231 NA
HETATM   23  C   UNL     1      -3.633   1.051 -31.577  1.00  0.00     0.032 A 
HETATM   24  C   UNL     1      -3.404  -0.297 -31.279  1.00  0.00     0.002 A 
HETATM   25  C   UNL     1      -4.156  -1.278 -31.910  1.00  0.00     0.001 A 
BRANCH  18  26
HETATM   26  N   UNL     1      -7.114   0.075 -34.789  1.00  0.00    -0.286 NA
HETATM   27  H   UNL     1      -6.818   0.140 -35.761  1.00  0.00     0.125 HD
HETATM   28  H   UNL     1      -7.031  -0.874 -34.443  1.00  0.00     0.125 HD
ENDBRANCH  18  26
ENDBRANCH  15  16
ENDBRANCH   1  15
TORSDOF 7
ENDMDL
MODEL 7
REMARK VINA RESULT:      -6.9      3.398      5.660
REMARK  7 active torsions:
REMARK  status: ('A' for Active; 'I' for Inactive)
REMARK    1  A    between atoms: C_2  and  N_3 
REMARK    2  A    between atoms: C_6  and  C_7 
REMARK    3  A    between atoms: C_7  and  O_8 
REMARK    4  A    between atoms: O_8  and  C_9 
REMARK    5  A    between atoms: C_9  and  C_10 
REMARK    6  A    between atoms: C_12  and  N_13 
REMARK    7  A    between atoms: C_22  and  N_23 
ROOT
HETATM    1  O   UNL     1      -6.993   2.999 -33.177  1.00  0.00    -0.310 OA
ENDROOT
BRANCH   1   2
HETATM    2  C   UNL     1      -7.955   3.384 -32.289  1.00  0.00     0.299 C 
HETATM    3  O   UNL     1      -7.724   3.929 -31.216  1.00  0.00    -0.259 OA
BRANCH   2   4
HETATM    4  C   UNL     1      -9.299   3.058 -32.723  1.00  0.00     0.103 A 
HETATM    5  C   UNL     1     -10.496   3.544 -32.150  1.00  0.00     0.160 A 
HETATM    6  N   UNL     1     -11.591   3.068 -32.743  1.00  0.00    -0.182 NA
HETATM    7  N   UNL     1     -11.105   2.222 -33.678  1.00  0.00    -0.250 N 
HETATM    8  C   UNL     1      -9.725   2.228 -33.746  1.00  0.00     0.136 A 
BRANCH   7   9
HETATM    9  C   UNL     1     -12.036   1.423 -34.473  1.00  0.00     0.104 C 
HETATM   10  C   UNL     1     -13.062   2.317 -35.165  1.00  0.00     0.034 C 
HETATM   11  C   UNL     1     -12.721   0.328 -33.651  1.00  0.00     0.034 C 
ENDBRANCH   7   9
BRANCH   8  12
HETATM   12  N   UNL     1      -9.023   1.509 -34.654  1.00  0.00    -0.383 N 
HETATM   13  H   UNL     1      -9.061   1.798 -35.633  1.00  0.00     0.157 HD
HETATM   14  H   UNL     1      -8.885   0.507 -34.557  1.00  0.00     0.157 HD
ENDBRANCH   8  12
ENDBRANCH   2   4
ENDBRANCH   1   2
BRANCH   1  15
HETATM   15  C   UNL     1      -5.751   2.606 -32.572  1.00  0.00     0.259 C 
BRANCH  15  16
HETATM   16  C   UNL     1      -5.341   1.173 -32.844  1.00  0.00     0.152 A 
HETATM   17  N   UNL     1      -4.155   0.744 -32.374  1.00  0.00    -0.219 NA
HETATM   18  C   UNL     1      -3.826  -0.525 -32.647  1.00  0.00     0.115 A 
HETATM   19  C   UNL     1      -4.623  -1.382 -33.415  1.00  0.00     0.033 A 
HETATM   20  C   UNL     1      -5.824  -0.825 -33.867  1.00  0.00     0.072 A 
HETATM   21  C   UNL     1      -4.297  -2.720 -33.750  1.00  0.00     0.017 A 
HETATM   22  N   UNL     1      -6.180   0.434 -33.597  1.00  0.00    -0.231 NA
HETATM   23  C   UNL     1      -6.674  -1.616 -34.631  1.00  0.00     0.032 A 
HETATM   24  C   UNL     1      -6.360  -2.940 -34.957  1.00  0.00     0.002 A 
HETATM   25  C   UNL     1      -5.166  -3.493 -34.517  1.00  0.00     0.001 A 
BRANCH  18  26
HETATM   26  N   UNL     1      -2.598  -0.940 -32.117  1.00  0.00    -0.286 NA
HETATM   27  H   UNL     1      -1.899  -0.276 -32.444  1.00  0.00     0.125 HD
HETATM   28  H   UNL     1      -2.634  -0.964 -31.104  1.00  0.00     0.125 HD
ENDBRANCH  18  26
ENDBRANCH  15  16
ENDBRANCH   1  15
TORSDOF 7
ENDMDL
MODEL 8
REMARK VINA RESULT:      -6.8      2.808      3.406
REMARK  7 active torsions:
REMARK  status: ('A' for Active; 'I' for Inactive)
REMARK    1  A    between atoms: C_2  and  N_3 
REMARK    2  A    between atoms: C_6  and  C_7 
REMARK    3  A    between atoms: C_7  and  O_8 
REMARK    4  A    between atoms: O_8  and  C_9 
REMARK    5  A    between atoms: C_9  and  C_10 
REMARK    6  A    between atoms: C_12  and  N_13 
REMARK    7  A    between atoms: C_22  and  N_23 
ROOT
HETATM    1  O   UNL     1      -2.213   3.435 -31.745  1.00  0.00    -0.310 OA
ENDROOT
BRANCH   1   2
HETATM    2  C   UNL     1      -2.314   4.712 -32.218  1.00  0.00     0.299 C 
HETATM    3  O   UNL     1      -2.545   4.997 -33.387  1.00  0.00    -0.259 OA
BRANCH   2   4
HETATM    4  C   UNL     1      -2.090   5.719 -31.201  1.00  0.00     0.103 A 
HETATM    5  C   UNL     1      -2.816   6.923 -31.052  1.00  0.00     0.160 A 
HETATM    6  N   UNL     1      -2.386   7.671 -30.035  1.00  0.00    -0.182 NA
HETATM    7  N   UNL     1      -1.336   6.974 -29.549  1.00  0.00    -0.250 N 
HETATM    8  C   UNL     1      -1.154   5.758 -30.180  1.00  0.00     0.136 A 
BRANCH   7   9
HETATM    9  C   UNL     1      -0.534   7.548 -28.469  1.00  0.00     0.104 C 
HETATM   10  C   UNL     1      -1.212   8.789 -27.892  1.00  0.00     0.034 C 
HETATM   11  C   UNL     1       0.902   7.854 -28.903  1.00  0.00     0.034 C 
ENDBRANCH   7   9
BRANCH   8  12
HETATM   12  N   UNL     1      -0.205   4.865 -29.814  1.00  0.00    -0.383 N 
HETATM   13  H   UNL     1       0.649   5.217 -29.378  1.00  0.00     0.157 HD
HETATM   14  H   UNL     1      -0.041   4.009 -30.336  1.00  0.00     0.157 HD
ENDBRANCH   8  12
ENDBRANCH   2   4
ENDBRANCH   1   2
BRANCH   1  15
HETATM   15  C   UNL     1      -3.450   2.880 -31.269  1.00  0.00     0.259 C 
BRANCH  15  16
HETATM   16  C   UNL     1      -3.801   1.527 -31.853  1.00  0.00     0.152 A 
HETATM   17  N   UNL     1      -3.042   0.467 -31.518  1.00  0.00    -0.219 NA
HETATM   18  C   UNL     1      -3.379  -0.708 -32.066  1.00  0.00     0.115 A 
HETATM   19  C   UNL     1      -4.430  -0.862 -32.978  1.00  0.00     0.033 A 
HETATM   20  C   UNL     1      -5.137   0.309 -33.268  1.00  0.00     0.072 A 
HETATM   21  C   UNL     1      -4.798  -2.080 -33.601  1.00  0.00     0.017 A 
HETATM   22  N   UNL     1      -4.828   1.490 -32.724  1.00  0.00    -0.231 NA
HETATM   23  C   UNL     1      -6.200   0.236 -34.160  1.00  0.00     0.032 A 
HETATM   24  C   UNL     1      -6.573  -0.965 -34.771  1.00  0.00     0.002 A 
HETATM   25  C   UNL     1      -5.868  -2.128 -34.493  1.00  0.00     0.001 A 
BRANCH  18  26
HETATM   26  N   UNL     1      -2.583  -1.790 -31.670  1.00  0.00    -0.286 NA
HETATM   27  H   UNL     1      -3.120  -2.311 -30.981  1.00  0.00     0.125 HD
HETATM   28  H   UNL     1      -2.348  -2.372 -32.467  1.00  0.00     0.125 HD
ENDBRANCH  18  26
ENDBRANCH  15  16
ENDBRANCH   1  15
TORSDOF 7
ENDMDL
MODEL 9
REMARK VINA RESULT:      -6.8      1.086      2.116
REMARK  7 active torsions:
REMARK  status: ('A' for Active; 'I' for Inactive)
REMARK    1  A    between atoms: C_2  and  N_3 
REMARK    2  A    between atoms: C_6  and  C_7 
REMARK    3  A    between atoms: C_7  and  O_8 
REMARK    4  A    between atoms: O_8  and  C_9 
REMARK    5  A    between atoms: C_9  and  C_10 
REMARK    6  A    between atoms: C_12  and  N_13 
REMARK    7  A    between atoms: C_22  and  N_23 
ROOT
HETATM    1  O   UNL     1      -5.129   2.394 -30.022  1.00  0.00    -0.310 OA
ENDROOT
BRANCH   1   2
HETATM    2  C   UNL     1      -5.639   3.583 -30.456  1.00  0.00     0.299 C 
HETATM    3  O   UNL     1      -6.791   3.952 -30.257  1.00  0.00    -0.259 OA
BRANCH   2   4
HETATM    4  C   UNL     1      -4.689   4.372 -31.214  1.00  0.00     0.103 A 
HETATM    5  C   UNL     1      -4.705   5.778 -31.354  1.00  0.00     0.160 A 
HETATM    6  N   UNL     1      -3.715   6.239 -32.120  1.00  0.00    -0.182 NA
HETATM    7  N   UNL     1      -3.079   5.118 -32.526  1.00  0.00    -0.250 N 
HETATM    8  C   UNL     1      -3.592   3.968 -31.956  1.00  0.00     0.136 A 
BRANCH   7   9
HETATM    9  C   UNL     1      -1.978   5.227 -33.482  1.00  0.00     0.104 C 
HETATM   10  C   UNL     1      -1.120   6.454 -33.182  1.00  0.00     0.034 C 
HETATM   11  C   UNL     1      -2.461   5.231 -34.935  1.00  0.00     0.034 C 
ENDBRANCH   7   9
BRANCH   8  12
HETATM   12  N   UNL     1      -3.068   2.738 -32.166  1.00  0.00    -0.383 N 
HETATM   13  H   UNL     1      -3.546   2.113 -32.818  1.00  0.00     0.157 HD
HETATM   14  H   UNL     1      -2.584   2.226 -31.434  1.00  0.00     0.157 HD
ENDBRANCH   8  12
ENDBRANCH   2   4
ENDBRANCH   1   2
BRANCH   1  15
HETATM   15  C   UNL     1      -6.098   1.341 -29.899  1.00  0.00     0.259 C 
BRANCH  15  16
HETATM   16  C   UNL     1      -6.331   0.546 -31.167  1.00  0.00     0.152 A 
HETATM   17  N   UNL     1      -7.531   0.637 -31.771  1.00  0.00    -0.219 NA
HETATM   18  C   UNL     1      -7.698  -0.092 -32.882  1.00  0.00     0.115 A 
HETATM   19  C   UNL     1      -6.721  -0.950 -33.399  1.00  0.00     0.033 A 
HETATM   20  C   UNL     1      -5.522  -0.981 -32.679  1.00  0.00     0.072 A 
HETATM   21  C   UNL     1      -6.871  -1.759 -34.552  1.00  0.00     0.017 A 
HETATM   22  N   UNL     1      -5.326  -0.253 -31.576  1.00  0.00    -0.231 NA
HETATM   23  C   UNL     1      -4.499  -1.804 -33.133  1.00  0.00     0.032 A 
HETATM   24  C   UNL     1      -4.639  -2.597 -34.277  1.00  0.00     0.002 A 
HETATM   25  C   UNL     1      -5.831  -2.577 -34.988  1.00  0.00     0.001 A 
BRANCH  18  26
HETATM   26  N   UNL     1      -8.950   0.053 -33.495  1.00  0.00    -0.286 NA
HETATM   27  H   UNL     1      -8.865   0.823 -34.155  1.00  0.00     0.125 HD
HETATM   28  H   UNL     1      -9.219  -0.804 -33.966  1.00  0.00     0.125 HD
ENDBRANCH  18  26
ENDBRANCH  15  16
ENDBRANCH   1  15
TORSDOF 7
ENDMDL
MODEL 10
REMARK VINA RESULT:      -6.7      2.607      3.703
REMARK  7 active torsions:
REMARK  status: ('A' for Active; 'I' for Inactive)
REMARK    1  A    between atoms: C_2  and  N_3 
REMARK    2  A    between atoms: C_6  and  C_7 
REMARK    3  A    between atoms: C_7  and  O_8 
REMARK    4  A    between atoms: O_8  and  C_9 
REMARK    5  A    between atoms: C_9  and  C_10 
REMARK    6  A    between atoms: C_12  and  N_13 
REMARK    7  A    between atoms: C_22  and  N_23 
ROOT
HETATM    1  O   UNL     1      -2.617   2.972 -31.831  1.00  0.00    -0.310 OA
ENDROOT
BRANCH   1   2
HETATM    2  C   UNL     1      -2.536   4.183 -32.455  1.00  0.00     0.299 C 
HETATM    3  O   UNL     1      -3.026   4.427 -33.551  1.00  0.00    -0.259 OA
BRANCH   2   4
HETATM    4  C   UNL     1      -1.780   5.165 -31.705  1.00  0.00     0.103 A 
HETATM    5  C   UNL     1      -0.435   5.531 -31.939  1.00  0.00     0.160 A 
HETATM    6  N   UNL     1       0.013   6.454 -31.086  1.00  0.00    -0.182 NA
HETATM    7  N   UNL     1      -1.034   6.653 -30.255  1.00  0.00    -0.250 N 
HETATM    8  C   UNL     1      -2.160   5.943 -30.624  1.00  0.00     0.136 A 
BRANCH   7   9
HETATM    9  C   UNL     1      -0.876   7.544 -29.107  1.00  0.00     0.104 C 
HETATM   10  C   UNL     1      -1.560   8.885 -29.363  1.00  0.00     0.034 C 
HETATM   11  C   UNL     1       0.591   7.738 -28.711  1.00  0.00     0.034 C 
ENDBRANCH   7   9
BRANCH   8  12
HETATM   12  N   UNL     1      -3.345   6.041 -29.977  1.00  0.00    -0.383 N 
HETATM   13  H   UNL     1      -3.340   6.037 -28.955  1.00  0.00     0.157 HD
HETATM   14  H   UNL     1      -4.200   5.643 -30.355  1.00  0.00     0.157 HD
ENDBRANCH   8  12
ENDBRANCH   2   4
ENDBRANCH   1   2
BRANCH   1  15
HETATM   15  C   UNL     1      -3.942   2.607 -31.414  1.00  0.00     0.259 C 
BRANCH  15  16
HETATM   16  C   UNL     1      -4.652   1.640 -32.339  1.00  0.00     0.152 A 
HETATM   17  N   UNL     1      -5.794   2.038 -32.929  1.00  0.00    -0.219 NA
HETATM   18  C   UNL     1      -6.396   1.148 -33.730  1.00  0.00     0.115 A 
HETATM   19  C   UNL     1      -5.921  -0.152 -33.935  1.00  0.00     0.033 A 
HETATM   20  C   UNL     1      -4.738  -0.463 -33.256  1.00  0.00     0.072 A 
HETATM   21  C   UNL     1      -6.544  -1.130 -34.749  1.00  0.00     0.017 A 
HETATM   22  N   UNL     1      -4.112   0.412 -32.463  1.00  0.00    -0.231 NA
HETATM   23  C   UNL     1      -4.199  -1.734 -33.415  1.00  0.00     0.032 A 
HETATM   24  C   UNL     1      -4.806  -2.700 -34.224  1.00  0.00     0.002 A 
HETATM   25  C   UNL     1      -5.984  -2.398 -34.892  1.00  0.00     0.001 A 
BRANCH  18  26
HETATM   26  N   UNL     1      -7.566   1.611 -34.346  1.00  0.00    -0.286 NA
HETATM   27  H   UNL     1      -8.281   0.905 -34.182  1.00  0.00     0.125 HD
HETATM   28  H   UNL     1      -7.842   2.508 -33.962  1.00  0.00     0.125 HD
ENDBRANCH  18  26
ENDBRANCH  15  16
ENDBRANCH   1  15
TORSDOF 7
ENDMDL
