MODEL 1
REMARK VINA RESULT:      -7.6      0.000      0.000
REMARK  10 active torsions:
REMARK  status: ('A' for Active; 'I' for Inactive)
REMARK    1  A    between atoms: C_2  and  C_3 
REMARK    2  A    between atoms: C_3  and  N_4 
REMARK    3  A    between atoms: C_7  and  C_8 
REMARK       I    between atoms: C_8  and  N_9 
REMARK    4  A    between atoms: N_9  and  C_10 
REMARK    5  A    between atoms: C_10  and  C_11 
REMARK    6  A    between atoms: C_11  and  O_12 
REMARK    7  A    between atoms: C_11  and  C_13 
REMARK    8  A    between atoms: C_13  and  O_14 
REMARK    9  A    between atoms: O_14  and  C_15 
REMARK   10  A    between atoms: C_23  and  C_24 
ROOT
HETATM    1  C   UNL     1      -7.387   3.579 -32.636  1.00  0.00     0.255 C 
HETATM    2  N   UNL     1      -7.934   2.686 -33.520  1.00  0.00    -0.354 N 
HETATM    3  O   UNL     1      -7.947   3.926 -31.602  1.00  0.00    -0.268 OA
HETATM    4  H   UNL     1      -7.520   2.592 -34.440  1.00  0.00     0.162 HD
ENDROOT
BRANCH   2   5
HETATM    5  C   UNL     1      -9.170   1.976 -33.255  1.00  0.00     0.156 C 
BRANCH   5   6
HETATM    6  C   UNL     1      -9.004   0.816 -32.270  1.00  0.00     0.160 C 
BRANCH   6   7
HETATM    7  O   UNL     1      -9.363   1.266 -30.951  1.00  0.00    -0.392 OA
HETATM    8  H   UNL     1      -8.561   1.147 -30.407  1.00  0.00     0.210 HD
ENDBRANCH   6   7
BRANCH   6   9
HETATM    9  C   UNL     1      -7.588   0.229 -32.250  1.00  0.00     0.209 C 
BRANCH   9  10
HETATM   10  O   UNL     1      -7.266  -0.095 -33.612  1.00  0.00    -0.349 OA
BRANCH  10  11
HETATM   11  C   UNL     1      -6.355  -1.095 -33.815  1.00  0.00     0.069 A 
HETATM   12  C   UNL     1      -6.865  -2.221 -34.470  1.00  0.00     0.043 A 
HETATM   13  C   UNL     1      -6.050  -3.326 -34.747  1.00  0.00    -0.059 A 
HETATM   14  C   UNL     1      -6.599  -4.532 -35.450  1.00  0.00     0.048 C 
HETATM   15  C   UNL     1      -4.712  -3.298 -34.343  1.00  0.00     0.007 A 
HETATM   16  C   UNL     1      -4.200  -2.180 -33.684  1.00  0.00     0.003 A 
HETATM   17  C   UNL     1      -5.019  -1.077 -33.421  1.00  0.00     0.037 A 
ENDBRANCH  10  11
ENDBRANCH   9  10
ENDBRANCH   6   9
ENDBRANCH   5   6
ENDBRANCH   2   5
BRANCH   1  18
HETATM   18  C   UNL     1      -6.130   4.147 -33.066  1.00  0.00     0.075 A 
HETATM   19  C   UNL     1      -5.989   5.424 -33.650  1.00  0.00     0.158 A 
HETATM   20  N   UNL     1      -4.725   5.725 -33.939  1.00  0.00    -0.183 NA
HETATM   21  N   UNL     1      -4.025   4.683 -33.446  1.00  0.00    -0.268 N 
HETATM   22  C   UNL     1      -4.830   3.665 -32.962  1.00  0.00     0.052 A 
BRANCH  21  23
HETATM   23  C   UNL     1      -2.564   4.725 -33.502  1.00  0.00     0.106 C 
HETATM   24  C   UNL     1      -2.104   5.020 -34.931  1.00  0.00     0.034 C 
BRANCH  23  25
HETATM   25  C   UNL     1      -1.930   5.721 -32.509  1.00  0.00     0.022 C 
HETATM   26  C   UNL     1      -0.961   5.058 -31.539  1.00  0.00     0.007 C 
ENDBRANCH  23  25
ENDBRANCH  21  23
BRANCH  22  27
HETATM   27  C   UNL     1      -4.302   2.349 -32.386  1.00  0.00     0.038 A 
HETATM   28  C   UNL     1      -3.331   2.357 -31.227  1.00  0.00     0.011 A 
HETATM   29  C   UNL     1      -4.725   1.871 -31.018  1.00  0.00     0.011 A 
ENDBRANCH  22  27
ENDBRANCH   1  18
TORSDOF 10
ENDMDL
MODEL 2
REMARK VINA RESULT:      -7.5      3.062      6.562
REMARK  10 active torsions:
REMARK  status: ('A' for Active; 'I' for Inactive)
REMARK    1  A    between atoms: C_2  and  C_3 
REMARK    2  A    between atoms: C_3  and  N_4 
REMARK    3  A    between atoms: C_7  and  C_8 
REMARK       I    between atoms: C_8  and  N_9 
REMARK    4  A    between atoms: N_9  and  C_10 
REMARK    5  A    between atoms: C_10  and  C_11 
REMARK    6  A    between atoms: C_11  and  O_12 
REMARK    7  A    between atoms: C_11  and  C_13 
REMARK    8  A    between atoms: C_13  and  O_14 
REMARK    9  A    between atoms: O_14  and  C_15 
REMARK   10  A    between atoms: C_23  and  C_24 
ROOT
HETATM    1  C   UNL     1      -5.774   1.695 -32.311  1.00  0.00     0.255 C 
HETATM    2  N   UNL     1      -7.010   1.731 -31.720  1.00  0.00    -0.354 N 
HETATM    3  O   UNL     1      -5.104   2.699 -32.526  1.00  0.00    -0.268 OA
HETATM    4  H   UNL     1      -7.591   0.903 -31.750  1.00  0.00     0.162 HD
ENDROOT
BRANCH   2   5
HETATM    5  C   UNL     1      -7.588   2.949 -31.184  1.00  0.00     0.156 C 
BRANCH   5   6
HETATM    6  C   UNL     1      -9.050   2.789 -30.760  1.00  0.00     0.160 C 
BRANCH   6   7
HETATM    7  O   UNL     1      -9.368   1.388 -30.687  1.00  0.00    -0.392 OA
HETATM    8  H   UNL     1     -10.333   1.331 -30.827  1.00  0.00     0.210 HD
ENDBRANCH   6   7
BRANCH   6   9
HETATM    9  C   UNL     1     -10.039   3.498 -31.693  1.00  0.00     0.209 C 
BRANCH   9  10
HETATM   10  O   UNL     1      -9.704   3.085 -33.026  1.00  0.00    -0.349 OA
BRANCH  10  11
HETATM   11  C   UNL     1     -10.738   2.711 -33.840  1.00  0.00     0.069 A 
HETATM   12  C   UNL     1     -11.412   1.556 -33.431  1.00  0.00     0.043 A 
HETATM   13  C   UNL     1     -12.493   1.052 -34.165  1.00  0.00    -0.059 A 
HETATM   14  C   UNL     1     -13.215  -0.187 -33.724  1.00  0.00     0.048 C 
HETATM   15  C   UNL     1     -12.885   1.714 -35.332  1.00  0.00     0.007 A 
HETATM   16  C   UNL     1     -12.213   2.863 -35.748  1.00  0.00     0.003 A 
HETATM   17  C   UNL     1     -11.141   3.364 -35.004  1.00  0.00     0.037 A 
ENDBRANCH  10  11
ENDBRANCH   9  10
ENDBRANCH   6   9
ENDBRANCH   5   6
ENDBRANCH   2   5
BRANCH   1  18
HETATM   18  C   UNL     1      -5.360   0.379 -32.741  1.00  0.00     0.075 A 
HETATM   19  C   UNL     1      -4.512  -0.472 -32.000  1.00  0.00     0.158 A 
HETATM   20  N   UNL     1      -4.297  -1.640 -32.601  1.00  0.00    -0.183 NA
HETATM   21  N   UNL     1      -5.091  -1.592 -33.690  1.00  0.00    -0.268 N 
HETATM   22  C   UNL     1      -5.710  -0.366 -33.861  1.00  0.00     0.052 A 
BRANCH  21  23
HETATM   23  C   UNL     1      -5.182  -2.774 -34.548  1.00  0.00     0.106 C 
HETATM   24  C   UNL     1      -4.135  -3.807 -34.128  1.00  0.00     0.034 C 
BRANCH  23  25
HETATM   25  C   UNL     1      -6.587  -3.408 -34.589  1.00  0.00     0.022 C 
HETATM   26  C   UNL     1      -6.657  -4.641 -35.481  1.00  0.00     0.007 C 
ENDBRANCH  23  25
ENDBRANCH  21  23
BRANCH  22  27
HETATM   27  C   UNL     1      -6.630  -0.022 -35.035  1.00  0.00     0.038 A 
HETATM   28  C   UNL     1      -8.128   0.048 -34.837  1.00  0.00     0.011 A 
HETATM   29  C   UNL     1      -7.359   1.299 -35.093  1.00  0.00     0.011 A 
ENDBRANCH  22  27
ENDBRANCH   1  18
TORSDOF 10
ENDMDL
MODEL 3
REMARK VINA RESULT:      -7.3      2.551      7.906
REMARK  10 active torsions:
REMARK  status: ('A' for Active; 'I' for Inactive)
REMARK    1  A    between atoms: C_2  and  C_3 
REMARK    2  A    between atoms: C_3  and  N_4 
REMARK    3  A    between atoms: C_7  and  C_8 
REMARK       I    between atoms: C_8  and  N_9 
REMARK    4  A    between atoms: N_9  and  C_10 
REMARK    5  A    between atoms: C_10  and  C_11 
REMARK    6  A    between atoms: C_11  and  O_12 
REMARK    7  A    between atoms: C_11  and  C_13 
REMARK    8  A    between atoms: C_13  and  O_14 
REMARK    9  A    between atoms: O_14  and  C_15 
REMARK   10  A    between atoms: C_23  and  C_24 
ROOT
HETATM    1  C   UNL     1      -5.492   1.346 -32.204  1.00  0.00     0.255 C 
HETATM    2  N   UNL     1      -4.578   2.336 -32.450  1.00  0.00    -0.354 N 
HETATM    3  O   UNL     1      -6.540   1.536 -31.595  1.00  0.00    -0.268 OA
HETATM    4  H   UNL     1      -3.655   2.079 -32.778  1.00  0.00     0.162 HD
ENDROOT
BRANCH   2   5
HETATM    5  C   UNL     1      -4.819   3.728 -32.119  1.00  0.00     0.156 C 
BRANCH   5   6
HETATM    6  C   UNL     1      -4.679   4.668 -33.319  1.00  0.00     0.160 C 
BRANCH   6   7
HETATM    7  O   UNL     1      -5.583   4.245 -34.355  1.00  0.00    -0.392 OA
HETATM    8  H   UNL     1      -5.131   3.510 -34.812  1.00  0.00     0.210 HD
ENDBRANCH   6   7
BRANCH   6   9
HETATM    9  C   UNL     1      -3.252   4.745 -33.873  1.00  0.00     0.209 C 
BRANCH   9  10
HETATM   10  O   UNL     1      -2.386   4.275 -32.828  1.00  0.00    -0.349 OA
BRANCH  10  11
HETATM   11  C   UNL     1      -1.488   5.170 -32.316  1.00  0.00     0.069 A 
HETATM   12  C   UNL     1      -0.866   4.757 -31.133  1.00  0.00     0.043 A 
HETATM   13  C   UNL     1       0.079   5.568 -30.491  1.00  0.00    -0.059 A 
HETATM   14  C   UNL     1       0.745   5.123 -29.224  1.00  0.00     0.048 C 
HETATM   15  C   UNL     1       0.384   6.816 -31.044  1.00  0.00     0.007 A 
HETATM   16  C   UNL     1      -0.239   7.236 -32.220  1.00  0.00     0.003 A 
HETATM   17  C   UNL     1      -1.173   6.415 -32.858  1.00  0.00     0.037 A 
ENDBRANCH  10  11
ENDBRANCH   9  10
ENDBRANCH   6   9
ENDBRANCH   5   6
ENDBRANCH   2   5
BRANCH   1  18
HETATM   18  C   UNL     1      -5.081   0.034 -32.647  1.00  0.00     0.075 A 
HETATM   19  C   UNL     1      -4.218  -0.819 -31.926  1.00  0.00     0.158 A 
HETATM   20  N   UNL     1      -4.010  -1.982 -32.538  1.00  0.00    -0.183 NA
HETATM   21  N   UNL     1      -4.823  -1.932 -33.611  1.00  0.00    -0.268 N 
HETATM   22  C   UNL     1      -5.450  -0.708 -33.764  1.00  0.00     0.052 A 
BRANCH  21  23
HETATM   23  C   UNL     1      -4.925  -3.110 -34.474  1.00  0.00     0.106 C 
HETATM   24  C   UNL     1      -3.936  -4.182 -34.014  1.00  0.00     0.034 C 
BRANCH  23  25
HETATM   25  C   UNL     1      -6.352  -3.690 -34.571  1.00  0.00     0.022 C 
HETATM   26  C   UNL     1      -6.507  -4.700 -35.701  1.00  0.00     0.007 C 
ENDBRANCH  23  25
ENDBRANCH  21  23
BRANCH  22  27
HETATM   27  C   UNL     1      -6.392  -0.360 -34.920  1.00  0.00     0.038 A 
HETATM   28  C   UNL     1      -7.883  -0.260 -34.686  1.00  0.00     0.011 A 
HETATM   29  C   UNL     1      -7.098   0.973 -34.977  1.00  0.00     0.011 A 
ENDBRANCH  22  27
ENDBRANCH   1  18
TORSDOF 10
ENDMDL
MODEL 4
REMARK VINA RESULT:      -7.3      1.627      2.586
REMARK  10 active torsions:
REMARK  status: ('A' for Active; 'I' for Inactive)
REMARK    1  A    between atoms: C_2  and  C_3 
REMARK    2  A    between atoms: C_3  and  N_4 
REMARK    3  A    between atoms: C_7  and  C_8 
REMARK       I    between atoms: C_8  and  N_9 
REMARK    4  A    between atoms: N_9  and  C_10 
REMARK    5  A    between atoms: C_10  and  C_11 
REMARK    6  A    between atoms: C_11  and  O_12 
REMARK    7  A    between atoms: C_11  and  C_13 
REMARK    8  A    between atoms: C_13  and  O_14 
REMARK    9  A    between atoms: O_14  and  C_15 
REMARK   10  A    between atoms: C_23  and  C_24 
ROOT
HETATM    1  C   UNL     1      -6.347   2.809 -31.518  1.00  0.00     0.255 C 
HETATM    2  N   UNL     1      -6.979   2.860 -32.732  1.00  0.00    -0.354 N 
HETATM    3  O   UNL     1      -6.917   2.501 -30.477  1.00  0.00    -0.268 OA
HETATM    4  H   UNL     1      -6.510   3.307 -33.510  1.00  0.00     0.162 HD
ENDROOT
BRANCH   2   5
HETATM    5  C   UNL     1      -8.354   2.437 -32.919  1.00  0.00     0.156 C 
BRANCH   5   6
HETATM    6  C   UNL     1      -8.618   1.825 -34.297  1.00  0.00     0.160 C 
BRANCH   6   7
HETATM    7  O   UNL     1      -9.919   2.234 -34.752  1.00  0.00    -0.392 OA
HETATM    8  H   UNL     1     -10.370   1.413 -35.026  1.00  0.00     0.210 HD
ENDBRANCH   6   7
BRANCH   6   9
HETATM    9  C   UNL     1      -8.517   0.295 -34.315  1.00  0.00     0.209 C 
BRANCH   9  10
HETATM   10  O   UNL     1      -7.597  -0.063 -33.273  1.00  0.00    -0.349 OA
BRANCH  10  11
HETATM   11  C   UNL     1      -6.586  -0.922 -33.603  1.00  0.00     0.069 A 
HETATM   12  C   UNL     1      -7.008  -2.114 -34.201  1.00  0.00     0.043 A 
HETATM   13  C   UNL     1      -6.084  -3.091 -34.594  1.00  0.00    -0.059 A 
HETATM   14  C   UNL     1      -6.538  -4.368 -35.236  1.00  0.00     0.048 C 
HETATM   15  C   UNL     1      -4.723  -2.867 -34.365  1.00  0.00     0.007 A 
HETATM   16  C   UNL     1      -4.297  -1.682 -33.763  1.00  0.00     0.003 A 
HETATM   17  C   UNL     1      -5.226  -0.709 -33.383  1.00  0.00     0.037 A 
ENDBRANCH  10  11
ENDBRANCH   9  10
ENDBRANCH   6   9
ENDBRANCH   5   6
ENDBRANCH   2   5
BRANCH   1  18
HETATM   18  C   UNL     1      -4.966   3.233 -31.550  1.00  0.00     0.075 A 
HETATM   19  C   UNL     1      -3.861   2.365 -31.408  1.00  0.00     0.158 A 
HETATM   20  N   UNL     1      -2.693   2.996 -31.495  1.00  0.00    -0.183 NA
HETATM   21  N   UNL     1      -3.033   4.265 -31.799  1.00  0.00    -0.268 N 
HETATM   22  C   UNL     1      -4.400   4.481 -31.783  1.00  0.00     0.052 A 
BRANCH  21  23
HETATM   23  C   UNL     1      -1.972   5.234 -32.070  1.00  0.00     0.106 C 
HETATM   24  C   UNL     1      -0.907   5.164 -30.974  1.00  0.00     0.034 C 
BRANCH  23  25
HETATM   25  C   UNL     1      -1.329   5.082 -33.464  1.00  0.00     0.022 C 
HETATM   26  C   UNL     1      -2.340   5.183 -34.599  1.00  0.00     0.007 C 
ENDBRANCH  23  25
ENDBRANCH  21  23
BRANCH  22  27
HETATM   27  C   UNL     1      -5.061   5.836 -32.049  1.00  0.00     0.038 A 
HETATM   28  C   UNL     1      -6.049   6.412 -31.059  1.00  0.00     0.011 A 
HETATM   29  C   UNL     1      -4.712   7.050 -31.223  1.00  0.00     0.011 A 
ENDBRANCH  22  27
ENDBRANCH   1  18
TORSDOF 10
ENDMDL
MODEL 5
REMARK VINA RESULT:      -7.3      1.893      3.005
REMARK  10 active torsions:
REMARK  status: ('A' for Active; 'I' for Inactive)
REMARK    1  A    between atoms: C_2  and  C_3 
REMARK    2  A    between atoms: C_3  and  N_4 
REMARK    3  A    between atoms: C_7  and  C_8 
REMARK       I    between atoms: C_8  and  N_9 
REMARK    4  A    between atoms: N_9  and  C_10 
REMARK    5  A    between atoms: C_10  and  C_11 
REMARK    6  A    between atoms: C_11  and  O_12 
REMARK    7  A    between atoms: C_11  and  C_13 
REMARK    8  A    between atoms: C_13  and  O_14 
REMARK    9  A    between atoms: O_14  and  C_15 
REMARK   10  A    between atoms: C_23  and  C_24 
ROOT
HETATM    1  C   UNL     1      -4.400   3.368 -32.443  1.00  0.00     0.255 C 
HETATM    2  N   UNL     1      -5.662   3.585 -32.931  1.00  0.00    -0.354 N 
HETATM    3  O   UNL     1      -3.884   2.257 -32.387  1.00  0.00    -0.268 OA
HETATM    4  H   UNL     1      -6.103   4.482 -32.769  1.00  0.00     0.162 HD
ENDROOT
BRANCH   2   5
HETATM    5  C   UNL     1      -6.459   2.536 -33.539  1.00  0.00     0.156 C 
BRANCH   5   6
HETATM    6  C   UNL     1      -7.520   1.959 -32.599  1.00  0.00     0.160 C 
BRANCH   6   7
HETATM    7  O   UNL     1      -7.666   2.831 -31.464  1.00  0.00    -0.392 OA
HETATM    8  H   UNL     1      -7.601   2.252 -30.680  1.00  0.00     0.210 HD
ENDBRANCH   6   7
BRANCH   6   9
HETATM    9  C   UNL     1      -7.207   0.535 -32.124  1.00  0.00     0.209 C 
BRANCH   9  10
HETATM   10  O   UNL     1      -7.496  -0.333 -33.231  1.00  0.00    -0.349 OA
BRANCH  10  11
HETATM   11  C   UNL     1      -6.507  -1.192 -33.623  1.00  0.00     0.069 A 
HETATM   12  C   UNL     1      -6.961  -2.341 -34.279  1.00  0.00     0.043 A 
HETATM   13  C   UNL     1      -6.062  -3.313 -34.740  1.00  0.00    -0.059 A 
HETATM   14  C   UNL     1      -6.551  -4.543 -35.444  1.00  0.00     0.048 C 
HETATM   15  C   UNL     1      -4.694  -3.127 -34.518  1.00  0.00     0.007 A 
HETATM   16  C   UNL     1      -4.236  -1.986 -33.858  1.00  0.00     0.003 A 
HETATM   17  C   UNL     1      -5.140  -1.017 -33.412  1.00  0.00     0.037 A 
ENDBRANCH  10  11
ENDBRANCH   9  10
ENDBRANCH   6   9
ENDBRANCH   5   6
ENDBRANCH   2   5
BRANCH   1  18
HETATM   18  C   UNL     1      -3.756   4.550 -31.917  1.00  0.00     0.075 A 
HETATM   19  C   UNL     1      -4.176   5.240 -30.759  1.00  0.00     0.158 A 
HETATM   20  N   UNL     1      -3.404   6.285 -30.471  1.00  0.00    -0.183 NA
HETATM   21  N   UNL     1      -2.414   6.216 -31.384  1.00  0.00    -0.268 N 
HETATM   22  C   UNL     1      -2.610   5.222 -32.327  1.00  0.00     0.052 A 
BRANCH  21  23
HETATM   23  C   UNL     1      -1.311   7.174 -31.302  1.00  0.00     0.106 C 
HETATM   24  C   UNL     1      -1.763   8.429 -30.555  1.00  0.00     0.034 C 
BRANCH  23  25
HETATM   25  C   UNL     1      -0.029   6.595 -30.669  1.00  0.00     0.022 C 
HETATM   26  C   UNL     1       0.367   7.299 -29.377  1.00  0.00     0.007 C 
ENDBRANCH  23  25
ENDBRANCH  21  23
BRANCH  22  27
HETATM   27  C   UNL     1      -1.666   4.950 -33.501  1.00  0.00     0.038 A 
HETATM   28  C   UNL     1      -2.174   5.025 -34.923  1.00  0.00     0.011 A 
HETATM   29  C   UNL     1      -1.227   6.061 -34.423  1.00  0.00     0.011 A 
ENDBRANCH  22  27
ENDBRANCH   1  18
TORSDOF 10
ENDMDL
MODEL 6
REMARK VINA RESULT:      -7.1      1.907      3.225
REMARK  10 active torsions:
REMARK  status: ('A' for Active; 'I' for Inactive)
REMARK    1  A    between atoms: C_2  and  C_3 
REMARK    2  A    between atoms: C_3  and  N_4 
REMARK    3  A    between atoms: C_7  and  C_8 
REMARK       I    between atoms: C_8  and  N_9 
REMARK    4  A    between atoms: N_9  and  C_10 
REMARK    5  A    between atoms: C_10  and  C_11 
REMARK    6  A    between atoms: C_11  and  O_12 
REMARK    7  A    between atoms: C_11  and  C_13 
REMARK    8  A    between atoms: C_13  and  O_14 
REMARK    9  A    between atoms: O_14  and  C_15 
REMARK   10  A    between atoms: C_23  and  C_24 
ROOT
HETATM    1  C   UNL     1      -5.144   4.586 -32.952  1.00  0.00     0.255 C 
HETATM    2  N   UNL     1      -5.111   3.219 -32.877  1.00  0.00    -0.354 N 
HETATM    3  O   UNL     1      -5.898   5.199 -33.700  1.00  0.00    -0.268 OA
HETATM    4  H   UNL     1      -4.341   2.773 -32.395  1.00  0.00     0.162 HD
ENDROOT
BRANCH   2   5
HETATM    5  C   UNL     1      -6.050   2.371 -33.587  1.00  0.00     0.156 C 
BRANCH   5   6
HETATM    6  C   UNL     1      -6.673   1.286 -32.705  1.00  0.00     0.160 C 
BRANCH   6   7
HETATM    7  O   UNL     1      -7.163   1.889 -31.494  1.00  0.00    -0.392 OA
HETATM    8  H   UNL     1      -8.125   1.996 -31.626  1.00  0.00     0.210 HD
ENDBRANCH   6   7
BRANCH   6   9
HETATM    9  C   UNL     1      -5.707   0.145 -32.364  1.00  0.00     0.209 C 
BRANCH   9  10
HETATM   10  O   UNL     1      -5.161  -0.309 -33.612  1.00  0.00    -0.349 OA
BRANCH  10  11
HETATM   11  C   UNL     1      -5.434  -1.598 -33.979  1.00  0.00     0.069 A 
HETATM   12  C   UNL     1      -4.377  -2.494 -33.786  1.00  0.00     0.043 A 
HETATM   13  C   UNL     1      -4.510  -3.849 -34.116  1.00  0.00    -0.059 A 
HETATM   14  C   UNL     1      -3.376  -4.808 -33.907  1.00  0.00     0.048 C 
HETATM   15  C   UNL     1      -5.717  -4.297 -34.660  1.00  0.00     0.007 A 
HETATM   16  C   UNL     1      -6.772  -3.407 -34.861  1.00  0.00     0.003 A 
HETATM   17  C   UNL     1      -6.634  -2.058 -34.520  1.00  0.00     0.037 A 
ENDBRANCH  10  11
ENDBRANCH   9  10
ENDBRANCH   6   9
ENDBRANCH   5   6
ENDBRANCH   2   5
BRANCH   1  18
HETATM   18  C   UNL     1      -4.153   5.250 -32.136  1.00  0.00     0.075 A 
HETATM   19  C   UNL     1      -4.415   5.829 -30.876  1.00  0.00     0.158 A 
HETATM   20  N   UNL     1      -3.330   6.360 -30.315  1.00  0.00    -0.183 NA
HETATM   21  N   UNL     1      -2.336   6.034 -31.165  1.00  0.00    -0.268 N 
HETATM   22  C   UNL     1      -2.785   5.416 -32.319  1.00  0.00     0.052 A 
BRANCH  21  23
HETATM   23  C   UNL     1      -0.960   6.381 -30.807  1.00  0.00     0.106 C 
HETATM   24  C   UNL     1      -0.951   7.615 -29.903  1.00  0.00     0.034 C 
BRANCH  23  25
HETATM   25  C   UNL     1      -0.174   5.223 -30.157  1.00  0.00     0.022 C 
HETATM   26  C   UNL     1       1.174   4.974 -30.820  1.00  0.00     0.007 C 
ENDBRANCH  23  25
ENDBRANCH  21  23
BRANCH  22  27
HETATM   27  C   UNL     1      -1.877   4.979 -33.472  1.00  0.00     0.038 A 
HETATM   28  C   UNL     1      -2.313   5.178 -34.906  1.00  0.00     0.011 A 
HETATM   29  C   UNL     1      -1.195   5.995 -34.356  1.00  0.00     0.011 A 
ENDBRANCH  22  27
ENDBRANCH   1  18
TORSDOF 10
ENDMDL
MODEL 7
REMARK VINA RESULT:      -6.9      2.485      7.689
REMARK  10 active torsions:
REMARK  status: ('A' for Active; 'I' for Inactive)
REMARK    1  A    between atoms: C_2  and  C_3 
REMARK    2  A    between atoms: C_3  and  N_4 
REMARK    3  A    between atoms: C_7  and  C_8 
REMARK       I    between atoms: C_8  and  N_9 
REMARK    4  A    between atoms: N_9  and  C_10 
REMARK    5  A    between atoms: C_10  and  C_11 
REMARK    6  A    between atoms: C_11  and  O_12 
REMARK    7  A    between atoms: C_11  and  C_13 
REMARK    8  A    between atoms: C_13  and  O_14 
REMARK    9  A    between atoms: O_14  and  C_15 
REMARK   10  A    between atoms: C_23  and  C_24 
ROOT
HETATM    1  C   UNL     1      -6.723   2.508 -33.398  1.00  0.00     0.255 C 
HETATM    2  N   UNL     1      -5.838   3.340 -34.031  1.00  0.00    -0.354 N 
HETATM    3  O   UNL     1      -7.460   2.879 -32.490  1.00  0.00    -0.268 OA
HETATM    4  H   UNL     1      -5.127   2.934 -34.628  1.00  0.00     0.162 HD
ENDROOT
BRANCH   2   5
HETATM    5  C   UNL     1      -5.774   4.765 -33.770  1.00  0.00     0.156 C 
BRANCH   5   6
HETATM    6  C   UNL     1      -4.370   5.350 -33.942  1.00  0.00     0.160 C 
BRANCH   6   7
HETATM    7  O   UNL     1      -4.018   5.325 -35.337  1.00  0.00    -0.392 OA
HETATM    8  H   UNL     1      -4.790   4.939 -35.794  1.00  0.00     0.210 HD
ENDBRANCH   6   7
BRANCH   6   9
HETATM    9  C   UNL     1      -3.299   4.621 -33.122  1.00  0.00     0.209 C 
BRANCH   9  10
HETATM   10  O   UNL     1      -3.278   5.252 -31.832  1.00  0.00    -0.349 OA
BRANCH  10  11
HETATM   11  C   UNL     1      -2.071   5.715 -31.385  1.00  0.00     0.069 A 
HETATM   12  C   UNL     1      -2.154   6.797 -30.502  1.00  0.00     0.043 A 
HETATM   13  C   UNL     1      -1.000   7.378 -29.961  1.00  0.00    -0.059 A 
HETATM   14  C   UNL     1      -1.091   8.537 -29.015  1.00  0.00     0.048 C 
HETATM   15  C   UNL     1       0.249   6.869 -30.330  1.00  0.00     0.007 A 
HETATM   16  C   UNL     1       0.338   5.794 -31.215  1.00  0.00     0.003 A 
HETATM   17  C   UNL     1      -0.820   5.215 -31.742  1.00  0.00     0.037 A 
ENDBRANCH  10  11
ENDBRANCH   9  10
ENDBRANCH   6   9
ENDBRANCH   5   6
ENDBRANCH   2   5
BRANCH   1  18
HETATM   18  C   UNL     1      -6.659   1.131 -33.830  1.00  0.00     0.075 A 
HETATM   19  C   UNL     1      -7.004   0.684 -35.124  1.00  0.00     0.158 A 
HETATM   20  N   UNL     1      -6.838  -0.628 -35.279  1.00  0.00    -0.183 NA
HETATM   21  N   UNL     1      -6.284  -1.023 -34.115  1.00  0.00    -0.268 N 
HETATM   22  C   UNL     1      -6.210  -0.010 -33.174  1.00  0.00     0.052 A 
BRANCH  21  23
HETATM   23  C   UNL     1      -5.869  -2.418 -33.969  1.00  0.00     0.106 C 
HETATM   24  C   UNL     1      -6.814  -3.329 -34.754  1.00  0.00     0.034 C 
BRANCH  23  25
HETATM   25  C   UNL     1      -4.402  -2.678 -34.371  1.00  0.00     0.022 C 
HETATM   26  C   UNL     1      -3.843  -3.966 -33.779  1.00  0.00     0.007 C 
ENDBRANCH  23  25
ENDBRANCH  21  23
BRANCH  22  27
HETATM   27  C   UNL     1      -5.666  -0.190 -31.755  1.00  0.00     0.038 A 
HETATM   28  C   UNL     1      -4.177  -0.280 -31.513  1.00  0.00     0.011 A 
HETATM   29  C   UNL     1      -4.925   0.925 -31.057  1.00  0.00     0.011 A 
ENDBRANCH  22  27
ENDBRANCH   1  18
TORSDOF 10
ENDMDL
MODEL 8
REMARK VINA RESULT:      -6.8      1.503      2.112
REMARK  10 active torsions:
REMARK  status: ('A' for Active; 'I' for Inactive)
REMARK    1  A    between atoms: C_2  and  C_3 
REMARK    2  A    between atoms: C_3  and  N_4 
REMARK    3  A    between atoms: C_7  and  C_8 
REMARK       I    between atoms: C_8  and  N_9 
REMARK    4  A    between atoms: N_9  and  C_10 
REMARK    5  A    between atoms: C_10  and  C_11 
REMARK    6  A    between atoms: C_11  and  O_12 
REMARK    7  A    between atoms: C_11  and  C_13 
REMARK    8  A    between atoms: C_13  and  O_14 
REMARK    9  A    between atoms: O_14  and  C_15 
REMARK   10  A    between atoms: C_23  and  C_24 
ROOT
HETATM    1  C   UNL     1      -6.155   4.513 -30.950  1.00  0.00     0.255 C 
HETATM    2  N   UNL     1      -7.301   4.142 -31.604  1.00  0.00    -0.354 N 
HETATM    3  O   UNL     1      -6.054   4.524 -29.728  1.00  0.00    -0.268 OA
HETATM    4  H   UNL     1      -7.386   4.341 -32.593  1.00  0.00     0.162 HD
ENDROOT
BRANCH   2   5
HETATM    5  C   UNL     1      -8.461   3.611 -30.914  1.00  0.00     0.156 C 
BRANCH   5   6
HETATM    6  C   UNL     1      -9.111   2.431 -31.643  1.00  0.00     0.160 C 
BRANCH   6   7
HETATM    7  O   UNL     1      -9.557   1.468 -30.672  1.00  0.00    -0.392 OA
HETATM    8  H   UNL     1     -10.114   1.968 -30.044  1.00  0.00     0.210 HD
ENDBRANCH   6   7
BRANCH   6   9
HETATM    9  C   UNL     1      -8.184   1.755 -32.659  1.00  0.00     0.209 C 
BRANCH   9  10
HETATM   10  O   UNL     1      -7.790   0.503 -32.076  1.00  0.00    -0.349 OA
BRANCH  10  11
HETATM   11  C   UNL     1      -6.989  -0.310 -32.831  1.00  0.00     0.069 A 
HETATM   12  C   UNL     1      -5.782  -0.666 -32.221  1.00  0.00     0.043 A 
HETATM   13  C   UNL     1      -4.860  -1.494 -32.873  1.00  0.00    -0.059 A 
HETATM   14  C   UNL     1      -3.566  -1.875 -32.217  1.00  0.00     0.048 C 
HETATM   15  C   UNL     1      -5.155  -1.953 -34.160  1.00  0.00     0.007 A 
HETATM   16  C   UNL     1      -6.355  -1.596 -34.776  1.00  0.00     0.003 A 
HETATM   17  C   UNL     1      -7.274  -0.777 -34.113  1.00  0.00     0.037 A 
ENDBRANCH  10  11
ENDBRANCH   9  10
ENDBRANCH   6   9
ENDBRANCH   5   6
ENDBRANCH   2   5
BRANCH   1  18
HETATM   18  C   UNL     1      -5.098   4.976 -31.820  1.00  0.00     0.075 A 
HETATM   19  C   UNL     1      -5.149   6.167 -32.575  1.00  0.00     0.158 A 
HETATM   20  N   UNL     1      -4.041   6.381 -33.280  1.00  0.00    -0.183 NA
HETATM   21  N   UNL     1      -3.221   5.379 -32.903  1.00  0.00    -0.268 N 
HETATM   22  C   UNL     1      -3.831   4.460 -32.067  1.00  0.00     0.052 A 
BRANCH  21  23
HETATM   23  C   UNL     1      -1.852   5.357 -33.418  1.00  0.00     0.106 C 
HETATM   24  C   UNL     1      -1.862   5.060 -34.919  1.00  0.00     0.034 C 
BRANCH  23  25
HETATM   25  C   UNL     1      -1.053   6.644 -33.124  1.00  0.00     0.022 C 
HETATM   26  C   UNL     1      -0.176   6.529 -31.884  1.00  0.00     0.007 C 
ENDBRANCH  23  25
ENDBRANCH  21  23
BRANCH  22  27
HETATM   27  C   UNL     1      -3.147   3.203 -31.524  1.00  0.00     0.038 A 
HETATM   28  C   UNL     1      -3.970   2.009 -31.097  1.00  0.00     0.011 A 
HETATM   29  C   UNL     1      -3.124   1.921 -32.320  1.00  0.00     0.011 A 
ENDBRANCH  22  27
ENDBRANCH   1  18
TORSDOF 10
ENDMDL
MODEL 9
REMARK VINA RESULT:      -6.7      3.110      8.437
REMARK  10 active torsions:
REMARK  status: ('A' for Active; 'I' for Inactive)
REMARK    1  A    between atoms: C_2  and  C_3 
REMARK    2  A    between atoms: C_3  and  N_4 
REMARK    3  A    between atoms: C_7  and  C_8 
REMARK       I    between atoms: C_8  and  N_9 
REMARK    4  A    between atoms: N_9  and  C_10 
REMARK    5  A    between atoms: C_10  and  C_11 
REMARK    6  A    between atoms: C_11  and  O_12 
REMARK    7  A    between atoms: C_11  and  C_13 
REMARK    8  A    between atoms: C_13  and  O_14 
REMARK    9  A    between atoms: O_14  and  C_15 
REMARK   10  A    between atoms: C_23  and  C_24 
ROOT
HETATM    1  C   UNL     1      -3.579   3.073 -32.225  1.00  0.00     0.255 C 
HETATM    2  N   UNL     1      -3.269   3.914 -33.261  1.00  0.00    -0.354 N 
HETATM    3  O   UNL     1      -2.796   2.806 -31.320  1.00  0.00    -0.268 OA
HETATM    4  H   UNL     1      -3.878   3.939 -34.070  1.00  0.00     0.162 HD
ENDROOT
BRANCH   2   5
HETATM    5  C   UNL     1      -2.028   4.662 -33.321  1.00  0.00     0.156 C 
BRANCH   5   6
HETATM    6  C   UNL     1      -2.211   6.102 -33.808  1.00  0.00     0.160 C 
BRANCH   6   7
HETATM    7  O   UNL     1      -0.991   6.546 -34.428  1.00  0.00    -0.392 OA
HETATM    8  H   UNL     1      -0.960   7.511 -34.281  1.00  0.00     0.210 HD
ENDBRANCH   6   7
BRANCH   6   9
HETATM    9  C   UNL     1      -2.615   7.077 -32.696  1.00  0.00     0.209 C 
BRANCH   9  10
HETATM   10  O   UNL     1      -2.461   6.365 -31.459  1.00  0.00    -0.349 OA
BRANCH  10  11
HETATM   11  C   UNL     1      -1.530   6.843 -30.578  1.00  0.00     0.069 A 
HETATM   12  C   UNL     1      -2.058   7.604 -29.530  1.00  0.00     0.043 A 
HETATM   13  C   UNL     1      -1.226   8.160 -28.550  1.00  0.00    -0.059 A 
HETATM   14  C   UNL     1      -1.794   8.976 -27.428  1.00  0.00     0.048 C 
HETATM   15  C   UNL     1       0.154   7.957 -28.641  1.00  0.00     0.007 A 
HETATM   16  C   UNL     1       0.687   7.203 -29.687  1.00  0.00     0.003 A 
HETATM   17  C   UNL     1      -0.153   6.644 -30.655  1.00  0.00     0.037 A 
ENDBRANCH  10  11
ENDBRANCH   9  10
ENDBRANCH   6   9
ENDBRANCH   5   6
ENDBRANCH   2   5
BRANCH   1  18
HETATM   18  C   UNL     1      -4.882   2.457 -32.330  1.00  0.00     0.075 A 
HETATM   19  C   UNL     1      -6.088   3.165 -32.519  1.00  0.00     0.158 A 
HETATM   20  N   UNL     1      -7.149   2.367 -32.605  1.00  0.00    -0.183 NA
HETATM   21  N   UNL     1      -6.623   1.126 -32.577  1.00  0.00    -0.268 N 
HETATM   22  C   UNL     1      -5.258   1.118 -32.346  1.00  0.00     0.052 A 
BRANCH  21  23
HETATM   23  C   UNL     1      -7.512  -0.022 -32.752  1.00  0.00     0.106 C 
HETATM   24  C   UNL     1      -8.946   0.368 -32.389  1.00  0.00     0.034 C 
BRANCH  23  25
HETATM   25  C   UNL     1      -7.458  -0.643 -34.163  1.00  0.00     0.022 C 
HETATM   26  C   UNL     1      -7.344   0.399 -35.268  1.00  0.00     0.007 C 
ENDBRANCH  23  25
ENDBRANCH  21  23
BRANCH  22  27
HETATM   27  C   UNL     1      -4.412  -0.152 -32.222  1.00  0.00     0.038 A 
HETATM   28  C   UNL     1      -4.108  -0.989 -33.444  1.00  0.00     0.011 A 
HETATM   29  C   UNL     1      -3.014  -0.217 -32.789  1.00  0.00     0.011 A 
ENDBRANCH  22  27
ENDBRANCH   1  18
TORSDOF 10
ENDMDL
MODEL 10
REMARK VINA RESULT:      -6.7     15.621     17.246
REMARK  10 active torsions:
REMARK  status: ('A' for Active; 'I' for Inactive)
REMARK    1  A    between atoms: C_2  and  C_3 
REMARK    2  A    between atoms: C_3  and  N_4 
REMARK    3  A    between atoms: C_7  and  C_8 
REMARK       I    between atoms: C_8  and  N_9 
REMARK    4  A    between atoms: N_9  and  C_10 
REMARK    5  A    between atoms: C_10  and  C_11 
REMARK    6  A    between atoms: C_11  and  O_12 
REMARK    7  A    between atoms: C_11  and  C_13 
REMARK    8  A    between atoms: C_13  and  O_14 
REMARK    9  A    between atoms: O_14  and  C_15 
REMARK   10  A    between atoms: C_23  and  C_24 
ROOT
HETATM    1  C   UNL     1      -5.837 -12.589 -40.650  1.00  0.00     0.255 C 
HETATM    2  N   UNL     1      -7.033 -13.257 -40.605  1.00  0.00    -0.354 N 
HETATM    3  O   UNL     1      -5.749 -11.368 -40.577  1.00  0.00    -0.268 OA
HETATM    4  H   UNL     1      -7.057 -14.236 -40.866  1.00  0.00     0.162 HD
ENDROOT
BRANCH   2   5
HETATM    5  C   UNL     1      -8.295 -12.592 -40.343  1.00  0.00     0.156 C 
BRANCH   5   6
HETATM    6  C   UNL     1      -9.418 -13.556 -39.953  1.00  0.00     0.160 C 
BRANCH   6   7
HETATM    7  O   UNL     1     -10.598 -12.798 -39.631  1.00  0.00    -0.392 OA
HETATM    8  H   UNL     1     -11.349 -13.395 -39.808  1.00  0.00     0.210 HD
ENDBRANCH   6   7
BRANCH   6   9
HETATM    9  C   UNL     1      -9.055 -14.476 -38.781  1.00  0.00     0.209 C 
BRANCH   9  10
HETATM   10  O   UNL     1      -8.475 -13.635 -37.772  1.00  0.00    -0.349 OA
BRANCH  10  11
HETATM   11  C   UNL     1      -7.487 -14.181 -36.999  1.00  0.00     0.069 A 
HETATM   12  C   UNL     1      -7.196 -13.462 -35.835  1.00  0.00     0.043 A 
HETATM   13  C   UNL     1      -6.206 -13.900 -34.945  1.00  0.00    -0.059 A 
HETATM   14  C   UNL     1      -5.895 -13.129 -33.697  1.00  0.00     0.048 C 
HETATM   15  C   UNL     1      -5.494 -15.065 -35.246  1.00  0.00     0.007 A 
HETATM   16  C   UNL     1      -5.776 -15.782 -36.409  1.00  0.00     0.003 A 
HETATM   17  C   UNL     1      -6.773 -15.343 -37.286  1.00  0.00     0.037 A 
ENDBRANCH  10  11
ENDBRANCH   9  10
ENDBRANCH   6   9
ENDBRANCH   5   6
ENDBRANCH   2   5
BRANCH   1  18
HETATM   18  C   UNL     1      -4.691 -13.437 -40.879  1.00  0.00     0.075 A 
HETATM   19  C   UNL     1      -4.292 -13.917 -42.146  1.00  0.00     0.158 A 
HETATM   20  N   UNL     1      -3.191 -14.662 -42.094  1.00  0.00    -0.183 NA
HETATM   21  N   UNL     1      -2.809 -14.584 -40.804  1.00  0.00    -0.268 N 
HETATM   22  C   UNL     1      -3.715 -13.907 -40.006  1.00  0.00     0.052 A 
BRANCH  21  23
HETATM   23  C   UNL     1      -1.554 -15.219 -40.400  1.00  0.00     0.106 C 
HETATM   24  C   UNL     1      -1.261 -16.419 -41.302  1.00  0.00     0.034 C 
BRANCH  23  25
HETATM   25  C   UNL     1      -0.349 -14.255 -40.367  1.00  0.00     0.022 C 
HETATM   26  C   UNL     1       0.421 -14.310 -39.054  1.00  0.00     0.007 C 
ENDBRANCH  23  25
ENDBRANCH  21  23
BRANCH  22  27
HETATM   27  C   UNL     1      -3.555 -13.707 -38.497  1.00  0.00     0.038 A 
HETATM   28  C   UNL     1      -2.707 -12.575 -37.962  1.00  0.00     0.011 A 
HETATM   29  C   UNL     1      -4.187 -12.530 -37.795  1.00  0.00     0.011 A 
ENDBRANCH  22  27
ENDBRANCH   1  18
TORSDOF 10
ENDMDL
