MODEL 1
REMARK VINA RESULT:      -8.2      0.000      0.000
REMARK  4 active torsions:
REMARK  status: ('A' for Active; 'I' for Inactive)
REMARK    1  A    between atoms: C_9  and  C_10 
REMARK    2  A    between atoms: C_17  and  C_18 
REMARK       I    between atoms: C_18  and  N_19 
REMARK    3  A    between atoms: N_19  and  C_20 
REMARK    4  A    between atoms: C_23  and  O_24 
ROOT
HETATM    1  C   UNL     1      -9.389   2.501 -30.826  1.00  0.00     0.070 C 
HETATM    2  C   UNL     1      -8.146   3.299 -30.523  1.00  0.00     0.037 C 
HETATM    3  N   UNL     1      -8.362   4.585 -30.035  1.00  0.00    -0.192 N 
HETATM    4  C   UNL     1      -7.389   5.332 -29.479  1.00  0.00     0.725 A 
HETATM    5  N   UNL     1      -6.093   4.894 -29.529  1.00  0.00    -0.084 N 
HETATM    6  N   UNL     1      -5.269   5.720 -28.851  1.00  0.00    -0.149 NA
HETATM    7  C   UNL     1      -6.134   6.661 -28.457  1.00  0.00     0.275 A 
HETATM    8  N   UNL     1      -7.441   6.463 -28.824  1.00  0.00    -0.054 NA
HETATM    9  C   UNL     1      -5.671   3.654 -30.192  1.00  0.00     0.202 C 
HETATM   10  C   UNL     1      -6.878   2.828 -30.629  1.00  0.00     0.062 C 
HETATM   11  H   UNL     1      -9.326   4.873 -29.881  1.00  0.00     0.184 HD
ENDROOT
BRANCH  10  12
HETATM   12  C   UNL     1      -6.527   1.448 -31.058  1.00  0.00     0.256 C 
HETATM   13  N   UNL     1      -6.556   1.272 -32.423  1.00  0.00    -0.323 N 
HETATM   14  H   UNL     1      -6.789   2.078 -32.989  1.00  0.00     0.169 HD
HETATM   15  O   UNL     1      -6.206   0.634 -30.202  1.00  0.00    -0.267 OA
BRANCH  13  16
HETATM   16  C   UNL     1      -6.302   0.078 -33.133  1.00  0.00     0.035 A 
HETATM   17  C   UNL     1      -7.283  -0.658 -33.797  1.00  0.00     0.032 A 
HETATM   18  C   UNL     1      -6.942  -1.827 -34.487  1.00  0.00     0.039 A 
HETATM   19  C   UNL     1      -5.623  -2.275 -34.535  1.00  0.00     0.068 A 
HETATM   20  C   UNL     1      -4.639  -1.545 -33.873  1.00  0.00     0.039 A 
HETATM   21  C   UNL     1      -4.979  -0.379 -33.173  1.00  0.00     0.032 A 
BRANCH  19  22
HETATM   22  O   UNL     1      -5.434  -3.424 -35.250  1.00  0.00    -0.356 OA
HETATM   23  C   UNL     1      -6.391  -4.461 -35.071  1.00  0.00     0.210 C 
ENDBRANCH  19  22
ENDBRANCH  13  16
ENDBRANCH  10  12
BRANCH   9  24
HETATM   24  C   UNL     1      -4.742   3.965 -31.366  1.00  0.00    -0.028 A 
HETATM   25  C   UNL     1      -5.191   4.806 -32.399  1.00  0.00     0.011 A 
HETATM   26  C   UNL     1      -4.359   5.118 -33.478  1.00  0.00     0.024 A 
HETATM   27  C   UNL     1      -3.070   4.597 -33.531  1.00  0.00     0.034 A 
HETATM   28 CL   UNL     1      -2.046   4.975 -34.862  1.00  0.00    -0.084 Cl
HETATM   29  C   UNL     1      -2.601   3.771 -32.511  1.00  0.00     0.024 A 
HETATM   30  C   UNL     1      -3.430   3.461 -31.431  1.00  0.00     0.011 A 
ENDBRANCH   9  24
TORSDOF 4
ENDMDL
MODEL 2
REMARK VINA RESULT:      -8.2      1.905      2.494
REMARK  4 active torsions:
REMARK  status: ('A' for Active; 'I' for Inactive)
REMARK    1  A    between atoms: C_9  and  C_10 
REMARK    2  A    between atoms: C_17  and  C_18 
REMARK       I    between atoms: C_18  and  N_19 
REMARK    3  A    between atoms: N_19  and  C_20 
REMARK    4  A    between atoms: C_23  and  O_24 
ROOT
HETATM    1  C   UNL     1      -9.626   2.645 -34.302  1.00  0.00     0.070 C 
HETATM    2  C   UNL     1      -8.556   3.211 -33.402  1.00  0.00     0.037 C 
HETATM    3  N   UNL     1      -8.941   4.297 -32.622  1.00  0.00    -0.192 N 
HETATM    4  C   UNL     1      -8.206   4.759 -31.592  1.00  0.00     0.725 A 
HETATM    5  N   UNL     1      -6.949   4.257 -31.385  1.00  0.00    -0.084 N 
HETATM    6  N   UNL     1      -6.394   4.767 -30.266  1.00  0.00    -0.149 NA
HETATM    7  C   UNL     1      -7.360   5.607 -29.874  1.00  0.00     0.275 A 
HETATM    8  N   UNL     1      -8.484   5.634 -30.660  1.00  0.00    -0.054 NA
HETATM    9  C   UNL     1      -6.315   3.251 -32.247  1.00  0.00     0.202 C 
HETATM   10  C   UNL     1      -7.308   2.698 -33.264  1.00  0.00     0.062 C 
HETATM   11  H   UNL     1      -9.911   4.599 -32.682  1.00  0.00     0.184 HD
ENDROOT
BRANCH  10  12
HETATM   12  C   UNL     1      -6.811   1.493 -33.982  1.00  0.00     0.256 C 
HETATM   13  N   UNL     1      -6.583   0.415 -33.157  1.00  0.00    -0.323 N 
HETATM   14  H   UNL     1      -6.785   0.535 -32.173  1.00  0.00     0.169 HD
HETATM   15  O   UNL     1      -6.700   1.543 -35.200  1.00  0.00    -0.267 OA
BRANCH  13  16
HETATM   16  C   UNL     1      -6.086  -0.853 -33.530  1.00  0.00     0.035 A 
HETATM   17  C   UNL     1      -4.771  -1.267 -33.319  1.00  0.00     0.032 A 
HETATM   18  C   UNL     1      -4.363  -2.547 -33.710  1.00  0.00     0.039 A 
HETATM   19  C   UNL     1      -5.256  -3.435 -34.308  1.00  0.00     0.068 A 
HETATM   20  C   UNL     1      -6.570  -3.027 -34.522  1.00  0.00     0.039 A 
HETATM   21  C   UNL     1      -6.979  -1.742 -34.139  1.00  0.00     0.032 A 
BRANCH  19  22
HETATM   22  O   UNL     1      -4.725  -4.652 -34.631  1.00  0.00    -0.356 OA
HETATM   23  C   UNL     1      -3.516  -5.022 -33.980  1.00  0.00     0.210 C 
ENDBRANCH  19  22
ENDBRANCH  13  16
ENDBRANCH  10  12
BRANCH   9  24
HETATM   24  C   UNL     1      -5.074   3.834 -32.924  1.00  0.00    -0.028 A 
HETATM   25  C   UNL     1      -3.798   3.438 -32.487  1.00  0.00     0.011 A 
HETATM   26  C   UNL     1      -2.646   3.944 -33.096  1.00  0.00     0.024 A 
HETATM   27  C   UNL     1      -2.760   4.846 -34.150  1.00  0.00     0.034 A 
HETATM   28 CL   UNL     1      -1.342   5.476 -34.896  1.00  0.00    -0.084 Cl
HETATM   29  C   UNL     1      -4.015   5.242 -34.606  1.00  0.00     0.024 A 
HETATM   30  C   UNL     1      -5.167   4.735 -34.001  1.00  0.00     0.011 A 
ENDBRANCH   9  24
TORSDOF 4
ENDMDL
MODEL 3
REMARK VINA RESULT:      -8.2      3.500      6.862
REMARK  4 active torsions:
REMARK  status: ('A' for Active; 'I' for Inactive)
REMARK    1  A    between atoms: C_9  and  C_10 
REMARK    2  A    between atoms: C_17  and  C_18 
REMARK       I    between atoms: C_18  and  N_19 
REMARK    3  A    between atoms: N_19  and  C_20 
REMARK    4  A    between atoms: C_23  and  O_24 
ROOT
HETATM    1  C   UNL     1      -8.717   4.044 -30.198  1.00  0.00     0.070 C 
HETATM    2  C   UNL     1      -9.101   3.320 -31.463  1.00  0.00     0.037 C 
HETATM    3  N   UNL     1     -10.448   2.987 -31.579  1.00  0.00    -0.192 N 
HETATM    4  C   UNL     1     -11.005   2.575 -32.734  1.00  0.00     0.725 A 
HETATM    5  N   UNL     1     -10.203   2.312 -33.812  1.00  0.00    -0.084 N 
HETATM    6  N   UNL     1     -10.933   1.996 -34.902  1.00  0.00    -0.149 NA
HETATM    7  C   UNL     1     -12.169   2.044 -34.392  1.00  0.00     0.275 A 
HETATM    8  N   UNL     1     -12.257   2.391 -33.068  1.00  0.00    -0.054 NA
HETATM    9  C   UNL     1      -8.739   2.416 -33.789  1.00  0.00     0.202 C 
HETATM   10  C   UNL     1      -8.255   3.047 -32.488  1.00  0.00     0.062 C 
HETATM   11  H   UNL     1     -11.072   3.288 -30.834  1.00  0.00     0.184 HD
ENDROOT
BRANCH  10  12
HETATM   12  C   UNL     1      -6.817   3.427 -32.513  1.00  0.00     0.256 C 
HETATM   13  N   UNL     1      -6.556   4.550 -33.266  1.00  0.00    -0.323 N 
HETATM   14  H   UNL     1      -7.346   5.006 -33.705  1.00  0.00     0.169 HD
HETATM   15  O   UNL     1      -6.027   2.769 -31.848  1.00  0.00    -0.267 OA
BRANCH  13  16
HETATM   16  C   UNL     1      -5.297   5.140 -33.508  1.00  0.00     0.035 A 
HETATM   17  C   UNL     1      -4.646   5.985 -32.610  1.00  0.00     0.032 A 
HETATM   18  C   UNL     1      -3.391   6.520 -32.925  1.00  0.00     0.039 A 
HETATM   19  C   UNL     1      -2.763   6.215 -34.132  1.00  0.00     0.068 A 
HETATM   20  C   UNL     1      -3.408   5.372 -35.033  1.00  0.00     0.039 A 
HETATM   21  C   UNL     1      -4.669   4.843 -34.724  1.00  0.00     0.032 A 
BRANCH  19  22
HETATM   22  O   UNL     1      -1.540   6.800 -34.304  1.00  0.00    -0.356 OA
HETATM   23  C   UNL     1      -0.825   7.159 -33.128  1.00  0.00     0.210 C 
ENDBRANCH  19  22
ENDBRANCH  13  16
ENDBRANCH  10  12
BRANCH   9  24
HETATM   24  C   UNL     1      -8.102   1.046 -34.027  1.00  0.00    -0.028 A 
HETATM   25  C   UNL     1      -8.331   0.008 -33.106  1.00  0.00     0.011 A 
HETATM   26  C   UNL     1      -7.773  -1.257 -33.305  1.00  0.00     0.024 A 
HETATM   27  C   UNL     1      -6.986  -1.499 -34.427  1.00  0.00     0.034 A 
HETATM   28 CL   UNL     1      -6.292  -3.055 -34.669  1.00  0.00    -0.084 Cl
HETATM   29  C   UNL     1      -6.757  -0.487 -35.358  1.00  0.00     0.024 A 
HETATM   30  C   UNL     1      -7.316   0.777 -35.163  1.00  0.00     0.011 A 
ENDBRANCH   9  24
TORSDOF 4
ENDMDL
MODEL 4
REMARK VINA RESULT:      -8.1      1.879      2.627
REMARK  4 active torsions:
REMARK  status: ('A' for Active; 'I' for Inactive)
REMARK    1  A    between atoms: C_9  and  C_10 
REMARK    2  A    between atoms: C_17  and  C_18 
REMARK       I    between atoms: C_18  and  N_19 
REMARK    3  A    between atoms: N_19  and  C_20 
REMARK    4  A    between atoms: C_23  and  O_24 
ROOT
HETATM    1  C   UNL     1     -10.482   0.345 -33.096  1.00  0.00     0.070 C 
HETATM    2  C   UNL     1      -9.811   1.567 -32.523  1.00  0.00     0.037 C 
HETATM    3  N   UNL     1     -10.615   2.698 -32.412  1.00  0.00    -0.192 N 
HETATM    4  C   UNL     1     -10.261   3.783 -31.697  1.00  0.00     0.725 A 
HETATM    5  N   UNL     1      -8.995   3.865 -31.182  1.00  0.00    -0.084 N 
HETATM    6  N   UNL     1      -8.843   4.973 -30.426  1.00  0.00    -0.149 NA
HETATM    7  C   UNL     1     -10.049   5.536 -30.570  1.00  0.00     0.275 A 
HETATM    8  N   UNL     1     -10.944   4.841 -31.344  1.00  0.00    -0.054 NA
HETATM    9  C   UNL     1      -7.958   2.846 -31.385  1.00  0.00     0.202 C 
HETATM   10  C   UNL     1      -8.535   1.606 -32.061  1.00  0.00     0.062 C 
HETATM   11  H   UNL     1     -11.592   2.607 -32.682  1.00  0.00     0.184 HD
ENDROOT
BRANCH  10  12
HETATM   12  C   UNL     1      -7.610   0.441 -32.051  1.00  0.00     0.256 C 
HETATM   13  N   UNL     1      -7.199   0.052 -33.306  1.00  0.00    -0.323 N 
HETATM   14  H   UNL     1      -7.543   0.590 -34.092  1.00  0.00     0.169 HD
HETATM   15  O   UNL     1      -7.264  -0.021 -30.971  1.00  0.00    -0.267 OA
BRANCH  13  16
HETATM   16  C   UNL     1      -6.351  -1.029 -33.628  1.00  0.00     0.035 A 
HETATM   17  C   UNL     1      -6.769  -2.173 -34.307  1.00  0.00     0.032 A 
HETATM   18  C   UNL     1      -5.857  -3.195 -34.596  1.00  0.00     0.039 A 
HETATM   19  C   UNL     1      -4.519  -3.092 -34.221  1.00  0.00     0.068 A 
HETATM   20  C   UNL     1      -4.095  -1.952 -33.541  1.00  0.00     0.039 A 
HETATM   21  C   UNL     1      -5.008  -0.931 -33.243  1.00  0.00     0.032 A 
BRANCH  19  22
HETATM   22  O   UNL     1      -3.741  -4.159 -34.574  1.00  0.00    -0.356 OA
HETATM   23  C   UNL     1      -3.604  -5.202 -33.617  1.00  0.00     0.210 C 
ENDBRANCH  19  22
ENDBRANCH  13  16
ENDBRANCH  10  12
BRANCH   9  24
HETATM   24  C   UNL     1      -6.784   3.428 -32.174  1.00  0.00    -0.028 A 
HETATM   25  C   UNL     1      -6.996   3.900 -33.481  1.00  0.00     0.011 A 
HETATM   26  C   UNL     1      -5.945   4.449 -34.220  1.00  0.00     0.024 A 
HETATM   27  C   UNL     1      -4.674   4.535 -33.658  1.00  0.00     0.034 A 
HETATM   28 CL   UNL     1      -3.377   5.205 -34.570  1.00  0.00    -0.084 Cl
HETATM   29  C   UNL     1      -4.446   4.085 -32.359  1.00  0.00     0.024 A 
HETATM   30  C   UNL     1      -5.496   3.539 -31.618  1.00  0.00     0.011 A 
ENDBRANCH   9  24
TORSDOF 4
ENDMDL
MODEL 5
REMARK VINA RESULT:      -8.0      3.598      6.689
REMARK  4 active torsions:
REMARK  status: ('A' for Active; 'I' for Inactive)
REMARK    1  A    between atoms: C_9  and  C_10 
REMARK    2  A    between atoms: C_17  and  C_18 
REMARK       I    between atoms: C_18  and  N_19 
REMARK    3  A    between atoms: N_19  and  C_20 
REMARK    4  A    between atoms: C_23  and  O_24 
ROOT
HETATM    1  C   UNL     1      -9.744   4.537 -30.875  1.00  0.00     0.070 C 
HETATM    2  C   UNL     1     -10.006   3.583 -32.013  1.00  0.00     0.037 C 
HETATM    3  N   UNL     1     -11.295   3.060 -32.073  1.00  0.00    -0.192 N 
HETATM    4  C   UNL     1     -11.772   2.406 -33.150  1.00  0.00     0.725 A 
HETATM    5  N   UNL     1     -10.922   2.090 -34.176  1.00  0.00    -0.084 N 
HETATM    6  N   UNL     1     -11.584   1.517 -35.203  1.00  0.00    -0.149 NA
HETATM    7  C   UNL     1     -12.825   1.478 -34.704  1.00  0.00     0.275 A 
HETATM    8  N   UNL     1     -12.982   2.008 -33.449  1.00  0.00    -0.054 NA
HETATM    9  C   UNL     1      -9.485   2.390 -34.173  1.00  0.00     0.202 C 
HETATM   10  C   UNL     1      -9.112   3.272 -32.985  1.00  0.00     0.062 C 
HETATM   11  H   UNL     1     -11.967   3.386 -31.382  1.00  0.00     0.184 HD
ENDROOT
BRANCH  10  12
HETATM   12  C   UNL     1      -7.737   3.831 -33.071  1.00  0.00     0.256 C 
HETATM   13  N   UNL     1      -6.848   3.247 -32.197  1.00  0.00    -0.323 N 
HETATM   14  H   UNL     1      -7.200   2.504 -31.608  1.00  0.00     0.169 HD
HETATM   15  O   UNL     1      -7.508   4.692 -33.912  1.00  0.00    -0.267 OA
BRANCH  13  16
HETATM   16  C   UNL     1      -5.487   3.577 -32.020  1.00  0.00     0.035 A 
HETATM   17  C   UNL     1      -5.041   4.707 -31.336  1.00  0.00     0.032 A 
HETATM   18  C   UNL     1      -3.670   4.953 -31.196  1.00  0.00     0.039 A 
HETATM   19  C   UNL     1      -2.725   4.076 -31.727  1.00  0.00     0.068 A 
HETATM   20  C   UNL     1      -3.164   2.945 -32.412  1.00  0.00     0.039 A 
HETATM   21  C   UNL     1      -4.536   2.702 -32.560  1.00  0.00     0.032 A 
BRANCH  19  22
HETATM   22  O   UNL     1      -1.425   4.435 -31.510  1.00  0.00    -0.356 OA
HETATM   23  C   UNL     1      -0.856   5.378 -32.410  1.00  0.00     0.210 C 
ENDBRANCH  19  22
ENDBRANCH  13  16
ENDBRANCH  10  12
BRANCH   9  24
HETATM   24  C   UNL     1      -8.669   1.097 -34.198  1.00  0.00    -0.028 A 
HETATM   25  C   UNL     1      -7.700   0.911 -35.200  1.00  0.00     0.011 A 
HETATM   26  C   UNL     1      -6.931  -0.255 -35.240  1.00  0.00     0.024 A 
HETATM   27  C   UNL     1      -7.119  -1.242 -34.278  1.00  0.00     0.034 A 
HETATM   28 CL   UNL     1      -6.177  -2.682 -34.330  1.00  0.00    -0.084 Cl
HETATM   29  C   UNL     1      -8.066  -1.072 -33.270  1.00  0.00     0.024 A 
HETATM   30  C   UNL     1      -8.833   0.094 -33.226  1.00  0.00     0.011 A 
ENDBRANCH   9  24
TORSDOF 4
ENDMDL
MODEL 6
REMARK VINA RESULT:      -7.9      4.008      5.771
REMARK  4 active torsions:
REMARK  status: ('A' for Active; 'I' for Inactive)
REMARK    1  A    between atoms: C_9  and  C_10 
REMARK    2  A    between atoms: C_17  and  C_18 
REMARK       I    between atoms: C_18  and  N_19 
REMARK    3  A    between atoms: N_19  and  C_20 
REMARK    4  A    between atoms: C_23  and  O_24 
ROOT
HETATM    1  C   UNL     1      -7.888   3.311 -30.163  1.00  0.00     0.070 C 
HETATM    2  C   UNL     1      -8.707   3.717 -31.363  1.00  0.00     0.037 C 
HETATM    3  N   UNL     1      -9.089   5.054 -31.404  1.00  0.00    -0.192 N 
HETATM    4  C   UNL     1      -9.595   5.639 -32.508  1.00  0.00     0.725 A 
HETATM    5  N   UNL     1      -9.903   4.868 -33.596  1.00  0.00    -0.084 N 
HETATM    6  N   UNL     1     -10.313   5.627 -34.634  1.00  0.00    -0.149 NA
HETATM    7  C   UNL     1     -10.271   6.844 -34.081  1.00  0.00     0.275 A 
HETATM    8  N   UNL     1      -9.840   6.895 -32.780  1.00  0.00    -0.054 NA
HETATM    9  C   UNL     1      -9.751   3.409 -33.638  1.00  0.00     0.202 C 
HETATM   10  C   UNL     1      -9.020   2.899 -32.400  1.00  0.00     0.062 C 
HETATM   11  H   UNL     1      -8.759   5.660 -30.657  1.00  0.00     0.184 HD
ENDROOT
BRANCH  10  12
HETATM   12  C   UNL     1      -8.596   1.477 -32.505  1.00  0.00     0.256 C 
HETATM   13  N   UNL     1      -7.484   1.290 -33.295  1.00  0.00    -0.323 N 
HETATM   14  H   UNL     1      -7.064   2.115 -33.704  1.00  0.00     0.169 HD
HETATM   15  O   UNL     1      -9.214   0.634 -31.867  1.00  0.00    -0.267 OA
BRANCH  13  16
HETATM   16  C   UNL     1      -6.862   0.063 -33.613  1.00  0.00     0.035 A 
HETATM   17  C   UNL     1      -7.468  -0.950 -34.354  1.00  0.00     0.032 A 
HETATM   18  C   UNL     1      -6.774  -2.133 -34.633  1.00  0.00     0.039 A 
HETATM   19  C   UNL     1      -5.466  -2.321 -34.188  1.00  0.00     0.068 A 
HETATM   20  C   UNL     1      -4.855  -1.312 -33.447  1.00  0.00     0.039 A 
HETATM   21  C   UNL     1      -5.552  -0.131 -33.158  1.00  0.00     0.032 A 
BRANCH  19  22
HETATM   22  O   UNL     1      -4.908  -3.517 -34.539  1.00  0.00    -0.356 OA
HETATM   23  C   UNL     1      -5.793  -4.536 -34.989  1.00  0.00     0.210 C 
ENDBRANCH  19  22
ENDBRANCH  13  16
ENDBRANCH  10  12
BRANCH   9  24
HETATM   24  C   UNL     1     -11.112   2.735 -33.810  1.00  0.00    -0.028 A 
HETATM   25  C   UNL     1     -12.153   3.038 -32.914  1.00  0.00     0.011 A 
HETATM   26  C   UNL     1     -13.411   2.447 -33.055  1.00  0.00     0.024 A 
HETATM   27  C   UNL     1     -13.643   1.552 -34.096  1.00  0.00     0.034 A 
HETATM   28 CL   UNL     1     -15.190   0.819 -34.267  1.00  0.00    -0.084 Cl
HETATM   29  C   UNL     1     -12.629   1.248 -35.002  1.00  0.00     0.024 A 
HETATM   30  C   UNL     1     -11.372   1.840 -34.865  1.00  0.00     0.011 A 
ENDBRANCH   9  24
TORSDOF 4
ENDMDL
MODEL 7
REMARK VINA RESULT:      -7.4      3.045      4.332
REMARK  4 active torsions:
REMARK  status: ('A' for Active; 'I' for Inactive)
REMARK    1  A    between atoms: C_9  and  C_10 
REMARK    2  A    between atoms: C_17  and  C_18 
REMARK       I    between atoms: C_18  and  N_19 
REMARK    3  A    between atoms: N_19  and  C_20 
REMARK    4  A    between atoms: C_23  and  O_24 
ROOT
HETATM    1  C   UNL     1      -6.003   1.649 -29.477  1.00  0.00     0.070 C 
HETATM    2  C   UNL     1      -6.850   2.667 -30.199  1.00  0.00     0.037 C 
HETATM    3  N   UNL     1      -7.437   3.639 -29.394  1.00  0.00    -0.192 N 
HETATM    4  C   UNL     1      -8.004   4.757 -29.888  1.00  0.00     0.725 A 
HETATM    5  N   UNL     1      -8.164   4.887 -31.242  1.00  0.00    -0.084 N 
HETATM    6  N   UNL     1      -8.667   6.098 -31.562  1.00  0.00    -0.149 NA
HETATM    7  C   UNL     1      -8.828   6.627 -30.343  1.00  0.00     0.275 A 
HETATM    8  N   UNL     1      -8.438   5.837 -29.292  1.00  0.00    -0.054 NA
HETATM    9  C   UNL     1      -7.784   3.857 -32.216  1.00  0.00     0.202 C 
HETATM   10  C   UNL     1      -7.008   2.728 -31.545  1.00  0.00     0.062 C 
HETATM   11  H   UNL     1      -7.222   3.618 -28.400  1.00  0.00     0.184 HD
ENDROOT
BRANCH  10  12
HETATM   12  C   UNL     1      -6.364   1.797 -32.510  1.00  0.00     0.256 C 
HETATM   13  N   UNL     1      -6.715   0.479 -32.322  1.00  0.00    -0.323 N 
HETATM   14  H   UNL     1      -7.371   0.277 -31.578  1.00  0.00     0.169 HD
HETATM   15  O   UNL     1      -5.648   2.266 -33.385  1.00  0.00    -0.267 OA
BRANCH  13  16
HETATM   16  C   UNL     1      -6.253  -0.638 -33.051  1.00  0.00     0.035 A 
HETATM   17  C   UNL     1      -4.971  -1.172 -32.929  1.00  0.00     0.032 A 
HETATM   18  C   UNL     1      -4.597  -2.291 -33.683  1.00  0.00     0.039 A 
HETATM   19  C   UNL     1      -5.494  -2.897 -34.562  1.00  0.00     0.068 A 
HETATM   20  C   UNL     1      -6.776  -2.367 -34.689  1.00  0.00     0.039 A 
HETATM   21  C   UNL     1      -7.149  -1.242 -33.941  1.00  0.00     0.032 A 
BRANCH  19  22
HETATM   22  O   UNL     1      -4.999  -3.983 -35.227  1.00  0.00    -0.356 OA
HETATM   23  C   UNL     1      -4.850  -5.185 -34.480  1.00  0.00     0.210 C 
ENDBRANCH  19  22
ENDBRANCH  13  16
ENDBRANCH  10  12
BRANCH   9  24
HETATM   24  C   UNL     1      -9.019   3.338 -32.953  1.00  0.00    -0.028 A 
HETATM   25  C   UNL     1      -9.836   2.373 -32.338  1.00  0.00     0.011 A 
HETATM   26  C   UNL     1     -10.978   1.890 -32.982  1.00  0.00     0.024 A 
HETATM   27  C   UNL     1     -11.316   2.369 -34.245  1.00  0.00     0.034 A 
HETATM   28 CL   UNL     1     -12.718   1.770 -35.042  1.00  0.00    -0.084 Cl
HETATM   29  C   UNL     1     -10.526   3.334 -34.867  1.00  0.00     0.024 A 
HETATM   30  C   UNL     1      -9.386   3.821 -34.223  1.00  0.00     0.011 A 
ENDBRANCH   9  24
TORSDOF 4
ENDMDL
MODEL 8
REMARK VINA RESULT:      -7.4      3.963      5.616
REMARK  4 active torsions:
REMARK  status: ('A' for Active; 'I' for Inactive)
REMARK    1  A    between atoms: C_9  and  C_10 
REMARK    2  A    between atoms: C_17  and  C_18 
REMARK       I    between atoms: C_18  and  N_19 
REMARK    3  A    between atoms: N_19  and  C_20 
REMARK    4  A    between atoms: C_23  and  O_24 
ROOT
HETATM    1  C   UNL     1      -6.245  -0.547 -32.082  1.00  0.00     0.070 C 
HETATM    2  C   UNL     1      -5.788   0.884 -32.213  1.00  0.00     0.037 C 
HETATM    3  N   UNL     1      -4.605   1.199 -31.552  1.00  0.00    -0.192 N 
HETATM    4  C   UNL     1      -3.925   2.342 -31.768  1.00  0.00     0.725 A 
HETATM    5  N   UNL     1      -4.484   3.320 -32.546  1.00  0.00    -0.084 N 
HETATM    6  N   UNL     1      -3.633   4.352 -32.725  1.00  0.00    -0.149 NA
HETATM    7  C   UNL     1      -2.595   3.945 -31.985  1.00  0.00     0.275 A 
HETATM    8  N   UNL     1      -2.735   2.722 -31.380  1.00  0.00    -0.054 NA
HETATM    9  C   UNL     1      -5.819   3.225 -33.149  1.00  0.00     0.202 C 
HETATM   10  C   UNL     1      -6.404   1.828 -32.968  1.00  0.00     0.062 C 
HETATM   11  H   UNL     1      -4.120   0.445 -31.071  1.00  0.00     0.184 HD
ENDROOT
BRANCH  10  12
HETATM   12  C   UNL     1      -7.625   1.587 -33.783  1.00  0.00     0.256 C 
HETATM   13  N   UNL     1      -8.793   1.936 -33.142  1.00  0.00    -0.323 N 
HETATM   14  H   UNL     1      -8.711   2.327 -32.212  1.00  0.00     0.169 HD
HETATM   15  O   UNL     1      -7.492   1.166 -34.924  1.00  0.00    -0.267 OA
BRANCH  13  16
HETATM   16  C   UNL     1     -10.108   1.801 -33.636  1.00  0.00     0.035 A 
HETATM   17  C   UNL     1     -10.711   2.708 -34.507  1.00  0.00     0.032 A 
HETATM   18  C   UNL     1     -12.019   2.492 -34.958  1.00  0.00     0.039 A 
HETATM   19  C   UNL     1     -12.741   1.369 -34.556  1.00  0.00     0.068 A 
HETATM   20  C   UNL     1     -12.145   0.460 -33.685  1.00  0.00     0.039 A 
HETATM   21  C   UNL     1     -10.839   0.680 -33.225  1.00  0.00     0.032 A 
BRANCH  19  22
HETATM   22  O   UNL     1     -14.000   1.281 -35.079  1.00  0.00    -0.356 OA
HETATM   23  C   UNL     1     -14.999   0.684 -34.261  1.00  0.00     0.210 C 
ENDBRANCH  19  22
ENDBRANCH  13  16
ENDBRANCH  10  12
BRANCH   9  24
HETATM   24  C   UNL     1      -6.741   4.305 -32.579  1.00  0.00    -0.028 A 
HETATM   25  C   UNL     1      -7.370   5.208 -33.453  1.00  0.00     0.011 A 
HETATM   26  C   UNL     1      -8.227   6.196 -32.961  1.00  0.00     0.024 A 
HETATM   27  C   UNL     1      -8.467   6.287 -31.593  1.00  0.00     0.034 A 
HETATM   28 CL   UNL     1      -9.517   7.508 -30.986  1.00  0.00    -0.084 Cl
HETATM   29  C   UNL     1      -7.863   5.394 -30.711  1.00  0.00     0.024 A 
HETATM   30  C   UNL     1      -7.008   4.403 -31.201  1.00  0.00     0.011 A 
ENDBRANCH   9  24
TORSDOF 4
ENDMDL
MODEL 9
REMARK VINA RESULT:      -7.2      4.966      6.637
REMARK  4 active torsions:
REMARK  status: ('A' for Active; 'I' for Inactive)
REMARK    1  A    between atoms: C_9  and  C_10 
REMARK    2  A    between atoms: C_17  and  C_18 
REMARK       I    between atoms: C_18  and  N_19 
REMARK    3  A    between atoms: N_19  and  C_20 
REMARK    4  A    between atoms: C_23  and  O_24 
ROOT
HETATM    1  C   UNL     1     -13.510   0.220 -34.022  1.00  0.00     0.070 C 
HETATM    2  C   UNL     1     -13.438   1.637 -33.510  1.00  0.00     0.037 C 
HETATM    3  N   UNL     1     -14.653   2.200 -33.130  1.00  0.00    -0.192 N 
HETATM    4  C   UNL     1     -14.743   3.343 -32.422  1.00  0.00     0.725 A 
HETATM    5  N   UNL     1     -13.613   4.082 -32.192  1.00  0.00    -0.084 N 
HETATM    6  N   UNL     1     -13.874   5.141 -31.397  1.00  0.00    -0.149 NA
HETATM    7  C   UNL     1     -15.193   5.002 -31.226  1.00  0.00     0.275 A 
HETATM    8  N   UNL     1     -15.765   3.916 -31.840  1.00  0.00    -0.054 NA
HETATM    9  C   UNL     1     -12.283   3.729 -32.703  1.00  0.00     0.202 C 
HETATM   10  C   UNL     1     -12.291   2.341 -33.337  1.00  0.00     0.062 C 
HETATM   11  H   UNL     1     -15.481   1.612 -33.186  1.00  0.00     0.184 HD
ENDROOT
BRANCH  10  12
HETATM   12  C   UNL     1     -10.930   1.816 -33.628  1.00  0.00     0.256 C 
HETATM   13  N   UNL     1     -10.345   1.178 -32.558  1.00  0.00    -0.323 N 
HETATM   14  H   UNL     1     -10.887   1.115 -31.705  1.00  0.00     0.169 HD
HETATM   15  O   UNL     1     -10.485   1.943 -34.762  1.00  0.00    -0.267 OA
BRANCH  13  16
HETATM   16  C   UNL     1      -9.057   0.603 -32.509  1.00  0.00     0.035 A 
HETATM   17  C   UNL     1      -8.563  -0.286 -33.464  1.00  0.00     0.032 A 
HETATM   18  C   UNL     1      -7.267  -0.801 -33.345  1.00  0.00     0.039 A 
HETATM   19  C   UNL     1      -6.443  -0.436 -32.282  1.00  0.00     0.068 A 
HETATM   20  C   UNL     1      -6.931   0.450 -31.324  1.00  0.00     0.039 A 
HETATM   21  C   UNL     1      -8.232   0.961 -31.437  1.00  0.00     0.032 A 
BRANCH  19  22
HETATM   22  O   UNL     1      -5.203  -1.009 -32.296  1.00  0.00    -0.356 OA
HETATM   23  C   UNL     1      -4.409  -0.804 -33.459  1.00  0.00     0.210 C 
ENDBRANCH  19  22
ENDBRANCH  13  16
ENDBRANCH  10  12
BRANCH   9  24
HETATM   24  C   UNL     1     -11.785   4.796 -33.677  1.00  0.00    -0.028 A 
HETATM   25  C   UNL     1     -12.584   5.155 -34.777  1.00  0.00     0.011 A 
HETATM   26  C   UNL     1     -12.159   6.136 -35.677  1.00  0.00     0.024 A 
HETATM   27  C   UNL     1     -10.936   6.771 -35.483  1.00  0.00     0.034 A 
HETATM   28 CL   UNL     1     -10.409   7.975 -36.594  1.00  0.00    -0.084 Cl
HETATM   29  C   UNL     1     -10.135   6.439 -34.392  1.00  0.00     0.024 A 
HETATM   30  C   UNL     1     -10.559   5.461 -33.490  1.00  0.00     0.011 A 
ENDBRANCH   9  24
TORSDOF 4
ENDMDL
MODEL 10
REMARK VINA RESULT:      -7.1      3.707      5.332
REMARK  4 active torsions:
REMARK  status: ('A' for Active; 'I' for Inactive)
REMARK    1  A    between atoms: C_9  and  C_10 
REMARK    2  A    between atoms: C_17  and  C_18 
REMARK       I    between atoms: C_18  and  N_19 
REMARK    3  A    between atoms: N_19  and  C_20 
REMARK    4  A    between atoms: C_23  and  O_24 
ROOT
HETATM    1  C   UNL     1      -3.983   1.355 -31.326  1.00  0.00     0.070 C 
HETATM    2  C   UNL     1      -4.061   2.686 -32.030  1.00  0.00     0.037 C 
HETATM    3  N   UNL     1      -2.841   3.239 -32.406  1.00  0.00    -0.192 N 
HETATM    4  C   UNL     1      -2.737   4.279 -33.257  1.00  0.00     0.725 A 
HETATM    5  N   UNL     1      -3.869   4.937 -33.656  1.00  0.00    -0.084 N 
HETATM    6  N   UNL     1      -3.587   5.889 -34.569  1.00  0.00    -0.149 NA
HETATM    7  C   UNL     1      -2.255   5.778 -34.638  1.00  0.00     0.275 A 
HETATM    8  N   UNL     1      -1.695   4.807 -33.847  1.00  0.00    -0.054 NA
HETATM    9  C   UNL     1      -5.220   4.605 -33.185  1.00  0.00     0.202 C 
HETATM   10  C   UNL     1      -5.214   3.317 -32.368  1.00  0.00     0.062 C 
HETATM   11  H   UNL     1      -2.001   2.695 -32.219  1.00  0.00     0.184 HD
ENDROOT
BRANCH  10  12
HETATM   12  C   UNL     1      -6.575   2.784 -32.094  1.00  0.00     0.256 C 
HETATM   13  N   UNL     1      -7.151   2.158 -33.176  1.00  0.00    -0.323 N 
HETATM   14  H   UNL     1      -6.603   2.107 -34.026  1.00  0.00     0.169 HD
HETATM   15  O   UNL     1      -7.030   2.896 -30.962  1.00  0.00    -0.267 OA
BRANCH  13  16
HETATM   16  C   UNL     1      -8.437   1.580 -33.241  1.00  0.00     0.035 A 
HETATM   17  C   UNL     1      -8.780   0.369 -32.640  1.00  0.00     0.032 A 
HETATM   18  C   UNL     1     -10.084  -0.127 -32.745  1.00  0.00     0.039 A 
HETATM   19  C   UNL     1     -11.067   0.575 -33.441  1.00  0.00     0.068 A 
HETATM   20  C   UNL     1     -10.731   1.785 -34.045  1.00  0.00     0.039 A 
HETATM   21  C   UNL     1      -9.423   2.279 -33.948  1.00  0.00     0.032 A 
BRANCH  19  22
HETATM   22  O   UNL     1     -12.296  -0.022 -33.456  1.00  0.00    -0.356 OA
HETATM   23  C   UNL     1     -13.417   0.813 -33.720  1.00  0.00     0.210 C 
ENDBRANCH  19  22
ENDBRANCH  13  16
ENDBRANCH  10  12
BRANCH   9  24
HETATM   24  C   UNL     1      -5.813   5.774 -32.399  1.00  0.00    -0.028 A 
HETATM   25  C   UNL     1      -5.098   6.310 -31.313  1.00  0.00     0.011 A 
HETATM   26  C   UNL     1      -5.610   7.387 -30.584  1.00  0.00     0.024 A 
HETATM   27  C   UNL     1      -6.838   7.941 -30.936  1.00  0.00     0.034 A 
HETATM   28 CL   UNL     1      -7.472   9.262 -30.035  1.00  0.00    -0.084 Cl
HETATM   29  C   UNL     1      -7.556   7.432 -32.016  1.00  0.00     0.024 A 
HETATM   30  C   UNL     1      -7.045   6.358 -32.748  1.00  0.00     0.011 A 
ENDBRANCH   9  24
TORSDOF 4
ENDMDL
