MODEL 1
REMARK VINA RESULT:      -9.4      0.000      0.000
REMARK  7 active torsions:
REMARK  status: ('A' for Active; 'I' for Inactive)
REMARK    1  A    between atoms: C_2  and  C_3 
REMARK    2  A    between atoms: C_3  and  C_4 
REMARK       I    between atoms: C_4  and  N_5 
REMARK    3  A    between atoms: N_8  and  C_9 
REMARK    4  A    between atoms: C_12  and  N_13 
REMARK    5  A    between atoms: N_13  and  C_14 
REMARK    6  A    between atoms: C_14  and  N_15 
REMARK       I    between atoms: N_15  and  C_16 
REMARK    7  A    between atoms: C_16  and  C_17 
ROOT
HETATM    1  N   UNL     1      -5.195   4.287 -34.311  1.00  0.00    -0.333 N 
HETATM    2  H   UNL     1      -5.184   4.616 -35.277  1.00  0.00     0.168 HD
ENDROOT
BRANCH   1   3
HETATM    3  C   UNL     1      -4.264   4.906 -33.447  1.00  0.00     0.034 C 
HETATM    4  C   UNL     1      -3.036   4.345 -33.117  1.00  0.00     0.032 C 
HETATM    5  C   UNL     1      -2.251   4.895 -32.101  1.00  0.00     0.031 C 
HETATM    6  C   UNL     1      -2.657   6.030 -31.390  1.00  0.00     0.030 C 
HETATM    7  C   UNL     1      -3.814   6.677 -31.846  1.00  0.00     0.031 C 
HETATM    8  C   UNL     1      -4.605   6.131 -32.872  1.00  0.00     0.032 C 
BRANCH   6   9
HETATM    9  N   UNL     1      -2.032   6.440 -30.214  1.00  0.00    -0.378 N 
HETATM   10  C   UNL     1      -2.728   7.407 -29.346  1.00  0.00     0.143 C 
HETATM   11  C   UNL     1      -2.154   7.351 -27.911  1.00  0.00     0.145 C 
HETATM   12  N   UNL     1      -0.683   7.368 -27.845  1.00  0.00    -0.349 N 
HETATM   13  C   UNL     1      -0.098   7.717 -26.626  1.00  0.00     0.219 C 
HETATM   14  C   UNL     1      -0.005   6.502 -28.817  1.00  0.00     0.145 C 
HETATM   15  O   UNL     1      -0.750   8.203 -25.704  1.00  0.00    -0.273 OA
HETATM   16  C   UNL     1      -0.572   6.632 -30.235  1.00  0.00     0.143 C 
BRANCH  13  17
HETATM   17  C   UNL     1       1.404   7.480 -26.508  1.00  0.00     0.103 C 
BRANCH  17  18
HETATM   18  C   UNL     1       2.188   8.742 -26.158  1.00  0.00     0.005 C 
HETATM   19  C   UNL     1       2.595   8.744 -24.692  1.00  0.00     0.005 C 
ENDBRANCH  17  18
ENDBRANCH  13  17
ENDBRANCH   6   9
ENDBRANCH   1   3
BRANCH   1  20
HETATM   20  C   UNL     1      -6.311   3.546 -33.982  1.00  0.00     0.179 C 
HETATM   21  S   UNL     1      -7.870   4.056 -33.629  1.00  0.00    -0.040 SA
BRANCH  20  22
HETATM   22  N   UNL     1      -6.152   2.175 -33.992  1.00  0.00    -0.299 N 
HETATM   23  C   UNL     1      -5.485   1.323 -33.122  1.00  0.00     0.266 C 
HETATM   24  O   UNL     1      -4.956   1.746 -32.094  1.00  0.00    -0.267 OA
HETATM   25  H   UNL     1      -6.549   1.761 -34.825  1.00  0.00     0.171 HD
BRANCH  23  26
HETATM   26  C   UNL     1      -5.491  -0.079 -33.527  1.00  0.00     0.096 A 
HETATM   27  S   UNL     1      -4.056  -0.991 -33.324  1.00  0.00    -0.082 SA
HETATM   28  C   UNL     1      -4.778  -2.439 -33.906  1.00  0.00     0.017 A 
HETATM   29  C   UNL     1      -6.103  -2.229 -34.292  1.00  0.00     0.004 A 
HETATM   30  C   UNL     1      -4.170  -3.705 -34.011  1.00  0.00     0.020 A 
HETATM   31  C   UNL     1      -6.492  -0.859 -34.078  1.00  0.00     0.068 A 
HETATM   32  C   UNL     1      -6.826  -3.338 -34.808  1.00  0.00     0.014 A 
HETATM   33 CL   UNL     1      -8.072  -0.314 -34.500  1.00  0.00    -0.082 Cl
HETATM   34  C   UNL     1      -6.227  -4.595 -34.913  1.00  0.00     0.001 A 
HETATM   35  C   UNL     1      -4.911  -4.776 -34.516  1.00  0.00     0.001 A 
ENDBRANCH  23  26
ENDBRANCH  20  22
ENDBRANCH   1  20
TORSDOF 7
ENDMDL
MODEL 2
REMARK VINA RESULT:      -9.4      1.114      1.421
REMARK  7 active torsions:
REMARK  status: ('A' for Active; 'I' for Inactive)
REMARK    1  A    between atoms: C_2  and  C_3 
REMARK    2  A    between atoms: C_3  and  C_4 
REMARK       I    between atoms: C_4  and  N_5 
REMARK    3  A    between atoms: N_8  and  C_9 
REMARK    4  A    between atoms: C_12  and  N_13 
REMARK    5  A    between atoms: N_13  and  C_14 
REMARK    6  A    between atoms: C_14  and  N_15 
REMARK       I    between atoms: N_15  and  C_16 
REMARK    7  A    between atoms: C_16  and  C_17 
ROOT
HETATM    1  N   UNL     1      -5.264   4.261 -34.318  1.00  0.00    -0.333 N 
HETATM    2  H   UNL     1      -5.260   4.597 -35.282  1.00  0.00     0.168 HD
ENDROOT
BRANCH   1   3
HETATM    3  C   UNL     1      -4.320   4.868 -33.459  1.00  0.00     0.034 C 
HETATM    4  C   UNL     1      -3.112   4.276 -33.110  1.00  0.00     0.032 C 
HETATM    5  C   UNL     1      -2.316   4.822 -32.099  1.00  0.00     0.031 C 
HETATM    6  C   UNL     1      -2.692   5.982 -31.413  1.00  0.00     0.030 C 
HETATM    7  C   UNL     1      -3.826   6.655 -31.889  1.00  0.00     0.031 C 
HETATM    8  C   UNL     1      -4.626   6.114 -32.910  1.00  0.00     0.032 C 
BRANCH   6   9
HETATM    9  N   UNL     1      -2.062   6.395 -30.241  1.00  0.00    -0.378 N 
HETATM   10  C   UNL     1      -2.756   7.364 -29.371  1.00  0.00     0.143 C 
HETATM   11  C   UNL     1      -2.175   7.312 -27.939  1.00  0.00     0.145 C 
HETATM   12  N   UNL     1      -0.704   7.331 -27.880  1.00  0.00    -0.349 N 
HETATM   13  C   UNL     1      -0.114   7.683 -26.664  1.00  0.00     0.219 C 
HETATM   14  C   UNL     1      -0.029   6.463 -28.853  1.00  0.00     0.145 C 
HETATM   15  O   UNL     1      -0.763   8.170 -25.740  1.00  0.00    -0.273 OA
HETATM   16  C   UNL     1      -0.603   6.589 -30.268  1.00  0.00     0.143 C 
BRANCH  13  17
HETATM   17  C   UNL     1       1.389   7.447 -26.551  1.00  0.00     0.103 C 
BRANCH  17  18
HETATM   18  C   UNL     1       2.177   8.718 -26.242  1.00  0.00     0.005 C 
HETATM   19  C   UNL     1       2.591   8.760 -24.778  1.00  0.00     0.005 C 
ENDBRANCH  17  18
ENDBRANCH  13  17
ENDBRANCH   6   9
ENDBRANCH   1   3
BRANCH   1  20
HETATM   20  C   UNL     1      -6.380   3.525 -33.982  1.00  0.00     0.179 C 
HETATM   21  S   UNL     1      -7.947   4.036 -33.669  1.00  0.00    -0.040 SA
BRANCH  20  22
HETATM   22  N   UNL     1      -6.214   2.155 -33.946  1.00  0.00    -0.299 N 
HETATM   23  C   UNL     1      -5.599   1.330 -33.013  1.00  0.00     0.266 C 
HETATM   24  O   UNL     1      -5.139   1.784 -31.965  1.00  0.00    -0.267 OA
HETATM   25  H   UNL     1      -6.555   1.716 -34.791  1.00  0.00     0.171 HD
BRANCH  23  26
HETATM   26  C   UNL     1      -5.572  -0.081 -33.381  1.00  0.00     0.096 A 
HETATM   27  S   UNL     1      -7.000  -0.787 -34.008  1.00  0.00    -0.082 SA
HETATM   28  C   UNL     1      -6.253  -2.315 -34.255  1.00  0.00     0.017 A 
HETATM   29  C   UNL     1      -4.924  -2.309 -33.829  1.00  0.00     0.004 A 
HETATM   30  C   UNL     1      -6.847  -3.468 -34.806  1.00  0.00     0.020 A 
HETATM   31  C   UNL     1      -4.553  -1.015 -33.316  1.00  0.00     0.068 A 
HETATM   32  C   UNL     1      -4.180  -3.512 -33.960  1.00  0.00     0.014 A 
HETATM   33 CL   UNL     1      -2.971  -0.734 -32.691  1.00  0.00    -0.082 Cl
HETATM   34  C   UNL     1      -4.765  -4.657 -34.506  1.00  0.00     0.001 A 
HETATM   35  C   UNL     1      -6.085  -4.633 -34.927  1.00  0.00     0.001 A 
ENDBRANCH  23  26
ENDBRANCH  20  22
ENDBRANCH   1  20
TORSDOF 7
ENDMDL
MODEL 3
REMARK VINA RESULT:      -9.0      4.714     11.840
REMARK  7 active torsions:
REMARK  status: ('A' for Active; 'I' for Inactive)
REMARK    1  A    between atoms: C_2  and  C_3 
REMARK    2  A    between atoms: C_3  and  C_4 
REMARK       I    between atoms: C_4  and  N_5 
REMARK    3  A    between atoms: N_8  and  C_9 
REMARK    4  A    between atoms: C_12  and  N_13 
REMARK    5  A    between atoms: N_13  and  C_14 
REMARK    6  A    between atoms: C_14  and  N_15 
REMARK       I    between atoms: N_15  and  C_16 
REMARK    7  A    between atoms: C_16  and  C_17 
ROOT
HETATM    1  N   UNL     1      -3.257   2.959 -31.200  1.00  0.00    -0.333 N 
HETATM    2  H   UNL     1      -2.889   2.658 -30.297  1.00  0.00     0.168 HD
ENDROOT
BRANCH   1   3
HETATM    3  C   UNL     1      -4.529   2.445 -31.540  1.00  0.00     0.034 C 
HETATM    4  C   UNL     1      -4.737   1.540 -32.574  1.00  0.00     0.032 C 
HETATM    5  C   UNL     1      -6.032   1.228 -32.999  1.00  0.00     0.031 C 
HETATM    6  C   UNL     1      -7.160   1.797 -32.399  1.00  0.00     0.030 C 
HETATM    7  C   UNL     1      -6.938   2.576 -31.254  1.00  0.00     0.031 C 
HETATM    8  C   UNL     1      -5.639   2.887 -30.818  1.00  0.00     0.032 C 
BRANCH   6   9
HETATM    9  N   UNL     1      -8.431   1.712 -32.963  1.00  0.00    -0.378 N 
HETATM   10  C   UNL     1      -8.962   2.883 -33.685  1.00  0.00     0.143 C 
HETATM   11  C   UNL     1     -10.102   2.455 -34.639  1.00  0.00     0.145 C 
HETATM   12  N   UNL     1     -11.103   1.567 -34.027  1.00  0.00    -0.349 N 
HETATM   13  C   UNL     1     -12.340   1.457 -34.665  1.00  0.00     0.219 C 
HETATM   14  C   UNL     1     -10.555   0.489 -33.194  1.00  0.00     0.145 C 
HETATM   15  O   UNL     1     -12.680   2.220 -35.568  1.00  0.00    -0.273 OA
HETATM   16  C   UNL     1      -9.468   0.970 -32.227  1.00  0.00     0.143 C 
BRANCH  13  17
HETATM   17  C   UNL     1     -13.260   0.347 -34.166  1.00  0.00     0.103 C 
BRANCH  17  18
HETATM   18  C   UNL     1     -14.740   0.711 -34.240  1.00  0.00     0.005 C 
HETATM   19  C   UNL     1     -15.139   1.615 -33.082  1.00  0.00     0.005 C 
ENDBRANCH  17  18
ENDBRANCH  13  17
ENDBRANCH   6   9
ENDBRANCH   1   3
BRANCH   1  20
HETATM   20  C   UNL     1      -2.593   4.035 -31.749  1.00  0.00     0.179 C 
HETATM   21  S   UNL     1      -2.348   4.436 -33.360  1.00  0.00    -0.040 SA
BRANCH  20  22
HETATM   22  N   UNL     1      -2.094   4.959 -30.854  1.00  0.00    -0.299 N 
HETATM   23  C   UNL     1      -2.496   6.254 -30.552  1.00  0.00     0.266 C 
HETATM   24  O   UNL     1      -3.498   6.748 -31.070  1.00  0.00    -0.267 OA
HETATM   25  H   UNL     1      -1.252   4.625 -30.403  1.00  0.00     0.171 HD
BRANCH  23  26
HETATM   26  C   UNL     1      -1.650   6.938 -29.581  1.00  0.00     0.096 A 
HETATM   27  S   UNL     1      -2.356   7.458 -28.110  1.00  0.00    -0.082 SA
HETATM   28  C   UNL     1      -0.869   8.064 -27.497  1.00  0.00     0.017 A 
HETATM   29  C   UNL     1       0.166   7.907 -28.420  1.00  0.00     0.004 A 
HETATM   30  C   UNL     1      -0.651   8.658 -26.238  1.00  0.00     0.020 A 
HETATM   31  C   UNL     1      -0.307   7.267 -29.621  1.00  0.00     0.068 A 
HETATM   32  C   UNL     1       1.457   8.375 -28.055  1.00  0.00     0.014 A 
HETATM   33 CL   UNL     1       0.758   6.977 -30.945  1.00  0.00    -0.082 Cl
HETATM   34  C   UNL     1       1.677   8.964 -26.808  1.00  0.00     0.001 A 
HETATM   35  C   UNL     1       0.631   9.101 -25.908  1.00  0.00     0.001 A 
ENDBRANCH  23  26
ENDBRANCH  20  22
ENDBRANCH   1  20
TORSDOF 7
ENDMDL
MODEL 4
REMARK VINA RESULT:      -9.0      2.378      4.208
REMARK  7 active torsions:
REMARK  status: ('A' for Active; 'I' for Inactive)
REMARK    1  A    between atoms: C_2  and  C_3 
REMARK    2  A    between atoms: C_3  and  C_4 
REMARK       I    between atoms: C_4  and  N_5 
REMARK    3  A    between atoms: N_8  and  C_9 
REMARK    4  A    between atoms: C_12  and  N_13 
REMARK    5  A    between atoms: N_13  and  C_14 
REMARK    6  A    between atoms: C_14  and  N_15 
REMARK       I    between atoms: N_15  and  C_16 
REMARK    7  A    between atoms: C_16  and  C_17 
ROOT
HETATM    1  N   UNL     1      -1.360   5.203 -31.702  1.00  0.00    -0.333 N 
HETATM    2  H   UNL     1      -0.764   4.380 -31.793  1.00  0.00     0.168 HD
ENDROOT
BRANCH   1   3
HETATM    3  C   UNL     1      -0.959   6.139 -30.722  1.00  0.00     0.034 C 
HETATM    4  C   UNL     1       0.347   6.598 -30.592  1.00  0.00     0.032 C 
HETATM    5  C   UNL     1       0.728   7.356 -29.482  1.00  0.00     0.031 C 
HETATM    6  C   UNL     1      -0.181   7.694 -28.473  1.00  0.00     0.030 C 
HETATM    7  C   UNL     1      -1.525   7.365 -28.703  1.00  0.00     0.031 C 
HETATM    8  C   UNL     1      -1.915   6.608 -29.821  1.00  0.00     0.032 C 
BRANCH   6   9
HETATM    9  N   UNL     1       0.223   8.214 -27.246  1.00  0.00    -0.378 N 
HETATM   10  C   UNL     1      -0.603   9.263 -26.619  1.00  0.00     0.143 C 
HETATM   11  C   UNL     1      -0.307   9.345 -25.103  1.00  0.00     0.145 C 
HETATM   12  N   UNL     1       1.126   9.365 -24.766  1.00  0.00    -0.349 N 
HETATM   13  C   UNL     1       1.481   9.829 -23.497  1.00  0.00     0.219 C 
HETATM   14  C   UNL     1       1.955   8.407 -25.507  1.00  0.00     0.145 C 
HETATM   15  O   UNL     1       0.679  10.404 -22.764  1.00  0.00    -0.273 OA
HETATM   16  C   UNL     1       1.664   8.399 -27.011  1.00  0.00     0.143 C 
BRANCH  13  17
HETATM   17  C   UNL     1       2.930   9.600 -23.077  1.00  0.00     0.103 C 
BRANCH  17  18
HETATM   18  C   UNL     1       3.096   8.450 -22.087  1.00  0.00     0.005 C 
HETATM   19  C   UNL     1       4.468   8.487 -21.431  1.00  0.00     0.005 C 
ENDBRANCH  17  18
ENDBRANCH  13  17
ENDBRANCH   6   9
ENDBRANCH   1   3
BRANCH   1  20
HETATM   20  C   UNL     1      -2.237   5.381 -32.751  1.00  0.00     0.179 C 
HETATM   21  S   UNL     1      -2.327   6.624 -33.874  1.00  0.00    -0.040 SA
BRANCH  20  22
HETATM   22  N   UNL     1      -3.151   4.367 -32.955  1.00  0.00    -0.299 N 
HETATM   23  C   UNL     1      -4.063   3.768 -32.096  1.00  0.00     0.266 C 
HETATM   24  O   UNL     1      -4.213   4.170 -30.942  1.00  0.00    -0.267 OA
HETATM   25  H   UNL     1      -3.070   3.973 -33.883  1.00  0.00     0.171 HD
BRANCH  23  26
HETATM   26  C   UNL     1      -4.812   2.663 -32.685  1.00  0.00     0.096 A 
HETATM   27  S   UNL     1      -6.086   3.030 -33.769  1.00  0.00    -0.082 SA
HETATM   28  C   UNL     1      -6.428   1.375 -34.081  1.00  0.00     0.017 A 
HETATM   29  C   UNL     1      -5.600   0.533 -33.336  1.00  0.00     0.004 A 
HETATM   30  C   UNL     1      -7.405   0.864 -34.957  1.00  0.00     0.020 A 
HETATM   31  C   UNL     1      -4.683   1.295 -32.528  1.00  0.00     0.068 A 
HETATM   32  C   UNL     1      -5.777  -0.869 -33.482  1.00  0.00     0.014 A 
HETATM   33 CL   UNL     1      -3.563   0.505 -31.483  1.00  0.00    -0.082 Cl
HETATM   34  C   UNL     1      -6.744  -1.380 -34.351  1.00  0.00     0.001 A 
HETATM   35  C   UNL     1      -7.549  -0.520 -35.083  1.00  0.00     0.001 A 
ENDBRANCH  23  26
ENDBRANCH  20  22
ENDBRANCH   1  20
TORSDOF 7
ENDMDL
MODEL 5
REMARK VINA RESULT:      -8.9      2.191      2.981
REMARK  7 active torsions:
REMARK  status: ('A' for Active; 'I' for Inactive)
REMARK    1  A    between atoms: C_2  and  C_3 
REMARK    2  A    between atoms: C_3  and  C_4 
REMARK       I    between atoms: C_4  and  N_5 
REMARK    3  A    between atoms: N_8  and  C_9 
REMARK    4  A    between atoms: C_12  and  N_13 
REMARK    5  A    between atoms: N_13  and  C_14 
REMARK    6  A    between atoms: C_14  and  N_15 
REMARK       I    between atoms: N_15  and  C_16 
REMARK    7  A    between atoms: C_16  and  C_17 
ROOT
HETATM    1  N   UNL     1      -8.604   4.907 -33.879  1.00  0.00    -0.333 N 
HETATM    2  H   UNL     1      -9.198   5.643 -34.262  1.00  0.00     0.168 HD
ENDROOT
BRANCH   1   3
HETATM    3  C   UNL     1      -7.290   5.303 -33.538  1.00  0.00     0.034 C 
HETATM    4  C   UNL     1      -6.154   4.794 -34.156  1.00  0.00     0.032 C 
HETATM    5  C   UNL     1      -4.882   5.061 -33.639  1.00  0.00     0.031 C 
HETATM    6  C   UNL     1      -4.702   5.854 -32.500  1.00  0.00     0.030 C 
HETATM    7  C   UNL     1      -5.843   6.490 -31.991  1.00  0.00     0.031 C 
HETATM    8  C   UNL     1      -7.123   6.231 -32.509  1.00  0.00     0.032 C 
BRANCH   6   9
HETATM    9  N   UNL     1      -3.489   5.919 -31.819  1.00  0.00    -0.378 N 
HETATM   10  C   UNL     1      -2.847   4.659 -31.399  1.00  0.00     0.143 C 
HETATM   11  C   UNL     1      -1.340   4.885 -31.135  1.00  0.00     0.145 C 
HETATM   12  N   UNL     1      -1.040   6.068 -30.311  1.00  0.00    -0.349 N 
HETATM   13  C   UNL     1       0.216   6.125 -29.703  1.00  0.00     0.219 C 
HETATM   14  C   UNL     1      -1.796   7.278 -30.657  1.00  0.00     0.145 C 
HETATM   15  O   UNL     1       0.966   5.152 -29.660  1.00  0.00    -0.273 OA
HETATM   16  C   UNL     1      -3.292   7.014 -30.855  1.00  0.00     0.143 C 
BRANCH  13  17
HETATM   17  C   UNL     1       0.600   7.461 -29.075  1.00  0.00     0.103 C 
BRANCH  17  18
HETATM   18  C   UNL     1       0.940   7.354 -27.590  1.00  0.00     0.005 C 
HETATM   19  C   UNL     1       1.745   8.558 -27.125  1.00  0.00     0.005 C 
ENDBRANCH  17  18
ENDBRANCH  13  17
ENDBRANCH   6   9
ENDBRANCH   1   3
BRANCH   1  20
HETATM   20  C   UNL     1      -9.289   3.777 -33.485  1.00  0.00     0.179 C 
HETATM   21  S   UNL     1     -10.897   3.598 -33.041  1.00  0.00    -0.040 SA
BRANCH  20  22
HETATM   22  N   UNL     1      -8.572   2.597 -33.504  1.00  0.00    -0.299 N 
HETATM   23  C   UNL     1      -7.830   1.959 -32.518  1.00  0.00     0.266 C 
HETATM   24  O   UNL     1      -7.781   2.400 -31.370  1.00  0.00    -0.267 OA
HETATM   25  H   UNL     1      -8.554   2.187 -34.428  1.00  0.00     0.171 HD
BRANCH  23  26
HETATM   26  C   UNL     1      -7.154   0.745 -32.963  1.00  0.00     0.096 A 
HETATM   27  S   UNL     1      -8.101  -0.518 -33.624  1.00  0.00    -0.082 SA
HETATM   28  C   UNL     1      -6.732  -1.503 -33.957  1.00  0.00     0.017 A 
HETATM   29  C   UNL     1      -5.550  -0.893 -33.534  1.00  0.00     0.004 A 
HETATM   30  C   UNL     1      -6.731  -2.772 -34.568  1.00  0.00     0.020 A 
HETATM   31  C   UNL     1      -5.815   0.398 -32.952  1.00  0.00     0.068 A 
HETATM   32  C   UNL     1      -4.333  -1.598 -33.733  1.00  0.00     0.014 A 
HETATM   33 CL   UNL     1      -4.533   1.359 -32.317  1.00  0.00    -0.082 Cl
HETATM   34  C   UNL     1      -4.327  -2.856 -34.340  1.00  0.00     0.001 A 
HETATM   35  C   UNL     1      -5.516  -3.435 -34.755  1.00  0.00     0.001 A 
ENDBRANCH  23  26
ENDBRANCH  20  22
ENDBRANCH   1  20
TORSDOF 7
ENDMDL
MODEL 6
REMARK VINA RESULT:      -8.7      4.779      9.212
REMARK  7 active torsions:
REMARK  status: ('A' for Active; 'I' for Inactive)
REMARK    1  A    between atoms: C_2  and  C_3 
REMARK    2  A    between atoms: C_3  and  C_4 
REMARK       I    between atoms: C_4  and  N_5 
REMARK    3  A    between atoms: N_8  and  C_9 
REMARK    4  A    between atoms: C_12  and  N_13 
REMARK    5  A    between atoms: N_13  and  C_14 
REMARK    6  A    between atoms: C_14  and  N_15 
REMARK       I    between atoms: N_15  and  C_16 
REMARK    7  A    between atoms: C_16  and  C_17 
ROOT
HETATM    1  N   UNL     1      -4.617   5.357 -32.479  1.00  0.00    -0.333 N 
HETATM    2  H   UNL     1      -4.242   6.237 -32.836  1.00  0.00     0.168 HD
ENDROOT
BRANCH   1   3
HETATM    3  C   UNL     1      -6.027   5.250 -32.483  1.00  0.00     0.034 C 
HETATM    4  C   UNL     1      -6.789   5.152 -31.325  1.00  0.00     0.032 C 
HETATM    5  C   UNL     1      -8.150   4.839 -31.392  1.00  0.00     0.031 C 
HETATM    6  C   UNL     1      -8.797   4.628 -32.615  1.00  0.00     0.030 C 
HETATM    7  C   UNL     1      -8.053   4.893 -33.774  1.00  0.00     0.031 C 
HETATM    8  C   UNL     1      -6.686   5.214 -33.712  1.00  0.00     0.032 C 
BRANCH   6   9
HETATM    9  N   UNL     1     -10.068   4.065 -32.701  1.00  0.00    -0.378 N 
HETATM   10  C   UNL     1     -10.444   3.360 -33.941  1.00  0.00     0.143 C 
HETATM   11  C   UNL     1     -11.629   2.403 -33.676  1.00  0.00     0.145 C 
HETATM   12  N   UNL     1     -12.737   3.004 -32.915  1.00  0.00    -0.349 N 
HETATM   13  C   UNL     1     -13.977   2.367 -32.974  1.00  0.00     0.219 C 
HETATM   14  C   UNL     1     -12.331   3.820 -31.764  1.00  0.00     0.145 C 
HETATM   15  O   UNL     1     -14.217   1.475 -33.786  1.00  0.00    -0.273 OA
HETATM   16  C   UNL     1     -11.192   4.792 -32.088  1.00  0.00     0.143 C 
BRANCH  13  17
HETATM   17  C   UNL     1     -15.031   2.852 -31.983  1.00  0.00     0.103 C 
BRANCH  17  18
HETATM   18  C   UNL     1     -16.427   2.305 -32.272  1.00  0.00     0.005 C 
HETATM   19  C   UNL     1     -17.495   3.346 -31.970  1.00  0.00     0.005 C 
ENDBRANCH  17  18
ENDBRANCH  13  17
ENDBRANCH   6   9
ENDBRANCH   1   3
BRANCH   1  20
HETATM   20  C   UNL     1      -3.681   4.351 -32.366  1.00  0.00     0.179 C 
HETATM   21  S   UNL     1      -2.083   4.425 -31.861  1.00  0.00    -0.040 SA
BRANCH  20  22
HETATM   22  N   UNL     1      -4.125   3.076 -32.656  1.00  0.00    -0.299 N 
HETATM   23  C   UNL     1      -4.479   2.018 -31.829  1.00  0.00     0.266 C 
HETATM   24  O   UNL     1      -4.495   2.142 -30.604  1.00  0.00    -0.267 OA
HETATM   25  H   UNL     1      -4.118   2.897 -33.651  1.00  0.00     0.171 HD
BRANCH  23  26
HETATM   26  C   UNL     1      -4.833   0.792 -32.536  1.00  0.00     0.096 A 
HETATM   27  S   UNL     1      -3.598  -0.349 -32.857  1.00  0.00    -0.082 SA
HETATM   28  C   UNL     1      -4.683  -1.463 -33.590  1.00  0.00     0.017 A 
HETATM   29  C   UNL     1      -5.984  -0.959 -33.628  1.00  0.00     0.004 A 
HETATM   30  C   UNL     1      -4.368  -2.733 -34.112  1.00  0.00     0.020 A 
HETATM   31  C   UNL     1      -6.048   0.348 -33.026  1.00  0.00     0.068 A 
HETATM   32  C   UNL     1      -6.991  -1.767 -34.220  1.00  0.00     0.014 A 
HETATM   33 CL   UNL     1      -7.535   1.219 -32.966  1.00  0.00    -0.082 Cl
HETATM   34  C   UNL     1      -6.683  -3.028 -34.738  1.00  0.00     0.001 A 
HETATM   35  C   UNL     1      -5.383  -3.506 -34.681  1.00  0.00     0.001 A 
ENDBRANCH  23  26
ENDBRANCH  20  22
ENDBRANCH   1  20
TORSDOF 7
ENDMDL
MODEL 7
REMARK VINA RESULT:      -8.5      4.560      9.110
REMARK  7 active torsions:
REMARK  status: ('A' for Active; 'I' for Inactive)
REMARK    1  A    between atoms: C_2  and  C_3 
REMARK    2  A    between atoms: C_3  and  C_4 
REMARK       I    between atoms: C_4  and  N_5 
REMARK    3  A    between atoms: N_8  and  C_9 
REMARK    4  A    between atoms: C_12  and  N_13 
REMARK    5  A    between atoms: N_13  and  C_14 
REMARK    6  A    between atoms: C_14  and  N_15 
REMARK       I    between atoms: N_15  and  C_16 
REMARK    7  A    between atoms: C_16  and  C_17 
ROOT
HETATM    1  N   UNL     1      -4.573   5.014 -31.642  1.00  0.00    -0.333 N 
HETATM    2  H   UNL     1      -4.169   5.870 -31.258  1.00  0.00     0.168 HD
ENDROOT
BRANCH   1   3
HETATM    3  C   UNL     1      -5.985   4.984 -31.702  1.00  0.00     0.034 C 
HETATM    4  C   UNL     1      -6.789   4.642 -30.621  1.00  0.00     0.032 C 
HETATM    5  C   UNL     1      -8.159   4.424 -30.792  1.00  0.00     0.031 C 
HETATM    6  C   UNL     1      -8.774   4.553 -32.043  1.00  0.00     0.030 C 
HETATM    7  C   UNL     1      -7.981   5.058 -33.084  1.00  0.00     0.031 C 
HETATM    8  C   UNL     1      -6.605   5.284 -32.915  1.00  0.00     0.032 C 
BRANCH   6   9
HETATM    9  N   UNL     1     -10.065   4.093 -32.292  1.00  0.00    -0.378 N 
HETATM   10  C   UNL     1     -11.104   4.320 -31.270  1.00  0.00     0.143 C 
HETATM   11  C   UNL     1     -12.511   4.215 -31.902  1.00  0.00     0.145 C 
HETATM   12  N   UNL     1     -12.702   3.038 -32.766  1.00  0.00    -0.349 N 
HETATM   13  C   UNL     1     -14.014   2.653 -33.047  1.00  0.00     0.219 C 
HETATM   14  C   UNL     1     -11.590   2.747 -33.679  1.00  0.00     0.145 C 
HETATM   15  O   UNL     1     -14.977   3.120 -32.441  1.00  0.00    -0.273 OA
HETATM   16  C   UNL     1     -10.220   2.810 -32.996  1.00  0.00     0.143 C 
BRANCH  13  17
HETATM   17  C   UNL     1     -14.189   1.603 -34.140  1.00  0.00     0.103 C 
BRANCH  17  18
HETATM   18  C   UNL     1     -14.411   0.195 -33.593  1.00  0.00     0.005 C 
HETATM   19  C   UNL     1     -13.131  -0.624 -33.654  1.00  0.00     0.005 C 
ENDBRANCH  17  18
ENDBRANCH  13  17
ENDBRANCH   6   9
ENDBRANCH   1   3
BRANCH   1  20
HETATM   20  C   UNL     1      -3.668   4.211 -32.303  1.00  0.00     0.179 C 
HETATM   21  S   UNL     1      -2.095   4.538 -32.785  1.00  0.00    -0.040 SA
BRANCH  20  22
HETATM   22  N   UNL     1      -4.085   2.922 -32.569  1.00  0.00    -0.299 N 
HETATM   23  C   UNL     1      -4.427   1.876 -31.722  1.00  0.00     0.266 C 
HETATM   24  O   UNL     1      -4.458   2.027 -30.500  1.00  0.00    -0.267 OA
HETATM   25  H   UNL     1      -4.065   2.721 -33.560  1.00  0.00     0.171 HD
BRANCH  23  26
HETATM   26  C   UNL     1      -4.752   0.628 -32.405  1.00  0.00     0.096 A 
HETATM   27  S   UNL     1      -6.278   0.492 -33.168  1.00  0.00    -0.082 SA
HETATM   28  C   UNL     1      -5.948  -1.086 -33.765  1.00  0.00     0.017 A 
HETATM   29  C   UNL     1      -4.690  -1.533 -33.358  1.00  0.00     0.004 A 
HETATM   30  C   UNL     1      -6.793  -1.883 -34.562  1.00  0.00     0.020 A 
HETATM   31  C   UNL     1      -4.021  -0.535 -32.564  1.00  0.00     0.068 A 
HETATM   32  C   UNL     1      -4.283  -2.831 -33.767  1.00  0.00     0.014 A 
HETATM   33 CL   UNL     1      -2.458  -0.837 -31.902  1.00  0.00    -0.082 Cl
HETATM   34  C   UNL     1      -5.118  -3.625 -34.559  1.00  0.00     0.001 A 
HETATM   35  C   UNL     1      -6.360  -3.152 -34.953  1.00  0.00     0.001 A 
ENDBRANCH  23  26
ENDBRANCH  20  22
ENDBRANCH   1  20
TORSDOF 7
ENDMDL
MODEL 8
REMARK VINA RESULT:      -8.5      4.616     11.878
REMARK  7 active torsions:
REMARK  status: ('A' for Active; 'I' for Inactive)
REMARK    1  A    between atoms: C_2  and  C_3 
REMARK    2  A    between atoms: C_3  and  C_4 
REMARK       I    between atoms: C_4  and  N_5 
REMARK    3  A    between atoms: N_8  and  C_9 
REMARK    4  A    between atoms: C_12  and  N_13 
REMARK    5  A    between atoms: N_13  and  C_14 
REMARK    6  A    between atoms: C_14  and  N_15 
REMARK       I    between atoms: N_15  and  C_16 
REMARK    7  A    between atoms: C_16  and  C_17 
ROOT
HETATM    1  N   UNL     1      -2.962   3.607 -31.317  1.00  0.00    -0.333 N 
HETATM    2  H   UNL     1      -2.827   3.235 -30.376  1.00  0.00     0.168 HD
ENDROOT
BRANCH   1   3
HETATM    3  C   UNL     1      -4.172   3.241 -31.947  1.00  0.00     0.034 C 
HETATM    4  C   UNL     1      -5.199   4.140 -32.212  1.00  0.00     0.032 C 
HETATM    5  C   UNL     1      -6.449   3.687 -32.643  1.00  0.00     0.031 C 
HETATM    6  C   UNL     1      -6.713   2.326 -32.837  1.00  0.00     0.030 C 
HETATM    7  C   UNL     1      -5.621   1.453 -32.725  1.00  0.00     0.031 C 
HETATM    8  C   UNL     1      -4.360   1.904 -32.298  1.00  0.00     0.032 C 
BRANCH   6   9
HETATM    9  N   UNL     1      -8.003   1.831 -33.007  1.00  0.00    -0.378 N 
HETATM   10  C   UNL     1      -8.216   0.374 -32.922  1.00  0.00     0.143 C 
HETATM   11  C   UNL     1      -9.704   0.065 -32.631  1.00  0.00     0.145 C 
HETATM   12  N   UNL     1     -10.654   0.808 -33.476  1.00  0.00    -0.349 N 
HETATM   13  C   UNL     1     -11.957   0.314 -33.563  1.00  0.00     0.219 C 
HETATM   14  C   UNL     1     -10.343   2.230 -33.664  1.00  0.00     0.145 C 
HETATM   15  O   UNL     1     -12.264  -0.800 -33.144  1.00  0.00    -0.273 OA
HETATM   16  C   UNL     1      -8.870   2.482 -34.004  1.00  0.00     0.143 C 
BRANCH  13  17
HETATM   17  C   UNL     1     -12.981   1.230 -34.226  1.00  0.00     0.103 C 
BRANCH  17  18
HETATM   18  C   UNL     1     -14.425   0.865 -33.889  1.00  0.00     0.005 C 
HETATM   19  C   UNL     1     -15.000   1.814 -32.848  1.00  0.00     0.005 C 
ENDBRANCH  17  18
ENDBRANCH  13  17
ENDBRANCH   6   9
ENDBRANCH   1   3
BRANCH   1  20
HETATM   20  C   UNL     1      -2.097   4.629 -31.648  1.00  0.00     0.179 C 
HETATM   21  S   UNL     1      -1.526   5.106 -33.151  1.00  0.00    -0.040 SA
BRANCH  20  22
HETATM   22  N   UNL     1      -1.670   5.423 -30.602  1.00  0.00    -0.299 N 
HETATM   23  C   UNL     1      -2.293   6.466 -29.929  1.00  0.00     0.266 C 
HETATM   24  O   UNL     1      -3.453   6.789 -30.184  1.00  0.00    -0.267 OA
HETATM   25  H   UNL     1      -0.710   5.224 -30.351  1.00  0.00     0.171 HD
BRANCH  23  26
HETATM   26  C   UNL     1      -1.466   7.107 -28.912  1.00  0.00     0.096 A 
HETATM   27  S   UNL     1       0.202   7.319 -29.235  1.00  0.00    -0.082 SA
HETATM   28  C   UNL     1       0.487   8.130 -27.745  1.00  0.00     0.017 A 
HETATM   29  C   UNL     1      -0.676   8.211 -26.978  1.00  0.00     0.004 A 
HETATM   30  C   UNL     1       1.710   8.662 -27.292  1.00  0.00     0.020 A 
HETATM   31  C   UNL     1      -1.789   7.605 -27.663  1.00  0.00     0.068 A 
HETATM   32  C   UNL     1      -0.591   8.846 -25.710  1.00  0.00     0.014 A 
HETATM   33 CL   UNL     1      -3.347   7.538 -26.927  1.00  0.00    -0.082 Cl
HETATM   34  C   UNL     1       0.620   9.377 -25.257  1.00  0.00     0.001 A 
HETATM   35  C   UNL     1       1.758   9.286 -26.043  1.00  0.00     0.001 A 
ENDBRANCH  23  26
ENDBRANCH  20  22
ENDBRANCH   1  20
TORSDOF 7
ENDMDL
MODEL 9
REMARK VINA RESULT:      -8.5      2.758      3.875
REMARK  7 active torsions:
REMARK  status: ('A' for Active; 'I' for Inactive)
REMARK    1  A    between atoms: C_2  and  C_3 
REMARK    2  A    between atoms: C_3  and  C_4 
REMARK       I    between atoms: C_4  and  N_5 
REMARK    3  A    between atoms: N_8  and  C_9 
REMARK    4  A    between atoms: C_12  and  N_13 
REMARK    5  A    between atoms: N_13  and  C_14 
REMARK    6  A    between atoms: C_14  and  N_15 
REMARK       I    between atoms: N_15  and  C_16 
REMARK    7  A    between atoms: C_16  and  C_17 
ROOT
HETATM    1  N   UNL     1      -9.731   2.463 -31.766  1.00  0.00    -0.333 N 
HETATM    2  H   UNL     1     -10.465   2.503 -31.058  1.00  0.00     0.168 HD
ENDROOT
BRANCH   1   3
HETATM    3  C   UNL     1      -8.583   3.242 -31.495  1.00  0.00     0.034 C 
HETATM    4  C   UNL     1      -8.150   4.275 -32.317  1.00  0.00     0.032 C 
HETATM    5  C   UNL     1      -6.900   4.870 -32.116  1.00  0.00     0.031 C 
HETATM    6  C   UNL     1      -6.050   4.463 -31.082  1.00  0.00     0.030 C 
HETATM    7  C   UNL     1      -6.571   3.537 -30.167  1.00  0.00     0.031 C 
HETATM    8  C   UNL     1      -7.829   2.941 -30.361  1.00  0.00     0.032 C 
BRANCH   6   9
HETATM    9  N   UNL     1      -4.712   4.847 -31.019  1.00  0.00    -0.378 N 
HETATM   10  C   UNL     1      -3.673   3.815 -31.196  1.00  0.00     0.143 C 
HETATM   11  C   UNL     1      -2.330   4.469 -31.595  1.00  0.00     0.145 C 
HETATM   12  N   UNL     1      -1.952   5.630 -30.772  1.00  0.00    -0.349 N 
HETATM   13  C   UNL     1      -0.612   6.023 -30.793  1.00  0.00     0.219 C 
HETATM   14  C   UNL     1      -3.039   6.574 -30.489  1.00  0.00     0.145 C 
HETATM   15  O   UNL     1       0.267   5.322 -31.290  1.00  0.00    -0.273 OA
HETATM   16  C   UNL     1      -4.333   5.884 -30.045  1.00  0.00     0.143 C 
BRANCH  13  17
HETATM   17  C   UNL     1      -0.295   7.368 -30.147  1.00  0.00     0.103 C 
BRANCH  17  18
HETATM   18  C   UNL     1       0.059   7.256 -28.666  1.00  0.00     0.005 C 
HETATM   19  C   UNL     1       1.216   8.179 -28.310  1.00  0.00     0.005 C 
ENDBRANCH  17  18
ENDBRANCH  13  17
ENDBRANCH   6   9
ENDBRANCH   1   3
BRANCH   1  20
HETATM   20  C   UNL     1      -9.874   1.430 -32.668  1.00  0.00     0.179 C 
HETATM   21  S   UNL     1     -11.176   1.035 -33.648  1.00  0.00    -0.040 SA
BRANCH  20  22
HETATM   22  N   UNL     1      -8.769   0.621 -32.841  1.00  0.00    -0.299 N 
HETATM   23  C   UNL     1      -7.688   0.719 -33.709  1.00  0.00     0.266 C 
HETATM   24  O   UNL     1      -7.557   1.686 -34.459  1.00  0.00    -0.267 OA
HETATM   25  H   UNL     1      -8.821  -0.209 -32.266  1.00  0.00     0.171 HD
BRANCH  23  26
HETATM   26  C   UNL     1      -6.749  -0.395 -33.630  1.00  0.00     0.096 A 
HETATM   27  S   UNL     1      -6.901  -1.670 -34.762  1.00  0.00    -0.082 SA
HETATM   28  C   UNL     1      -5.533  -2.509 -34.148  1.00  0.00     0.017 A 
HETATM   29  C   UNL     1      -4.973  -1.844 -33.056  1.00  0.00     0.004 A 
HETATM   30  C   UNL     1      -4.994  -3.718 -34.631  1.00  0.00     0.020 A 
HETATM   31  C   UNL     1      -5.696  -0.633 -32.765  1.00  0.00     0.068 A 
HETATM   32  C   UNL     1      -3.838  -2.429 -32.434  1.00  0.00     0.014 A 
HETATM   33 CL   UNL     1      -5.237   0.372 -31.442  1.00  0.00    -0.082 Cl
HETATM   34  C   UNL     1      -3.300  -3.627 -32.911  1.00  0.00     0.001 A 
HETATM   35  C   UNL     1      -3.873  -4.263 -34.001  1.00  0.00     0.001 A 
ENDBRANCH  23  26
ENDBRANCH  20  22
ENDBRANCH   1  20
TORSDOF 7
ENDMDL
MODEL 10
REMARK VINA RESULT:      -8.3      6.332     10.497
REMARK  7 active torsions:
REMARK  status: ('A' for Active; 'I' for Inactive)
REMARK    1  A    between atoms: C_2  and  C_3 
REMARK    2  A    between atoms: C_3  and  C_4 
REMARK       I    between atoms: C_4  and  N_5 
REMARK    3  A    between atoms: N_8  and  C_9 
REMARK    4  A    between atoms: C_12  and  N_13 
REMARK    5  A    between atoms: N_13  and  C_14 
REMARK    6  A    between atoms: C_14  and  N_15 
REMARK       I    between atoms: N_15  and  C_16 
REMARK    7  A    between atoms: C_16  and  C_17 
ROOT
HETATM    1  N   UNL     1      -7.216   4.351 -33.075  1.00  0.00    -0.333 N 
HETATM    2  H   UNL     1      -7.065   5.310 -32.760  1.00  0.00     0.168 HD
ENDROOT
BRANCH   1   3
HETATM    3  C   UNL     1      -8.554   3.898 -33.024  1.00  0.00     0.034 C 
HETATM    4  C   UNL     1      -9.371   3.801 -34.144  1.00  0.00     0.032 C 
HETATM    5  C   UNL     1     -10.739   3.550 -34.008  1.00  0.00     0.031 C 
HETATM    6  C   UNL     1     -11.335   3.376 -32.754  1.00  0.00     0.030 C 
HETATM    7  C   UNL     1     -10.471   3.313 -31.652  1.00  0.00     0.031 C 
HETATM    8  C   UNL     1      -9.093   3.558 -31.783  1.00  0.00     0.032 C 
BRANCH   6   9
HETATM    9  N   UNL     1     -12.716   3.388 -32.574  1.00  0.00    -0.378 N 
HETATM   10  C   UNL     1     -13.499   2.232 -33.049  1.00  0.00     0.143 C 
HETATM   11  C   UNL     1     -14.871   2.184 -32.337  1.00  0.00     0.145 C 
HETATM   12  N   UNL     1     -15.581   3.473 -32.301  1.00  0.00    -0.349 N 
HETATM   13  C   UNL     1     -16.954   3.443 -32.048  1.00  0.00     0.219 C 
HETATM   14  C   UNL     1     -14.750   4.634 -31.964  1.00  0.00     0.145 C 
HETATM   15  O   UNL     1     -17.600   2.397 -32.069  1.00  0.00    -0.273 OA
HETATM   16  C   UNL     1     -13.425   4.668 -32.734  1.00  0.00     0.143 C 
BRANCH  13  17
HETATM   17  C   UNL     1     -17.615   4.788 -31.761  1.00  0.00     0.103 C 
BRANCH  17  18
HETATM   18  C   UNL     1     -19.038   4.657 -31.222  1.00  0.00     0.005 C 
HETATM   19  C   UNL     1     -19.097   5.018 -29.745  1.00  0.00     0.005 C 
ENDBRANCH  17  18
ENDBRANCH  13  17
ENDBRANCH   6   9
ENDBRANCH   1   3
BRANCH   1  20
HETATM   20  C   UNL     1      -6.153   3.812 -33.769  1.00  0.00     0.179 C 
HETATM   21  S   UNL     1      -4.891   4.580 -34.563  1.00  0.00    -0.040 SA
BRANCH  20  22
HETATM   22  N   UNL     1      -6.072   2.434 -33.777  1.00  0.00    -0.299 N 
HETATM   23  C   UNL     1      -5.829   1.524 -32.755  1.00  0.00     0.266 C 
HETATM   24  O   UNL     1      -5.708   1.892 -31.587  1.00  0.00    -0.267 OA
HETATM   25  H   UNL     1      -6.144   2.061 -34.714  1.00  0.00     0.171 HD
BRANCH  23  26
HETATM   26  C   UNL     1      -5.752   0.134 -33.192  1.00  0.00     0.096 A 
HETATM   27  S   UNL     1      -7.169  -0.607 -33.803  1.00  0.00    -0.082 SA
HETATM   28  C   UNL     1      -6.364  -2.086 -34.149  1.00  0.00     0.017 A 
HETATM   29  C   UNL     1      -5.022  -2.038 -33.769  1.00  0.00     0.004 A 
HETATM   30  C   UNL     1      -6.925  -3.238 -34.734  1.00  0.00     0.020 A 
HETATM   31  C   UNL     1      -4.691  -0.753 -33.208  1.00  0.00     0.068 A 
HETATM   32  C   UNL     1      -4.230  -3.198 -33.984  1.00  0.00     0.014 A 
HETATM   33 CL   UNL     1      -3.101  -0.428 -32.625  1.00  0.00    -0.082 Cl
HETATM   34  C   UNL     1      -4.782  -4.342 -34.564  1.00  0.00     0.001 A 
HETATM   35  C   UNL     1      -6.117  -4.360 -34.938  1.00  0.00     0.001 A 
ENDBRANCH  23  26
ENDBRANCH  20  22
ENDBRANCH   1  20
TORSDOF 7
ENDMDL
