MODEL 1
REMARK VINA RESULT:      -8.0      0.000      0.000
REMARK  8 active torsions:
REMARK  status: ('A' for Active; 'I' for Inactive)
REMARK    1  A    between atoms: C_2  and  O_3 
REMARK    2  A    between atoms: O_3  and  C_4 
REMARK    3  A    between atoms: C_5  and  N_6 
REMARK       I    between atoms: N_6  and  C_7 
REMARK       I    between atoms: C_7  and  N_8 
REMARK    4  A    between atoms: N_8  and  C_9 
REMARK    5  A    between atoms: C_9  and  C_10 
REMARK       I    between atoms: C_10  and  N_11 
REMARK    6  A    between atoms: N_11  and  N_12 
REMARK    7  A    between atoms: C_13  and  C_14 
REMARK    8  A    between atoms: C_17  and  N_18 
REMARK       I    between atoms: N_18  and  C_19 
ROOT
HETATM    1  C   UNL     1      -7.174   2.586 -32.694  1.00  0.00     0.255 C 
HETATM    2  N   UNL     1      -5.971   3.047 -33.203  1.00  0.00    -0.246 N 
HETATM    3  O   UNL     1      -7.598   2.819 -31.561  1.00  0.00    -0.270 OA
HETATM    4  H   UNL     1      -5.776   2.930 -34.201  1.00  0.00     0.192 HD
ENDROOT
BRANCH   1   5
HETATM    5  C   UNL     1      -8.052   1.866 -33.722  1.00  0.00     0.228 C 
BRANCH   5   6
HETATM    6  N   UNL     1      -7.371   0.892 -34.567  1.00  0.00    -0.334 N 
HETATM    7  C   UNL     1      -7.190  -0.402 -34.132  1.00  0.00     0.321 C 
HETATM    8  N   UNL     1      -6.368  -1.091 -34.996  1.00  0.00    -0.306 N 
HETATM    9  O   UNL     1      -7.787  -0.851 -33.161  1.00  0.00    -0.247 OA
HETATM   10  H   UNL     1      -6.553  -0.889 -35.967  1.00  0.00     0.171 HD
HETATM   11  H   UNL     1      -6.572   1.249 -35.072  1.00  0.00     0.164 HD
BRANCH   8  12
HETATM   12  C   UNL     1      -5.781  -2.344 -34.707  1.00  0.00     0.069 A 
HETATM   13  C   UNL     1      -4.536  -2.485 -34.058  1.00  0.00     0.095 A 
HETATM   14  C   UNL     1      -4.048  -3.772 -33.797  1.00  0.00     0.039 A 
HETATM   15  C   UNL     1      -4.757  -4.900 -34.216  1.00  0.00     0.003 A 
HETATM   16  C   UNL     1      -5.952  -4.756 -34.912  1.00  0.00     0.002 A 
HETATM   17  C   UNL     1      -6.459  -3.482 -35.165  1.00  0.00     0.032 A 
BRANCH  13  18
HETATM   18  O   UNL     1      -3.836  -1.335 -33.797  1.00  0.00    -0.349 OA
BRANCH  18  19
HETATM   19  C   UNL     1      -3.437  -1.081 -32.453  1.00  0.00     0.171 C 
HETATM   20  C   UNL     1      -4.331   0.013 -31.899  1.00  0.00     0.034 C 
ENDBRANCH  18  19
ENDBRANCH  13  18
ENDBRANCH   8  12
ENDBRANCH   5   6
ENDBRANCH   1   5
BRANCH   2  21
HETATM   21  N   UNL     1      -5.165   3.832 -32.435  1.00  0.00    -0.184 NA
HETATM   22  C   UNL     1      -3.956   3.985 -32.870  1.00  0.00     0.150 C 
BRANCH  22  23
HETATM   23  C   UNL     1      -2.991   4.855 -32.165  1.00  0.00    -0.017 A 
HETATM   24  C   UNL     1      -1.624   4.769 -32.435  1.00  0.00     0.015 A 
HETATM   25  C   UNL     1      -0.715   5.563 -31.724  1.00  0.00     0.030 A 
HETATM   26  C   UNL     1      -1.164   6.448 -30.742  1.00  0.00     0.034 A 
HETATM   27  C   UNL     1      -2.541   6.540 -30.493  1.00  0.00     0.030 A 
HETATM   28  C   UNL     1      -3.455   5.747 -31.199  1.00  0.00     0.015 A 
BRANCH  26  29
HETATM   29  N   UNL     1      -0.313   7.255 -29.959  1.00  0.00    -0.328 N 
HETATM   30  C   UNL     1       0.379   6.889 -28.818  1.00  0.00     0.218 C 
HETATM   31  C   UNL     1       1.148   8.042 -28.220  1.00  0.00     0.117 C 
HETATM   32  O   UNL     1       0.429   5.776 -28.308  1.00  0.00    -0.274 OA
HETATM   33  H   UNL     1      -0.206   8.214 -30.264  1.00  0.00     0.169 HD
ENDBRANCH  26  29
ENDBRANCH  22  23
ENDBRANCH   2  21
TORSDOF 8
ENDMDL
MODEL 2
REMARK VINA RESULT:      -7.8      2.731     11.170
REMARK  8 active torsions:
REMARK  status: ('A' for Active; 'I' for Inactive)
REMARK    1  A    between atoms: C_2  and  O_3 
REMARK    2  A    between atoms: O_3  and  C_4 
REMARK    3  A    between atoms: C_5  and  N_6 
REMARK       I    between atoms: N_6  and  C_7 
REMARK       I    between atoms: C_7  and  N_8 
REMARK    4  A    between atoms: N_8  and  C_9 
REMARK    5  A    between atoms: C_9  and  C_10 
REMARK       I    between atoms: C_10  and  N_11 
REMARK    6  A    between atoms: N_11  and  N_12 
REMARK    7  A    between atoms: C_13  and  C_14 
REMARK    8  A    between atoms: C_17  and  N_18 
REMARK       I    between atoms: N_18  and  C_19 
ROOT
HETATM    1  C   UNL     1      -2.190   4.547 -32.022  1.00  0.00     0.255 C 
HETATM    2  N   UNL     1      -2.749   3.582 -31.200  1.00  0.00    -0.246 N 
HETATM    3  O   UNL     1      -1.968   4.407 -33.226  1.00  0.00    -0.270 OA
HETATM    4  H   UNL     1      -3.037   3.842 -30.253  1.00  0.00     0.192 HD
ENDROOT
BRANCH   1   5
HETATM    5  C   UNL     1      -2.001   5.908 -31.347  1.00  0.00     0.228 C 
BRANCH   5   6
HETATM    6  N   UNL     1      -1.751   5.875 -29.910  1.00  0.00    -0.334 N 
HETATM    7  C   UNL     1      -1.279   6.993 -29.259  1.00  0.00     0.321 C 
HETATM    8  N   UNL     1      -0.938   6.687 -27.960  1.00  0.00    -0.306 N 
HETATM    9  O   UNL     1      -1.283   8.101 -29.783  1.00  0.00    -0.247 OA
HETATM   10  H   UNL     1      -1.594   6.062 -27.515  1.00  0.00     0.171 HD
HETATM   11  H   UNL     1      -1.336   5.020 -29.569  1.00  0.00     0.164 HD
BRANCH   8  12
HETATM   12  C   UNL     1      -0.189   7.535 -27.113  1.00  0.00     0.069 A 
HETATM   13  C   UNL     1      -0.772   8.350 -26.120  1.00  0.00     0.095 A 
HETATM   14  C   UNL     1       0.058   9.140 -25.316  1.00  0.00     0.039 A 
HETATM   15  C   UNL     1       1.440   9.162 -25.524  1.00  0.00     0.003 A 
HETATM   16  C   UNL     1       2.004   8.407 -26.547  1.00  0.00     0.002 A 
HETATM   17  C   UNL     1       1.192   7.602 -27.345  1.00  0.00     0.032 A 
BRANCH  13  18
HETATM   18  O   UNL     1      -2.142   8.377 -26.063  1.00  0.00    -0.349 OA
BRANCH  18  19
HETATM   19  C   UNL     1      -2.778   7.823 -24.915  1.00  0.00     0.171 C 
HETATM   20  C   UNL     1      -3.962   8.706 -24.564  1.00  0.00     0.034 C 
ENDBRANCH  18  19
ENDBRANCH  13  18
ENDBRANCH   8  12
ENDBRANCH   5   6
ENDBRANCH   1   5
BRANCH   2  21
HETATM   21  N   UNL     1      -3.109   2.374 -31.718  1.00  0.00    -0.184 NA
HETATM   22  C   UNL     1      -4.376   2.209 -31.921  1.00  0.00     0.150 C 
BRANCH  22  23
HETATM   23  C   UNL     1      -4.900   0.968 -32.528  1.00  0.00    -0.017 A 
HETATM   24  C   UNL     1      -4.369  -0.276 -32.184  1.00  0.00     0.015 A 
HETATM   25  C   UNL     1      -4.841  -1.440 -32.804  1.00  0.00     0.030 A 
HETATM   26  C   UNL     1      -5.847  -1.370 -33.769  1.00  0.00     0.034 A 
HETATM   27  C   UNL     1      -6.387  -0.117 -34.094  1.00  0.00     0.030 A 
HETATM   28  C   UNL     1      -5.917   1.050 -33.479  1.00  0.00     0.015 A 
BRANCH  26  29
HETATM   29  N   UNL     1      -6.351  -2.489 -34.464  1.00  0.00    -0.328 N 
HETATM   30  C   UNL     1      -5.679  -3.657 -34.781  1.00  0.00     0.218 C 
HETATM   31  C   UNL     1      -6.533  -4.609 -35.581  1.00  0.00     0.117 C 
HETATM   32  O   UNL     1      -4.536  -3.961 -34.463  1.00  0.00    -0.274 OA
HETATM   33  H   UNL     1      -7.312  -2.423 -34.773  1.00  0.00     0.169 HD
ENDBRANCH  26  29
ENDBRANCH  22  23
ENDBRANCH   2  21
TORSDOF 8
ENDMDL
MODEL 3
REMARK VINA RESULT:      -7.8      2.516     10.385
REMARK  8 active torsions:
REMARK  status: ('A' for Active; 'I' for Inactive)
REMARK    1  A    between atoms: C_2  and  O_3 
REMARK    2  A    between atoms: O_3  and  C_4 
REMARK    3  A    between atoms: C_5  and  N_6 
REMARK       I    between atoms: N_6  and  C_7 
REMARK       I    between atoms: C_7  and  N_8 
REMARK    4  A    between atoms: N_8  and  C_9 
REMARK    5  A    between atoms: C_9  and  C_10 
REMARK       I    between atoms: C_10  and  N_11 
REMARK    6  A    between atoms: N_11  and  N_12 
REMARK    7  A    between atoms: C_13  and  C_14 
REMARK    8  A    between atoms: C_17  and  N_18 
REMARK       I    between atoms: N_18  and  C_19 
ROOT
HETATM    1  C   UNL     1      -6.162   5.186 -28.598  1.00  0.00     0.255 C 
HETATM    2  N   UNL     1      -5.249   4.247 -29.048  1.00  0.00    -0.246 N 
HETATM    3  O   UNL     1      -7.380   5.134 -28.781  1.00  0.00    -0.270 OA
HETATM    4  H   UNL     1      -4.282   4.295 -28.716  1.00  0.00     0.192 HD
ENDROOT
BRANCH   1   5
HETATM    5  C   UNL     1      -5.557   6.259 -27.687  1.00  0.00     0.228 C 
BRANCH   5   6
HETATM    6  N   UNL     1      -4.188   6.018 -27.247  1.00  0.00    -0.334 N 
HETATM    7  C   UNL     1      -3.261   7.037 -27.264  1.00  0.00     0.321 C 
HETATM    8  N   UNL     1      -2.002   6.549 -26.991  1.00  0.00    -0.306 N 
HETATM    9  O   UNL     1      -3.586   8.210 -27.406  1.00  0.00    -0.247 OA
HETATM   10  H   UNL     1      -1.996   5.851 -26.262  1.00  0.00     0.171 HD
HETATM   11  H   UNL     1      -3.798   5.131 -27.530  1.00  0.00     0.164 HD
BRANCH   8  12
HETATM   12  C   UNL     1      -0.806   7.277 -27.187  1.00  0.00     0.069 A 
HETATM   13  C   UNL     1      -0.072   7.253 -28.391  1.00  0.00     0.095 A 
HETATM   14  C   UNL     1       1.090   8.027 -28.494  1.00  0.00     0.039 A 
HETATM   15  C   UNL     1       1.547   8.773 -27.404  1.00  0.00     0.003 A 
HETATM   16  C   UNL     1       0.856   8.743 -26.198  1.00  0.00     0.002 A 
HETATM   17  C   UNL     1      -0.312   7.991 -26.086  1.00  0.00     0.032 A 
BRANCH  13  18
HETATM   18  O   UNL     1      -0.508   6.395 -29.368  1.00  0.00    -0.349 OA
BRANCH  18  19
HETATM   19  C   UNL     1      -1.140   6.951 -30.518  1.00  0.00     0.171 C 
HETATM   20  C   UNL     1      -0.181   6.819 -31.688  1.00  0.00     0.034 C 
ENDBRANCH  18  19
ENDBRANCH  13  18
ENDBRANCH   8  12
ENDBRANCH   5   6
ENDBRANCH   1   5
BRANCH   2  21
HETATM   21  N   UNL     1      -5.683   3.157 -29.741  1.00  0.00    -0.184 NA
HETATM   22  C   UNL     1      -5.002   2.864 -30.802  1.00  0.00     0.150 C 
BRANCH  22  23
HETATM   23  C   UNL     1      -5.328   1.676 -31.618  1.00  0.00    -0.017 A 
HETATM   24  C   UNL     1      -5.693   1.809 -32.959  1.00  0.00     0.015 A 
HETATM   25  C   UNL     1      -6.048   0.680 -33.708  1.00  0.00     0.030 A 
HETATM   26  C   UNL     1      -6.040  -0.588 -33.125  1.00  0.00     0.034 A 
HETATM   27  C   UNL     1      -5.653  -0.713 -31.783  1.00  0.00     0.030 A 
HETATM   28  C   UNL     1      -5.299   0.413 -31.028  1.00  0.00     0.015 A 
BRANCH  26  29
HETATM   29  N   UNL     1      -6.417  -1.768 -33.800  1.00  0.00    -0.328 N 
HETATM   30  C   UNL     1      -5.587  -2.677 -34.433  1.00  0.00     0.218 C 
HETATM   31  C   UNL     1      -6.359  -3.792 -35.094  1.00  0.00     0.117 C 
HETATM   32  O   UNL     1      -4.362  -2.658 -34.473  1.00  0.00    -0.274 OA
HETATM   33  H   UNL     1      -7.409  -1.963 -33.832  1.00  0.00     0.169 HD
ENDBRANCH  26  29
ENDBRANCH  22  23
ENDBRANCH   2  21
TORSDOF 8
ENDMDL
MODEL 4
REMARK VINA RESULT:      -7.4      2.071     10.634
REMARK  8 active torsions:
REMARK  status: ('A' for Active; 'I' for Inactive)
REMARK    1  A    between atoms: C_2  and  O_3 
REMARK    2  A    between atoms: O_3  and  C_4 
REMARK    3  A    between atoms: C_5  and  N_6 
REMARK       I    between atoms: N_6  and  C_7 
REMARK       I    between atoms: C_7  and  N_8 
REMARK    4  A    between atoms: N_8  and  C_9 
REMARK    5  A    between atoms: C_9  and  C_10 
REMARK       I    between atoms: C_10  and  N_11 
REMARK    6  A    between atoms: N_11  and  N_12 
REMARK    7  A    between atoms: C_13  and  C_14 
REMARK    8  A    between atoms: C_17  and  N_18 
REMARK       I    between atoms: N_18  and  C_19 
ROOT
HETATM    1  C   UNL     1      -4.029   5.512 -31.774  1.00  0.00     0.255 C 
HETATM    2  N   UNL     1      -5.070   4.621 -31.573  1.00  0.00    -0.246 N 
HETATM    3  O   UNL     1      -3.025   5.286 -32.453  1.00  0.00    -0.270 OA
HETATM    4  H   UNL     1      -5.928   4.952 -31.124  1.00  0.00     0.192 HD
ENDROOT
BRANCH   1   5
HETATM    5  C   UNL     1      -4.285   6.910 -31.203  1.00  0.00     0.228 C 
BRANCH   5   6
HETATM    6  N   UNL     1      -3.765   7.152 -29.862  1.00  0.00    -0.334 N 
HETATM    7  C   UNL     1      -2.580   7.831 -29.686  1.00  0.00     0.321 C 
HETATM    8  N   UNL     1      -2.186   7.782 -28.367  1.00  0.00    -0.306 N 
HETATM    9  O   UNL     1      -2.050   8.461 -30.594  1.00  0.00    -0.247 OA
HETATM   10  H   UNL     1      -2.952   7.894 -27.720  1.00  0.00     0.171 HD
HETATM   11  H   UNL     1      -3.874   6.384 -29.216  1.00  0.00     0.164 HD
BRANCH   8  12
HETATM   12  C   UNL     1      -0.902   8.150 -27.905  1.00  0.00     0.069 A 
HETATM   13  C   UNL     1       0.178   7.247 -27.818  1.00  0.00     0.095 A 
HETATM   14  C   UNL     1       1.419   7.714 -27.368  1.00  0.00     0.039 A 
HETATM   15  C   UNL     1       1.575   9.042 -26.961  1.00  0.00     0.003 A 
HETATM   16  C   UNL     1       0.491   9.913 -26.988  1.00  0.00     0.002 A 
HETATM   17  C   UNL     1      -0.746   9.467 -27.450  1.00  0.00     0.032 A 
BRANCH  13  18
HETATM   18  O   UNL     1      -0.085   5.932 -28.106  1.00  0.00    -0.349 OA
BRANCH  18  19
HETATM   19  C   UNL     1       0.736   5.278 -29.070  1.00  0.00     0.171 C 
HETATM   20  C   UNL     1       0.092   5.458 -30.432  1.00  0.00     0.034 C 
ENDBRANCH  18  19
ENDBRANCH  13  18
ENDBRANCH   8  12
ENDBRANCH   5   6
ENDBRANCH   1   5
BRANCH   2  21
HETATM   21  N   UNL     1      -5.035   3.392 -32.160  1.00  0.00    -0.184 NA
HETATM   22  C   UNL     1      -6.169   2.772 -32.226  1.00  0.00     0.150 C 
BRANCH  22  23
HETATM   23  C   UNL     1      -6.286   1.454 -32.884  1.00  0.00    -0.017 A 
HETATM   24  C   UNL     1      -6.618   1.359 -34.237  1.00  0.00     0.015 A 
HETATM   25  C   UNL     1      -6.775   0.103 -34.837  1.00  0.00     0.030 A 
HETATM   26  C   UNL     1      -6.600  -1.064 -34.092  1.00  0.00     0.034 A 
HETATM   27  C   UNL     1      -6.247  -0.958 -32.739  1.00  0.00     0.030 A 
HETATM   28  C   UNL     1      -6.091   0.296 -32.133  1.00  0.00     0.015 A 
BRANCH  26  29
HETATM   29  N   UNL     1      -6.773  -2.364 -34.612  1.00  0.00    -0.328 N 
HETATM   30  C   UNL     1      -5.788  -3.281 -34.933  1.00  0.00     0.218 C 
HETATM   31  C   UNL     1      -6.355  -4.551 -35.517  1.00  0.00     0.117 C 
HETATM   32  O   UNL     1      -4.580  -3.157 -34.768  1.00  0.00    -0.274 OA
HETATM   33  H   UNL     1      -7.729  -2.652 -34.777  1.00  0.00     0.169 HD
ENDBRANCH  26  29
ENDBRANCH  22  23
ENDBRANCH   2  21
TORSDOF 8
ENDMDL
MODEL 5
REMARK VINA RESULT:      -7.4      2.311      9.263
REMARK  8 active torsions:
REMARK  status: ('A' for Active; 'I' for Inactive)
REMARK    1  A    between atoms: C_2  and  O_3 
REMARK    2  A    between atoms: O_3  and  C_4 
REMARK    3  A    between atoms: C_5  and  N_6 
REMARK       I    between atoms: N_6  and  C_7 
REMARK       I    between atoms: C_7  and  N_8 
REMARK    4  A    between atoms: N_8  and  C_9 
REMARK    5  A    between atoms: C_9  and  C_10 
REMARK       I    between atoms: C_10  and  N_11 
REMARK    6  A    between atoms: N_11  and  N_12 
REMARK    7  A    between atoms: C_13  and  C_14 
REMARK    8  A    between atoms: C_17  and  N_18 
REMARK       I    between atoms: N_18  and  C_19 
ROOT
HETATM    1  C   UNL     1      -7.363   5.530 -30.809  1.00  0.00     0.255 C 
HETATM    2  N   UNL     1      -6.493   4.784 -31.586  1.00  0.00    -0.246 N 
HETATM    3  O   UNL     1      -8.507   5.189 -30.500  1.00  0.00    -0.270 OA
HETATM    4  H   UNL     1      -5.515   5.078 -31.660  1.00  0.00     0.192 HD
ENDROOT
BRANCH   1   5
HETATM    5  C   UNL     1      -6.736   6.790 -30.204  1.00  0.00     0.228 C 
BRANCH   5   6
HETATM    6  N   UNL     1      -5.441   6.607 -29.560  1.00  0.00    -0.334 N 
HETATM    7  C   UNL     1      -4.281   6.956 -30.216  1.00  0.00     0.321 C 
HETATM    8  N   UNL     1      -3.179   6.529 -29.509  1.00  0.00    -0.306 N 
HETATM    9  O   UNL     1      -4.289   7.643 -31.231  1.00  0.00    -0.247 OA
HETATM   10  H   UNL     1      -3.273   6.657 -28.512  1.00  0.00     0.171 HD
HETATM   11  H   UNL     1      -5.346   5.756 -29.026  1.00  0.00     0.164 HD
BRANCH   8  12
HETATM   12  C   UNL     1      -1.864   6.497 -30.027  1.00  0.00     0.069 A 
HETATM   13  C   UNL     1      -1.431   5.556 -30.985  1.00  0.00     0.095 A 
HETATM   14  C   UNL     1      -0.113   5.621 -31.453  1.00  0.00     0.039 A 
HETATM   15  C   UNL     1       0.778   6.569 -30.943  1.00  0.00     0.003 A 
HETATM   16  C   UNL     1       0.365   7.453 -29.951  1.00  0.00     0.002 A 
HETATM   17  C   UNL     1      -0.949   7.412 -29.488  1.00  0.00     0.032 A 
BRANCH  13  18
HETATM   18  O   UNL     1      -2.321   4.574 -31.339  1.00  0.00    -0.349 OA
BRANCH  18  19
HETATM   19  C   UNL     1      -2.346   4.149 -32.699  1.00  0.00     0.171 C 
HETATM   20  C   UNL     1      -3.220   5.118 -33.475  1.00  0.00     0.034 C 
ENDBRANCH  18  19
ENDBRANCH  13  18
ENDBRANCH   8  12
ENDBRANCH   5   6
ENDBRANCH   1   5
BRANCH   2  21
HETATM   21  N   UNL     1      -6.879   3.565 -32.058  1.00  0.00    -0.184 NA
HETATM   22  C   UNL     1      -5.921   2.791 -32.455  1.00  0.00     0.150 C 
BRANCH  22  23
HETATM   23  C   UNL     1      -6.192   1.422 -32.940  1.00  0.00    -0.017 A 
HETATM   24  C   UNL     1      -5.893   0.311 -32.150  1.00  0.00     0.015 A 
HETATM   25  C   UNL     1      -6.108  -0.982 -32.642  1.00  0.00     0.030 A 
HETATM   26  C   UNL     1      -6.624  -1.175 -33.923  1.00  0.00     0.034 A 
HETATM   27  C   UNL     1      -6.940  -0.053 -34.702  1.00  0.00     0.030 A 
HETATM   28  C   UNL     1      -6.725   1.243 -34.217  1.00  0.00     0.015 A 
BRANCH  26  29
HETATM   29  N   UNL     1      -6.837  -2.443 -34.505  1.00  0.00    -0.328 N 
HETATM   30  C   UNL     1      -5.878  -3.344 -34.934  1.00  0.00     0.218 C 
HETATM   31  C   UNL     1      -6.488  -4.576 -35.555  1.00  0.00     0.117 C 
HETATM   32  O   UNL     1      -4.662  -3.234 -34.833  1.00  0.00    -0.274 OA
HETATM   33  H   UNL     1      -7.803  -2.717 -34.630  1.00  0.00     0.169 HD
ENDBRANCH  26  29
ENDBRANCH  22  23
ENDBRANCH   2  21
TORSDOF 8
ENDMDL
MODEL 6
REMARK VINA RESULT:      -7.3      3.109      5.768
REMARK  8 active torsions:
REMARK  status: ('A' for Active; 'I' for Inactive)
REMARK    1  A    between atoms: C_2  and  O_3 
REMARK    2  A    between atoms: O_3  and  C_4 
REMARK    3  A    between atoms: C_5  and  N_6 
REMARK       I    between atoms: N_6  and  C_7 
REMARK       I    between atoms: C_7  and  N_8 
REMARK    4  A    between atoms: N_8  and  C_9 
REMARK    5  A    between atoms: C_9  and  C_10 
REMARK       I    between atoms: C_10  and  N_11 
REMARK    6  A    between atoms: N_11  and  N_12 
REMARK    7  A    between atoms: C_13  and  C_14 
REMARK    8  A    between atoms: C_17  and  N_18 
REMARK       I    between atoms: N_18  and  C_19 
ROOT
HETATM    1  C   UNL     1      -1.373   6.265 -33.127  1.00  0.00     0.255 C 
HETATM    2  N   UNL     1      -1.070   5.737 -31.883  1.00  0.00    -0.246 N 
HETATM    3  O   UNL     1      -1.084   7.403 -33.502  1.00  0.00    -0.270 OA
HETATM    4  H   UNL     1      -1.213   4.737 -31.718  1.00  0.00     0.192 HD
ENDROOT
BRANCH   1   5
HETATM    5  C   UNL     1      -1.979   5.253 -34.103  1.00  0.00     0.228 C 
BRANCH   5   6
HETATM    6  N   UNL     1      -3.315   4.772 -33.772  1.00  0.00    -0.334 N 
HETATM    7  C   UNL     1      -3.479   3.710 -32.910  1.00  0.00     0.321 C 
HETATM    8  N   UNL     1      -4.796   3.307 -32.887  1.00  0.00    -0.306 N 
HETATM    9  O   UNL     1      -2.564   3.292 -32.211  1.00  0.00    -0.247 OA
HETATM   10  H   UNL     1      -5.448   4.078 -32.894  1.00  0.00     0.171 HD
HETATM   11  H   UNL     1      -3.966   4.753 -34.543  1.00  0.00     0.164 HD
BRANCH   8  12
HETATM   12  C   UNL     1      -5.248   2.096 -32.315  1.00  0.00     0.069 A 
HETATM   13  C   UNL     1      -5.921   2.028 -31.077  1.00  0.00     0.095 A 
HETATM   14  C   UNL     1      -6.349   0.781 -30.604  1.00  0.00     0.039 A 
HETATM   15  C   UNL     1      -6.070  -0.386 -31.320  1.00  0.00     0.003 A 
HETATM   16  C   UNL     1      -5.349  -0.321 -32.508  1.00  0.00     0.002 A 
HETATM   17  C   UNL     1      -4.931   0.915 -33.000  1.00  0.00     0.032 A 
BRANCH  13  18
HETATM   18  O   UNL     1      -6.041   3.196 -30.368  1.00  0.00    -0.349 OA
BRANCH  18  19
HETATM   19  C   UNL     1      -7.279   3.461 -29.715  1.00  0.00     0.171 C 
HETATM   20  C   UNL     1      -8.223   4.076 -30.733  1.00  0.00     0.034 C 
ENDBRANCH  18  19
ENDBRANCH  13  18
ENDBRANCH   8  12
ENDBRANCH   5   6
ENDBRANCH   1   5
BRANCH   2  21
HETATM   21  N   UNL     1      -0.390   6.490 -30.973  1.00  0.00    -0.184 NA
HETATM   22  C   UNL     1      -0.593   6.184 -29.732  1.00  0.00     0.150 C 
BRANCH  22  23
HETATM   23  C   UNL     1       0.119   6.883 -28.643  1.00  0.00    -0.017 A 
HETATM   24  C   UNL     1       0.907   8.005 -28.909  1.00  0.00     0.015 A 
HETATM   25  C   UNL     1       1.617   8.628 -27.875  1.00  0.00     0.030 A 
HETATM   26  C   UNL     1       1.545   8.138 -26.570  1.00  0.00     0.034 A 
HETATM   27  C   UNL     1       0.736   7.022 -26.310  1.00  0.00     0.030 A 
HETATM   28  C   UNL     1       0.026   6.393 -27.341  1.00  0.00     0.015 A 
BRANCH  26  29
HETATM   29  N   UNL     1       2.256   8.686 -25.482  1.00  0.00    -0.328 N 
HETATM   30  C   UNL     1       1.767   9.521 -24.493  1.00  0.00     0.218 C 
HETATM   31  C   UNL     1       2.841   9.949 -23.523  1.00  0.00     0.117 C 
HETATM   32  O   UNL     1       0.609   9.893 -24.343  1.00  0.00    -0.274 OA
HETATM   33  H   UNL     1       3.237   8.447 -25.428  1.00  0.00     0.169 HD
ENDBRANCH  26  29
ENDBRANCH  22  23
ENDBRANCH   2  21
TORSDOF 8
ENDMDL
MODEL 7
REMARK VINA RESULT:      -7.2      2.958     10.712
REMARK  8 active torsions:
REMARK  status: ('A' for Active; 'I' for Inactive)
REMARK    1  A    between atoms: C_2  and  O_3 
REMARK    2  A    between atoms: O_3  and  C_4 
REMARK    3  A    between atoms: C_5  and  N_6 
REMARK       I    between atoms: N_6  and  C_7 
REMARK       I    between atoms: C_7  and  N_8 
REMARK    4  A    between atoms: N_8  and  C_9 
REMARK    5  A    between atoms: C_9  and  C_10 
REMARK       I    between atoms: C_10  and  N_11 
REMARK    6  A    between atoms: N_11  and  N_12 
REMARK    7  A    between atoms: C_13  and  C_14 
REMARK    8  A    between atoms: C_17  and  N_18 
REMARK       I    between atoms: N_18  and  C_19 
ROOT
HETATM    1  C   UNL     1      -6.191   5.424 -28.572  1.00  0.00     0.255 C 
HETATM    2  N   UNL     1      -5.196   5.015 -29.445  1.00  0.00    -0.246 N 
HETATM    3  O   UNL     1      -7.355   5.020 -28.586  1.00  0.00    -0.270 OA
HETATM    4  H   UNL     1      -4.228   5.290 -29.259  1.00  0.00     0.192 HD
ENDROOT
BRANCH   1   5
HETATM    5  C   UNL     1      -5.696   6.334 -27.444  1.00  0.00     0.228 C 
BRANCH   5   6
HETATM    6  N   UNL     1      -4.322   6.113 -27.006  1.00  0.00    -0.334 N 
HETATM    7  C   UNL     1      -3.370   7.093 -27.179  1.00  0.00     0.321 C 
HETATM    8  N   UNL     1      -2.118   6.608 -26.873  1.00  0.00    -0.306 N 
HETATM    9  O   UNL     1      -3.668   8.246 -27.465  1.00  0.00    -0.247 OA
HETATM   10  H   UNL     1      -2.111   6.011 -26.058  1.00  0.00     0.171 HD
HETATM   11  H   UNL     1      -3.963   5.185 -27.180  1.00  0.00     0.164 HD
BRANCH   8  12
HETATM   12  C   UNL     1      -0.909   7.269 -27.189  1.00  0.00     0.069 A 
HETATM   13  C   UNL     1      -0.242   8.133 -26.295  1.00  0.00     0.095 A 
HETATM   14  C   UNL     1       0.963   8.724 -26.695  1.00  0.00     0.039 A 
HETATM   15  C   UNL     1       1.474   8.504 -27.976  1.00  0.00     0.003 A 
HETATM   16  C   UNL     1       0.780   7.703 -28.877  1.00  0.00     0.002 A 
HETATM   17  C   UNL     1      -0.412   7.094 -28.488  1.00  0.00     0.032 A 
BRANCH  13  18
HETATM   18  O   UNL     1      -0.871   8.407 -25.108  1.00  0.00    -0.349 OA
BRANCH  18  19
HETATM   19  C   UNL     1      -0.856   9.750 -24.633  1.00  0.00     0.171 C 
HETATM   20  C   UNL     1      -2.079  10.456 -25.189  1.00  0.00     0.034 C 
ENDBRANCH  18  19
ENDBRANCH  13  18
ENDBRANCH   8  12
ENDBRANCH   5   6
ENDBRANCH   1   5
BRANCH   2  21
HETATM   21  N   UNL     1      -5.473   4.086 -30.402  1.00  0.00    -0.184 NA
HETATM   22  C   UNL     1      -5.136   2.871 -30.114  1.00  0.00     0.150 C 
BRANCH  22  23
HETATM   23  C   UNL     1      -5.426   1.754 -31.038  1.00  0.00    -0.017 A 
HETATM   24  C   UNL     1      -5.443   1.956 -32.419  1.00  0.00     0.015 A 
HETATM   25  C   UNL     1      -5.768   0.902 -33.282  1.00  0.00     0.030 A 
HETATM   26  C   UNL     1      -6.077  -0.360 -32.772  1.00  0.00     0.034 A 
HETATM   27  C   UNL     1      -6.039  -0.558 -31.384  1.00  0.00     0.030 A 
HETATM   28  C   UNL     1      -5.716   0.494 -30.517  1.00  0.00     0.015 A 
BRANCH  26  29
HETATM   29  N   UNL     1      -6.448  -1.463 -33.569  1.00  0.00    -0.328 N 
HETATM   30  C   UNL     1      -5.610  -2.350 -34.222  1.00  0.00     0.218 C 
HETATM   31  C   UNL     1      -6.374  -3.373 -35.026  1.00  0.00     0.117 C 
HETATM   32  O   UNL     1      -4.386  -2.379 -34.179  1.00  0.00    -0.274 OA
HETATM   33  H   UNL     1      -7.442  -1.613 -33.683  1.00  0.00     0.169 HD
ENDBRANCH  26  29
ENDBRANCH  22  23
ENDBRANCH   2  21
TORSDOF 8
ENDMDL
MODEL 8
REMARK VINA RESULT:      -7.2      2.577      5.396
REMARK  8 active torsions:
REMARK  status: ('A' for Active; 'I' for Inactive)
REMARK    1  A    between atoms: C_2  and  O_3 
REMARK    2  A    between atoms: O_3  and  C_4 
REMARK    3  A    between atoms: C_5  and  N_6 
REMARK       I    between atoms: N_6  and  C_7 
REMARK       I    between atoms: C_7  and  N_8 
REMARK    4  A    between atoms: N_8  and  C_9 
REMARK    5  A    between atoms: C_9  and  C_10 
REMARK       I    between atoms: C_10  and  N_11 
REMARK    6  A    between atoms: N_11  and  N_12 
REMARK    7  A    between atoms: C_13  and  C_14 
REMARK    8  A    between atoms: C_17  and  N_18 
REMARK       I    between atoms: N_18  and  C_19 
ROOT
HETATM    1  C   UNL     1      -1.834   4.925 -31.557  1.00  0.00     0.255 C 
HETATM    2  N   UNL     1      -1.679   6.299 -31.474  1.00  0.00    -0.246 N 
HETATM    3  O   UNL     1      -1.224   4.101 -30.873  1.00  0.00    -0.270 OA
HETATM    4  H   UNL     1      -2.338   6.905 -31.971  1.00  0.00     0.192 HD
ENDROOT
BRANCH   1   5
HETATM    5  C   UNL     1      -2.970   4.480 -32.483  1.00  0.00     0.228 C 
BRANCH   5   6
HETATM    6  N   UNL     1      -3.565   3.184 -32.180  1.00  0.00    -0.334 N 
HETATM    7  C   UNL     1      -4.773   2.824 -32.737  1.00  0.00     0.321 C 
HETATM    8  N   UNL     1      -5.234   1.655 -32.174  1.00  0.00    -0.306 N 
HETATM    9  O   UNL     1      -5.268   3.442 -33.672  1.00  0.00    -0.247 OA
HETATM   10  H   UNL     1      -4.506   0.972 -32.023  1.00  0.00     0.171 HD
HETATM   11  H   UNL     1      -3.474   2.886 -31.220  1.00  0.00     0.164 HD
BRANCH   8  12
HETATM   12  C   UNL     1      -6.549   1.160 -32.332  1.00  0.00     0.069 A 
HETATM   13  C   UNL     1      -6.900   0.185 -33.289  1.00  0.00     0.095 A 
HETATM   14  C   UNL     1      -8.227  -0.258 -33.353  1.00  0.00     0.039 A 
HETATM   15  C   UNL     1      -9.202   0.294 -32.518  1.00  0.00     0.003 A 
HETATM   16  C   UNL     1      -8.865   1.301 -31.621  1.00  0.00     0.002 A 
HETATM   17  C   UNL     1      -7.544   1.740 -31.534  1.00  0.00     0.032 A 
BRANCH  13  18
HETATM   18  O   UNL     1      -5.919  -0.211 -34.162  1.00  0.00    -0.349 OA
BRANCH  18  19
HETATM   19  C   UNL     1      -5.628  -1.603 -34.260  1.00  0.00     0.171 C 
HETATM   20  C   UNL     1      -4.373  -1.876 -33.451  1.00  0.00     0.034 C 
ENDBRANCH  18  19
ENDBRANCH  13  18
ENDBRANCH   8  12
ENDBRANCH   5   6
ENDBRANCH   1   5
BRANCH   2  21
HETATM   21  N   UNL     1      -0.806   6.830 -30.573  1.00  0.00    -0.184 NA
HETATM   22  C   UNL     1      -1.309   7.692 -29.750  1.00  0.00     0.150 C 
BRANCH  22  23
HETATM   23  C   UNL     1      -0.488   8.307 -28.686  1.00  0.00    -0.017 A 
HETATM   24  C   UNL     1      -1.044   9.230 -27.798  1.00  0.00     0.015 A 
HETATM   25  C   UNL     1      -0.243   9.843 -26.826  1.00  0.00     0.030 A 
HETATM   26  C   UNL     1       1.115   9.538 -26.733  1.00  0.00     0.034 A 
HETATM   27  C   UNL     1       1.660   8.596 -27.617  1.00  0.00     0.030 A 
HETATM   28  C   UNL     1       0.865   7.981 -28.593  1.00  0.00     0.015 A 
BRANCH  26  29
HETATM   29  N   UNL     1       1.996  10.136 -25.807  1.00  0.00    -0.328 N 
HETATM   30  C   UNL     1       2.476   9.591 -24.629  1.00  0.00     0.218 C 
HETATM   31  C   UNL     1       3.356  10.553 -23.870  1.00  0.00     0.117 C 
HETATM   32  O   UNL     1       2.274   8.461 -24.200  1.00  0.00    -0.274 OA
HETATM   33  H   UNL     1       2.300  11.075 -26.027  1.00  0.00     0.169 HD
ENDBRANCH  26  29
ENDBRANCH  22  23
ENDBRANCH   2  21
TORSDOF 8
ENDMDL
MODEL 9
REMARK VINA RESULT:      -7.1     16.219     19.501
REMARK  8 active torsions:
REMARK  status: ('A' for Active; 'I' for Inactive)
REMARK    1  A    between atoms: C_2  and  O_3 
REMARK    2  A    between atoms: O_3  and  C_4 
REMARK    3  A    between atoms: C_5  and  N_6 
REMARK       I    between atoms: N_6  and  C_7 
REMARK       I    between atoms: C_7  and  N_8 
REMARK    4  A    between atoms: N_8  and  C_9 
REMARK    5  A    between atoms: C_9  and  C_10 
REMARK       I    between atoms: C_10  and  N_11 
REMARK    6  A    between atoms: N_11  and  N_12 
REMARK    7  A    between atoms: C_13  and  C_14 
REMARK    8  A    between atoms: C_17  and  N_18 
REMARK       I    between atoms: N_18  and  C_19 
ROOT
HETATM    1  C   UNL     1      -6.526 -13.827 -35.327  1.00  0.00     0.255 C 
HETATM    2  N   UNL     1      -6.911 -13.102 -36.442  1.00  0.00    -0.246 N 
HETATM    3  O   UNL     1      -7.076 -14.855 -34.927  1.00  0.00    -0.270 OA
HETATM    4  H   UNL     1      -6.302 -12.352 -36.783  1.00  0.00     0.192 HD
ENDROOT
BRANCH   1   5
HETATM    5  C   UNL     1      -5.226 -13.337 -34.682  1.00  0.00     0.228 C 
BRANCH   5   6
HETATM    6  N   UNL     1      -4.000 -13.943 -35.186  1.00  0.00    -0.334 N 
HETATM    7  C   UNL     1      -3.448 -13.515 -36.373  1.00  0.00     0.321 C 
HETATM    8  N   UNL     1      -2.413 -14.342 -36.750  1.00  0.00    -0.306 N 
HETATM    9  O   UNL     1      -3.803 -12.477 -36.918  1.00  0.00    -0.247 OA
HETATM   10  H   UNL     1      -1.830 -14.626 -35.977  1.00  0.00     0.171 HD
HETATM   11  H   UNL     1      -3.937 -14.944 -35.065  1.00  0.00     0.164 HD
BRANCH   8  12
HETATM   12  C   UNL     1      -1.815 -14.336 -38.031  1.00  0.00     0.069 A 
HETATM   13  C   UNL     1      -2.528 -14.591 -39.221  1.00  0.00     0.095 A 
HETATM   14  C   UNL     1      -1.849 -14.540 -40.444  1.00  0.00     0.039 A 
HETATM   15  C   UNL     1      -0.475 -14.291 -40.485  1.00  0.00     0.003 A 
HETATM   16  C   UNL     1       0.237 -14.104 -39.305  1.00  0.00     0.002 A 
HETATM   17  C   UNL     1      -0.428 -14.135 -38.081  1.00  0.00     0.032 A 
BRANCH  13  18
HETATM   18  O   UNL     1      -3.843 -14.960 -39.091  1.00  0.00    -0.349 OA
BRANCH  18  19
HETATM   19  C   UNL     1      -4.805 -14.322 -39.927  1.00  0.00     0.171 C 
HETATM   20  C   UNL     1      -5.348 -15.362 -40.891  1.00  0.00     0.034 C 
ENDBRANCH  18  19
ENDBRANCH  13  18
ENDBRANCH   8  12
ENDBRANCH   5   6
ENDBRANCH   1   5
BRANCH   2  21
HETATM   21  N   UNL     1      -7.964 -13.524 -37.196  1.00  0.00    -0.184 NA
HETATM   22  C   UNL     1      -7.971 -13.115 -38.424  1.00  0.00     0.150 C 
BRANCH  22  23
HETATM   23  C   UNL     1      -9.025 -13.540 -39.368  1.00  0.00    -0.017 A 
HETATM   24  C   UNL     1     -10.235 -12.847 -39.448  1.00  0.00     0.015 A 
HETATM   25  C   UNL     1     -11.245 -13.290 -40.311  1.00  0.00     0.030 A 
HETATM   26  C   UNL     1     -11.054 -14.425 -41.101  1.00  0.00     0.034 A 
HETATM   27  C   UNL     1      -9.828 -15.102 -41.028  1.00  0.00     0.030 A 
HETATM   28  C   UNL     1      -8.815 -14.665 -40.165  1.00  0.00     0.015 A 
BRANCH  26  29
HETATM   29  N   UNL     1     -12.032 -14.955 -41.968  1.00  0.00    -0.328 N 
HETATM   30  C   UNL     1     -12.601 -16.216 -41.925  1.00  0.00     0.218 C 
HETATM   31  C   UNL     1     -13.574 -16.444 -43.055  1.00  0.00     0.117 C 
HETATM   32  O   UNL     1     -12.404 -17.088 -41.087  1.00  0.00    -0.274 OA
HETATM   33  H   UNL     1     -12.344 -14.344 -42.712  1.00  0.00     0.169 HD
ENDBRANCH  26  29
ENDBRANCH  22  23
ENDBRANCH   2  21
TORSDOF 8
ENDMDL
MODEL 10
REMARK VINA RESULT:      -7.0      2.482     10.844
REMARK  8 active torsions:
REMARK  status: ('A' for Active; 'I' for Inactive)
REMARK    1  A    between atoms: C_2  and  O_3 
REMARK    2  A    between atoms: O_3  and  C_4 
REMARK    3  A    between atoms: C_5  and  N_6 
REMARK       I    between atoms: N_6  and  C_7 
REMARK       I    between atoms: C_7  and  N_8 
REMARK    4  A    between atoms: N_8  and  C_9 
REMARK    5  A    between atoms: C_9  and  C_10 
REMARK       I    between atoms: C_10  and  N_11 
REMARK    6  A    between atoms: N_11  and  N_12 
REMARK    7  A    between atoms: C_13  and  C_14 
REMARK    8  A    between atoms: C_17  and  N_18 
REMARK       I    between atoms: N_18  and  C_19 
ROOT
HETATM    1  C   UNL     1      -5.439   4.818 -30.335  1.00  0.00     0.255 C 
HETATM    2  N   UNL     1      -5.254   4.429 -31.652  1.00  0.00    -0.246 N 
HETATM    3  O   UNL     1      -5.688   4.054 -29.401  1.00  0.00    -0.270 OA
HETATM    4  H   UNL     1      -4.900   5.113 -32.327  1.00  0.00     0.192 HD
ENDROOT
BRANCH   1   5
HETATM    5  C   UNL     1      -5.151   6.299 -30.075  1.00  0.00     0.228 C 
BRANCH   5   6
HETATM    6  N   UNL     1      -4.394   6.596 -28.864  1.00  0.00    -0.334 N 
HETATM    7  C   UNL     1      -3.183   7.246 -28.941  1.00  0.00     0.321 C 
HETATM    8  N   UNL     1      -2.560   7.254 -27.712  1.00  0.00    -0.306 N 
HETATM    9  O   UNL     1      -2.812   7.811 -29.963  1.00  0.00    -0.247 OA
HETATM   10  H   UNL     1      -3.196   7.424 -26.946  1.00  0.00     0.171 HD
HETATM   11  H   UNL     1      -4.401   5.865 -28.167  1.00  0.00     0.164 HD
BRANCH   8  12
HETATM   12  C   UNL     1      -1.207   7.607 -27.508  1.00  0.00     0.069 A 
HETATM   13  C   UNL     1      -0.797   8.884 -27.070  1.00  0.00     0.095 A 
HETATM   14  C   UNL     1       0.568   9.129 -26.876  1.00  0.00     0.039 A 
HETATM   15  C   UNL     1       1.516   8.143 -27.160  1.00  0.00     0.003 A 
HETATM   16  C   UNL     1       1.112   6.907 -27.654  1.00  0.00     0.002 A 
HETATM   17  C   UNL     1      -0.244   6.642 -27.836  1.00  0.00     0.032 A 
BRANCH  13  18
HETATM   18  O   UNL     1      -1.771   9.840 -26.940  1.00  0.00    -0.349 OA
BRANCH  18  19
HETATM   19  C   UNL     1      -1.566  11.099 -27.575  1.00  0.00     0.171 C 
HETATM   20  C   UNL     1      -2.126  11.010 -28.983  1.00  0.00     0.034 C 
ENDBRANCH  18  19
ENDBRANCH  13  18
ENDBRANCH   8  12
ENDBRANCH   5   6
ENDBRANCH   1   5
BRANCH   2  21
HETATM   21  N   UNL     1      -5.330   3.111 -31.988  1.00  0.00    -0.184 NA
HETATM   22  C   UNL     1      -6.109   2.834 -32.984  1.00  0.00     0.150 C 
BRANCH  22  23
HETATM   23  C   UNL     1      -6.245   1.452 -33.489  1.00  0.00    -0.017 A 
HETATM   24  C   UNL     1      -6.800   1.203 -34.746  1.00  0.00     0.015 A 
HETATM   25  C   UNL     1      -6.969  -0.114 -35.193  1.00  0.00     0.030 A 
HETATM   26  C   UNL     1      -6.586  -1.189 -34.390  1.00  0.00     0.034 A 
HETATM   27  C   UNL     1      -6.012  -0.928 -33.137  1.00  0.00     0.030 A 
HETATM   28  C   UNL     1      -5.842   0.387 -32.684  1.00  0.00     0.015 A 
BRANCH  26  29
HETATM   29  N   UNL     1      -6.755  -2.542 -34.751  1.00  0.00    -0.328 N 
HETATM   30  C   UNL     1      -5.765  -3.469 -35.029  1.00  0.00     0.218 C 
HETATM   31  C   UNL     1      -6.332  -4.807 -35.433  1.00  0.00     0.117 C 
HETATM   32  O   UNL     1      -4.553  -3.302 -34.955  1.00  0.00    -0.274 OA
HETATM   33  H   UNL     1      -7.710  -2.866 -34.823  1.00  0.00     0.169 HD
ENDBRANCH  26  29
ENDBRANCH  22  23
ENDBRANCH   2  21
TORSDOF 8
ENDMDL
