MODEL 1
REMARK VINA RESULT:      -9.2      0.000      0.000
REMARK  7 active torsions:
REMARK  status: ('A' for Active; 'I' for Inactive)
REMARK    1  A    between atoms: O_2  and  C_3 
REMARK    2  A    between atoms: C_4  and  O_5 
REMARK    3  A    between atoms: C_7  and  C_8 
REMARK    4  A    between atoms: N_9  and  N_10 
REMARK    5  A    between atoms: C_21  and  C_22 
REMARK       I    between atoms: C_22  and  N_23 
REMARK    6  A    between atoms: N_23  and  C_24 
REMARK    7  A    between atoms: C_31  and  N_32 
ROOT
HETATM    1  N   UNL     1      -7.593   0.841 -33.286  1.00  0.00    -0.197 N 
HETATM    2  C   UNL     1      -6.922  -0.355 -33.494  1.00  0.00     0.183 A 
HETATM    3  C   UNL     1      -5.618  -0.183 -33.048  1.00  0.00     0.125 A 
HETATM    4  N   UNL     1      -4.664  -1.133 -33.238  1.00  0.00    -0.242 NA
HETATM    5  C   UNL     1      -5.109  -2.258 -33.816  1.00  0.00     0.086 A 
HETATM    6  C   UNL     1      -6.456  -2.430 -34.236  1.00  0.00     0.088 A 
HETATM    7  N   UNL     1      -7.390  -1.470 -34.107  1.00  0.00    -0.225 NA
HETATM    8  C   UNL     1      -4.205  -3.296 -34.002  1.00  0.00     0.034 A 
HETATM    9  C   UNL     1      -4.592  -4.508 -34.575  1.00  0.00     0.002 A 
HETATM   10  C   UNL     1      -5.909  -4.685 -34.973  1.00  0.00     0.002 A 
HETATM   11  C   UNL     1      -6.826  -3.645 -34.802  1.00  0.00     0.034 A 
HETATM   12  C   UNL     1      -5.505   1.100 -32.465  1.00  0.00     0.110 C 
HETATM   13  C   UNL     1      -6.781   1.646 -32.465  1.00  0.00     0.143 C 
ENDROOT
BRANCH   1  14
HETATM   14  N   UNL     1      -8.571   1.322 -34.128  1.00  0.00    -0.176 NA
HETATM   15  C   UNL     1      -9.781   1.149 -33.708  1.00  0.00     0.153 C 
BRANCH  15  16
HETATM   16  C   UNL     1     -10.840   2.129 -34.026  1.00  0.00     0.019 A 
HETATM   17  C   UNL     1     -10.746   3.438 -33.546  1.00  0.00     0.113 A 
HETATM   18  C   UNL     1     -11.525   4.446 -34.134  1.00  0.00     0.102 A 
HETATM   19  C   UNL     1     -12.473   4.117 -35.106  1.00  0.00     0.040 A 
HETATM   20  C   UNL     1     -12.612   2.799 -35.536  1.00  0.00     0.004 A 
HETATM   21  C   UNL     1     -11.787   1.807 -35.008  1.00  0.00     0.016 A 
BRANCH  17  22
HETATM   22  O   UNL     1      -9.867   3.735 -32.534  1.00  0.00    -0.352 OA
HETATM   23  C   UNL     1     -10.573   3.731 -31.289  1.00  0.00     0.210 C 
ENDBRANCH  17  22
BRANCH  18  24
HETATM   24  O   UNL     1     -11.446   5.775 -33.805  1.00  0.00    -0.353 OA
HETATM   25  C   UNL     1     -10.629   6.525 -34.706  1.00  0.00     0.210 C 
ENDBRANCH  18  24
ENDBRANCH  15  16
ENDBRANCH   1  14
BRANCH  13  26
HETATM   26  N   UNL     1      -7.161   2.856 -31.959  1.00  0.00    -0.383 N 
HETATM   27  H   UNL     1      -6.607   3.693 -32.100  1.00  0.00     0.157 HD
HETATM   28  H   UNL     1      -8.165   3.069 -31.990  1.00  0.00     0.157 HD
ENDBRANCH  13  26
BRANCH  12  29
HETATM   29  C   UNL     1      -4.313   1.800 -32.009  1.00  0.00     0.258 C 
HETATM   30  N   UNL     1      -4.037   2.962 -32.700  1.00  0.00    -0.352 N 
HETATM   31  H   UNL     1      -4.664   3.188 -33.468  1.00  0.00     0.163 HD
HETATM   32  O   UNL     1      -3.673   1.441 -31.023  1.00  0.00    -0.267 OA
BRANCH  30  33
HETATM   33  C   UNL     1      -3.314   4.054 -32.063  1.00  0.00     0.084 C 
HETATM   34  C   UNL     1      -1.968   4.291 -32.751  1.00  0.00     0.025 C 
HETATM   35  C   UNL     1      -2.110   4.920 -34.136  1.00  0.00     0.002 C 
HETATM   36  C   UNL     1      -2.953   6.191 -34.098  1.00  0.00     0.000 C 
HETATM   37  C   UNL     1      -4.311   5.951 -33.449  1.00  0.00     0.002 C 
HETATM   38  C   UNL     1      -4.168   5.335 -32.056  1.00  0.00     0.025 C 
ENDBRANCH  30  33
ENDBRANCH  12  29
TORSDOF 7
ENDMDL
MODEL 2
REMARK VINA RESULT:      -9.0      3.655      7.672
REMARK  7 active torsions:
REMARK  status: ('A' for Active; 'I' for Inactive)
REMARK    1  A    between atoms: O_2  and  C_3 
REMARK    2  A    between atoms: C_4  and  O_5 
REMARK    3  A    between atoms: C_7  and  C_8 
REMARK    4  A    between atoms: N_9  and  N_10 
REMARK    5  A    between atoms: C_21  and  C_22 
REMARK       I    between atoms: C_22  and  N_23 
REMARK    6  A    between atoms: N_23  and  C_24 
REMARK    7  A    between atoms: C_31  and  N_32 
ROOT
HETATM    1  N   UNL     1      -4.816   2.168 -31.277  1.00  0.00    -0.197 N 
HETATM    2  C   UNL     1      -4.121   3.271 -31.750  1.00  0.00     0.183 A 
HETATM    3  C   UNL     1      -4.582   4.382 -31.057  1.00  0.00     0.125 A 
HETATM    4  N   UNL     1      -4.193   5.643 -31.383  1.00  0.00    -0.242 NA
HETATM    5  C   UNL     1      -3.285   5.706 -32.368  1.00  0.00     0.086 A 
HETATM    6  C   UNL     1      -2.799   4.556 -33.046  1.00  0.00     0.088 A 
HETATM    7  N   UNL     1      -3.226   3.310 -32.768  1.00  0.00    -0.225 NA
HETATM    8  C   UNL     1      -2.802   6.957 -32.729  1.00  0.00     0.034 A 
HETATM    9  C   UNL     1      -1.840   7.109 -33.729  1.00  0.00     0.002 A 
HETATM   10  C   UNL     1      -1.352   5.987 -34.382  1.00  0.00     0.002 A 
HETATM   11  C   UNL     1      -1.837   4.722 -34.036  1.00  0.00     0.034 A 
HETATM   12  C   UNL     1      -5.500   3.952 -30.072  1.00  0.00     0.110 C 
HETATM   13  C   UNL     1      -5.496   2.564 -30.110  1.00  0.00     0.143 C 
ENDROOT
BRANCH   1  14
HETATM   14  N   UNL     1      -5.179   1.100 -32.067  1.00  0.00    -0.176 NA
HETATM   15  C   UNL     1      -4.190   0.429 -32.559  1.00  0.00     0.153 C 
BRANCH  15  16
HETATM   16  C   UNL     1      -4.301  -1.027 -32.784  1.00  0.00     0.019 A 
HETATM   17  C   UNL     1      -5.026  -1.512 -33.876  1.00  0.00     0.113 A 
HETATM   18  C   UNL     1      -4.830  -2.834 -34.303  1.00  0.00     0.102 A 
HETATM   19  C   UNL     1      -4.011  -3.691 -33.564  1.00  0.00     0.040 A 
HETATM   20  C   UNL     1      -3.340  -3.224 -32.435  1.00  0.00     0.004 A 
HETATM   21  C   UNL     1      -3.472  -1.890 -32.053  1.00  0.00     0.016 A 
BRANCH  17  22
HETATM   22  O   UNL     1      -5.889  -0.682 -34.547  1.00  0.00    -0.352 OA
HETATM   23  C   UNL     1      -7.226  -0.949 -34.107  1.00  0.00     0.210 C 
ENDBRANCH  17  22
BRANCH  18  24
HETATM   24  O   UNL     1      -5.417  -3.382 -35.413  1.00  0.00    -0.353 OA
HETATM   25  C   UNL     1      -6.300  -4.462 -35.103  1.00  0.00     0.210 C 
ENDBRANCH  18  24
ENDBRANCH  15  16
ENDBRANCH   1  14
BRANCH  13  26
HETATM   26  N   UNL     1      -6.199   1.714 -29.306  1.00  0.00    -0.383 N 
HETATM   27  H   UNL     1      -6.962   1.148 -29.661  1.00  0.00     0.157 HD
HETATM   28  H   UNL     1      -5.660   1.203 -28.598  1.00  0.00     0.157 HD
ENDBRANCH  13  26
BRANCH  12  29
HETATM   29  C   UNL     1      -6.365   4.746 -29.213  1.00  0.00     0.258 C 
HETATM   30  N   UNL     1      -5.798   5.922 -28.767  1.00  0.00    -0.352 N 
HETATM   31  H   UNL     1      -4.836   6.093 -29.049  1.00  0.00     0.163 HD
HETATM   32  O   UNL     1      -7.537   4.446 -28.996  1.00  0.00    -0.267 OA
BRANCH  30  33
HETATM   33  C   UNL     1      -6.629   7.072 -28.436  1.00  0.00     0.084 C 
HETATM   34  C   UNL     1      -5.884   8.033 -27.507  1.00  0.00     0.025 C 
HETATM   35  C   UNL     1      -4.759   8.790 -28.211  1.00  0.00     0.002 C 
HETATM   36  C   UNL     1      -5.251   9.495 -29.471  1.00  0.00     0.000 C 
HETATM   37  C   UNL     1      -5.959   8.533 -30.418  1.00  0.00     0.002 C 
HETATM   38  C   UNL     1      -7.095   7.787 -29.717  1.00  0.00     0.025 C 
ENDBRANCH  30  33
ENDBRANCH  12  29
TORSDOF 7
ENDMDL
MODEL 3
REMARK VINA RESULT:      -9.0      2.356      7.977
REMARK  7 active torsions:
REMARK  status: ('A' for Active; 'I' for Inactive)
REMARK    1  A    between atoms: O_2  and  C_3 
REMARK    2  A    between atoms: C_4  and  O_5 
REMARK    3  A    between atoms: C_7  and  C_8 
REMARK    4  A    between atoms: N_9  and  N_10 
REMARK    5  A    between atoms: C_21  and  C_22 
REMARK       I    between atoms: C_22  and  N_23 
REMARK    6  A    between atoms: N_23  and  C_24 
REMARK    7  A    between atoms: C_31  and  N_32 
ROOT
HETATM    1  N   UNL     1      -4.012   1.684 -31.495  1.00  0.00    -0.197 N 
HETATM    2  C   UNL     1      -3.593   2.983 -31.744  1.00  0.00     0.183 A 
HETATM    3  C   UNL     1      -4.651   3.828 -31.435  1.00  0.00     0.125 A 
HETATM    4  N   UNL     1      -4.604   5.161 -31.699  1.00  0.00    -0.242 NA
HETATM    5  C   UNL     1      -3.438   5.586 -32.205  1.00  0.00     0.086 A 
HETATM    6  C   UNL     1      -2.352   4.712 -32.484  1.00  0.00     0.088 A 
HETATM    7  N   UNL     1      -2.414   3.382 -32.283  1.00  0.00    -0.225 NA
HETATM    8  C   UNL     1      -3.294   6.943 -32.459  1.00  0.00     0.034 A 
HETATM    9  C   UNL     1      -2.105   7.471 -32.965  1.00  0.00     0.002 A 
HETATM   10  C   UNL     1      -1.039   6.623 -33.225  1.00  0.00     0.002 A 
HETATM   11  C   UNL     1      -1.173   5.253 -32.985  1.00  0.00     0.034 A 
HETATM   12  C   UNL     1      -5.703   3.056 -30.893  1.00  0.00     0.110 C 
HETATM   13  C   UNL     1      -5.221   1.759 -30.777  1.00  0.00     0.143 C 
ENDROOT
BRANCH   1  14
HETATM   14  N   UNL     1      -3.615   0.599 -32.245  1.00  0.00    -0.176 NA
HETATM   15  C   UNL     1      -3.521  -0.509 -31.587  1.00  0.00     0.153 C 
BRANCH  15  16
HETATM   16  C   UNL     1      -3.816  -1.802 -32.238  1.00  0.00     0.019 A 
HETATM   17  C   UNL     1      -4.625  -1.843 -33.376  1.00  0.00     0.113 A 
HETATM   18  C   UNL     1      -4.605  -2.981 -34.197  1.00  0.00     0.102 A 
HETATM   19  C   UNL     1      -3.876  -4.108 -33.808  1.00  0.00     0.040 A 
HETATM   20  C   UNL     1      -3.122  -4.089 -32.636  1.00  0.00     0.004 A 
HETATM   21  C   UNL     1      -3.079  -2.933 -31.858  1.00  0.00     0.016 A 
BRANCH  17  22
HETATM   22  O   UNL     1      -5.399  -0.758 -33.705  1.00  0.00    -0.352 OA
HETATM   23  C   UNL     1      -6.744  -1.000 -33.278  1.00  0.00     0.210 C 
ENDBRANCH  17  22
BRANCH  18  24
HETATM   24  O   UNL     1      -5.285  -3.091 -35.382  1.00  0.00    -0.353 OA
HETATM   25  C   UNL     1      -6.244  -4.151 -35.379  1.00  0.00     0.210 C 
ENDBRANCH  18  24
ENDBRANCH  15  16
ENDBRANCH   1  14
BRANCH  13  26
HETATM   26  N   UNL     1      -5.875   0.678 -30.261  1.00  0.00    -0.383 N 
HETATM   27  H   UNL     1      -5.719  -0.261 -30.612  1.00  0.00     0.157 HD
HETATM   28  H   UNL     1      -6.018   0.672 -29.245  1.00  0.00     0.157 HD
ENDBRANCH  13  26
BRANCH  12  29
HETATM   29  C   UNL     1      -7.066   3.455 -30.574  1.00  0.00     0.258 C 
HETATM   30  N   UNL     1      -7.782   3.941 -31.648  1.00  0.00    -0.352 N 
HETATM   31  H   UNL     1      -7.282   4.003 -32.531  1.00  0.00     0.163 HD
HETATM   32  O   UNL     1      -7.565   3.273 -29.466  1.00  0.00    -0.267 OA
BRANCH  30  33
HETATM   33  C   UNL     1      -9.233   3.824 -31.690  1.00  0.00     0.084 C 
HETATM   34  C   UNL     1      -9.842   4.905 -32.586  1.00  0.00     0.025 C 
HETATM   35  C   UNL     1      -9.573   4.667 -34.072  1.00  0.00     0.002 C 
HETATM   36  C   UNL     1     -10.001   3.270 -34.510  1.00  0.00     0.000 C 
HETATM   37  C   UNL     1      -9.366   2.187 -33.644  1.00  0.00     0.002 C 
HETATM   38  C   UNL     1      -9.647   2.417 -32.159  1.00  0.00     0.025 C 
ENDBRANCH  30  33
ENDBRANCH  12  29
TORSDOF 7
ENDMDL
MODEL 4
REMARK VINA RESULT:      -8.9      1.466      2.190
REMARK  7 active torsions:
REMARK  status: ('A' for Active; 'I' for Inactive)
REMARK    1  A    between atoms: O_2  and  C_3 
REMARK    2  A    between atoms: C_4  and  O_5 
REMARK    3  A    between atoms: C_7  and  C_8 
REMARK    4  A    between atoms: N_9  and  N_10 
REMARK    5  A    between atoms: C_21  and  C_22 
REMARK       I    between atoms: C_22  and  N_23 
REMARK    6  A    between atoms: N_23  and  C_24 
REMARK    7  A    between atoms: C_31  and  N_32 
ROOT
HETATM    1  N   UNL     1      -7.138   1.355 -32.516  1.00  0.00    -0.197 N 
HETATM    2  C   UNL     1      -6.629   0.143 -32.961  1.00  0.00     0.183 A 
HETATM    3  C   UNL     1      -5.251   0.186 -32.798  1.00  0.00     0.125 A 
HETATM    4  N   UNL     1      -4.443  -0.802 -33.266  1.00  0.00    -0.242 NA
HETATM    5  C   UNL     1      -5.094  -1.834 -33.822  1.00  0.00     0.086 A 
HETATM    6  C   UNL     1      -6.508  -1.877 -33.950  1.00  0.00     0.088 A 
HETATM    7  N   UNL     1      -7.310  -0.874 -33.545  1.00  0.00    -0.225 NA
HETATM    8  C   UNL     1      -4.341  -2.906 -34.282  1.00  0.00     0.034 A 
HETATM    9  C   UNL     1      -4.941  -4.029 -34.854  1.00  0.00     0.002 A 
HETATM   10  C   UNL     1      -6.322  -4.081 -34.967  1.00  0.00     0.002 A 
HETATM   11  C   UNL     1      -7.092  -3.004 -34.518  1.00  0.00     0.034 A 
HETATM   12  C   UNL     1      -4.909   1.396 -32.152  1.00  0.00     0.110 C 
HETATM   13  C   UNL     1      -6.106   2.022 -31.830  1.00  0.00     0.143 C 
ENDROOT
BRANCH   1  14
HETATM   14  N   UNL     1      -8.228   1.978 -33.084  1.00  0.00    -0.176 NA
HETATM   15  C   UNL     1      -9.333   1.839 -32.429  1.00  0.00     0.153 C 
BRANCH  15  16
HETATM   16  C   UNL     1     -10.350   2.910 -32.426  1.00  0.00     0.019 A 
HETATM   17  C   UNL     1     -11.633   2.658 -32.920  1.00  0.00     0.113 A 
HETATM   18  C   UNL     1     -12.684   3.525 -32.587  1.00  0.00     0.102 A 
HETATM   19  C   UNL     1     -12.422   4.696 -31.871  1.00  0.00     0.040 A 
HETATM   20  C   UNL     1     -11.129   4.980 -31.435  1.00  0.00     0.004 A 
HETATM   21  C   UNL     1     -10.095   4.082 -31.699  1.00  0.00     0.016 A 
BRANCH  17  22
HETATM   22  O   UNL     1     -11.862   1.545 -33.690  1.00  0.00    -0.352 OA
HETATM   23  C   UNL     1     -11.908   1.935 -35.067  1.00  0.00     0.210 C 
ENDBRANCH  17  22
BRANCH  18  24
HETATM   24  O   UNL     1     -13.993   3.323 -32.939  1.00  0.00    -0.353 OA
HETATM   25  C   UNL     1     -14.747   2.653 -31.927  1.00  0.00     0.210 C 
ENDBRANCH  18  24
ENDBRANCH  15  16
ENDBRANCH   1  14
BRANCH  13  26
HETATM   26  N   UNL     1      -6.266   3.200 -31.158  1.00  0.00    -0.383 N 
HETATM   27  H   UNL     1      -7.165   3.666 -31.102  1.00  0.00     0.157 HD
HETATM   28  H   UNL     1      -5.744   3.300 -30.281  1.00  0.00     0.157 HD
ENDBRANCH  13  26
BRANCH  12  29
HETATM   29  C   UNL     1      -3.593   1.969 -31.912  1.00  0.00     0.258 C 
HETATM   30  N   UNL     1      -3.320   3.097 -32.658  1.00  0.00    -0.352 N 
HETATM   31  H   UNL     1      -4.040   3.387 -33.315  1.00  0.00     0.163 HD
HETATM   32  O   UNL     1      -2.837   1.545 -31.041  1.00  0.00    -0.267 OA
BRANCH  30  33
HETATM   33  C   UNL     1      -2.393   4.108 -32.168  1.00  0.00     0.084 C 
HETATM   34  C   UNL     1      -1.721   4.841 -33.331  1.00  0.00     0.025 C 
HETATM   35  C   UNL     1      -2.672   5.778 -34.074  1.00  0.00     0.002 C 
HETATM   36  C   UNL     1      -3.367   6.750 -33.125  1.00  0.00     0.000 C 
HETATM   37  C   UNL     1      -4.072   6.021 -31.986  1.00  0.00     0.002 C 
HETATM   38  C   UNL     1      -3.116   5.095 -31.234  1.00  0.00     0.025 C 
ENDBRANCH  30  33
ENDBRANCH  12  29
TORSDOF 7
ENDMDL
MODEL 5
REMARK VINA RESULT:      -8.7      2.227      8.133
REMARK  7 active torsions:
REMARK  status: ('A' for Active; 'I' for Inactive)
REMARK    1  A    between atoms: O_2  and  C_3 
REMARK    2  A    between atoms: C_4  and  O_5 
REMARK    3  A    between atoms: C_7  and  C_8 
REMARK    4  A    between atoms: N_9  and  N_10 
REMARK    5  A    between atoms: C_21  and  C_22 
REMARK       I    between atoms: C_22  and  N_23 
REMARK    6  A    between atoms: N_23  and  C_24 
REMARK    7  A    between atoms: C_31  and  N_32 
ROOT
HETATM    1  N   UNL     1      -7.069   4.282 -33.625  1.00  0.00    -0.197 N 
HETATM    2  C   UNL     1      -8.387   4.497 -34.003  1.00  0.00     0.183 A 
HETATM    3  C   UNL     1      -9.068   3.299 -33.832  1.00  0.00     0.125 A 
HETATM    4  N   UNL     1     -10.354   3.142 -34.244  1.00  0.00    -0.242 NA
HETATM    5  C   UNL     1     -10.914   4.249 -34.752  1.00  0.00     0.086 A 
HETATM    6  C   UNL     1     -10.211   5.477 -34.889  1.00  0.00     0.088 A 
HETATM    7  N   UNL     1      -8.919   5.622 -34.540  1.00  0.00    -0.225 NA
HETATM    8  C   UNL     1     -12.242   4.183 -35.152  1.00  0.00     0.034 A 
HETATM    9  C   UNL     1     -12.906   5.296 -35.670  1.00  0.00     0.002 A 
HETATM   10  C   UNL     1     -12.228   6.500 -35.792  1.00  0.00     0.002 A 
HETATM   11  C   UNL     1     -10.887   6.578 -35.403  1.00  0.00     0.034 A 
HETATM   12  C   UNL     1      -8.191   2.359 -33.247  1.00  0.00     0.110 C 
HETATM   13  C   UNL     1      -7.014   3.040 -32.966  1.00  0.00     0.143 C 
ENDROOT
BRANCH   1  14
HETATM   14  N   UNL     1      -5.993   4.893 -34.231  1.00  0.00    -0.176 NA
HETATM   15  C   UNL     1      -5.323   5.692 -33.468  1.00  0.00     0.153 C 
BRANCH  15  16
HETATM   16  C   UNL     1      -3.865   5.857 -33.641  1.00  0.00     0.019 A 
HETATM   17  C   UNL     1      -3.074   6.258 -32.561  1.00  0.00     0.113 A 
HETATM   18  C   UNL     1      -1.686   6.060 -32.611  1.00  0.00     0.102 A 
HETATM   19  C   UNL     1      -1.092   5.580 -33.781  1.00  0.00     0.040 A 
HETATM   20  C   UNL     1      -1.877   5.242 -34.882  1.00  0.00     0.004 A 
HETATM   21  C   UNL     1      -3.263   5.366 -34.809  1.00  0.00     0.016 A 
BRANCH  17  22
HETATM   22  O   UNL     1      -3.662   6.804 -31.448  1.00  0.00    -0.352 OA
HETATM   23  C   UNL     1      -3.541   8.229 -31.509  1.00  0.00     0.210 C 
ENDBRANCH  17  22
BRANCH  18  24
HETATM   24  O   UNL     1      -0.829   6.330 -31.576  1.00  0.00    -0.353 OA
HETATM   25  C   UNL     1       0.019   5.228 -31.250  1.00  0.00     0.210 C 
ENDBRANCH  18  24
ENDBRANCH  15  16
ENDBRANCH   1  14
BRANCH  13  26
HETATM   26  N   UNL     1      -5.899   2.543 -32.355  1.00  0.00    -0.383 N 
HETATM   27  H   UNL     1      -5.467   3.011 -31.566  1.00  0.00     0.157 HD
HETATM   28  H   UNL     1      -5.851   1.523 -32.251  1.00  0.00     0.157 HD
ENDBRANCH  13  26
BRANCH  12  29
HETATM   29  C   UNL     1      -8.387   0.933 -33.026  1.00  0.00     0.258 C 
HETATM   30  N   UNL     1      -7.437   0.130 -33.623  1.00  0.00    -0.352 N 
HETATM   31  H   UNL     1      -6.730   0.607 -34.177  1.00  0.00     0.163 HD
HETATM   32  O   UNL     1      -9.260   0.494 -32.282  1.00  0.00    -0.267 OA
BRANCH  30  33
HETATM   33  C   UNL     1      -7.106  -1.173 -33.065  1.00  0.00     0.084 C 
HETATM   34  C   UNL     1      -7.002  -2.228 -34.169  1.00  0.00     0.025 C 
HETATM   35  C   UNL     1      -5.759  -2.057 -35.041  1.00  0.00     0.002 C 
HETATM   36  C   UNL     1      -4.484  -1.992 -34.206  1.00  0.00     0.000 C 
HETATM   37  C   UNL     1      -4.567  -0.915 -33.130  1.00  0.00     0.002 C 
HETATM   38  C   UNL     1      -5.803  -1.095 -32.248  1.00  0.00     0.025 C 
ENDBRANCH  30  33
ENDBRANCH  12  29
TORSDOF 7
ENDMDL
MODEL 6
REMARK VINA RESULT:      -8.7      2.173      8.162
REMARK  7 active torsions:
REMARK  status: ('A' for Active; 'I' for Inactive)
REMARK    1  A    between atoms: O_2  and  C_3 
REMARK    2  A    between atoms: C_4  and  O_5 
REMARK    3  A    between atoms: C_7  and  C_8 
REMARK    4  A    between atoms: N_9  and  N_10 
REMARK    5  A    between atoms: C_21  and  C_22 
REMARK       I    between atoms: C_22  and  N_23 
REMARK    6  A    between atoms: N_23  and  C_24 
REMARK    7  A    between atoms: C_31  and  N_32 
ROOT
HETATM    1  N   UNL     1      -7.036   2.282 -32.258  1.00  0.00    -0.197 N 
HETATM    2  C   UNL     1      -6.033   3.118 -32.727  1.00  0.00     0.183 A 
HETATM    3  C   UNL     1      -6.626   4.045 -33.574  1.00  0.00     0.125 A 
HETATM    4  N   UNL     1      -5.889   4.924 -34.303  1.00  0.00    -0.242 NA
HETATM    5  C   UNL     1      -4.569   4.864 -34.076  1.00  0.00     0.086 A 
HETATM    6  C   UNL     1      -3.981   3.931 -33.180  1.00  0.00     0.088 A 
HETATM    7  N   UNL     1      -4.700   3.017 -32.501  1.00  0.00    -0.225 NA
HETATM    8  C   UNL     1      -3.751   5.762 -34.748  1.00  0.00     0.034 A 
HETATM    9  C   UNL     1      -2.370   5.781 -34.552  1.00  0.00     0.002 A 
HETATM   10  C   UNL     1      -1.794   4.882 -33.667  1.00  0.00     0.002 A 
HETATM   11  C   UNL     1      -2.604   3.965 -32.992  1.00  0.00     0.034 A 
HETATM   12  C   UNL     1      -8.026   3.846 -33.553  1.00  0.00     0.110 C 
HETATM   13  C   UNL     1      -8.270   2.867 -32.599  1.00  0.00     0.143 C 
ENDROOT
BRANCH   1  14
HETATM   14  N   UNL     1      -6.852   0.941 -32.002  1.00  0.00    -0.176 NA
HETATM   15  C   UNL     1      -6.358   0.264 -32.986  1.00  0.00     0.153 C 
BRANCH  15  16
HETATM   16  C   UNL     1      -5.469  -0.889 -32.739  1.00  0.00     0.019 A 
HETATM   17  C   UNL     1      -5.354  -1.901 -33.697  1.00  0.00     0.113 A 
HETATM   18  C   UNL     1      -4.264  -2.781 -33.643  1.00  0.00     0.102 A 
HETATM   19  C   UNL     1      -3.371  -2.722 -32.570  1.00  0.00     0.040 A 
HETATM   20  C   UNL     1      -3.525  -1.754 -31.579  1.00  0.00     0.004 A 
HETATM   21  C   UNL     1      -4.564  -0.829 -31.670  1.00  0.00     0.016 A 
BRANCH  17  22
HETATM   22  O   UNL     1      -6.283  -1.999 -34.703  1.00  0.00    -0.352 OA
HETATM   23  C   UNL     1      -7.017  -3.217 -34.539  1.00  0.00     0.210 C 
ENDBRANCH  17  22
BRANCH  18  24
HETATM   24  O   UNL     1      -4.004  -3.748 -34.580  1.00  0.00    -0.353 OA
HETATM   25  C   UNL     1      -3.386  -4.911 -34.026  1.00  0.00     0.210 C 
ENDBRANCH  18  24
ENDBRANCH  15  16
ENDBRANCH   1  14
BRANCH  13  26
HETATM   26  N   UNL     1      -9.484   2.383 -32.206  1.00  0.00    -0.383 N 
HETATM   27  H   UNL     1     -10.270   2.326 -32.844  1.00  0.00     0.157 HD
HETATM   28  H   UNL     1      -9.470   1.580 -31.566  1.00  0.00     0.157 HD
ENDBRANCH  13  26
BRANCH  12  29
HETATM   29  C   UNL     1      -9.052   4.451 -34.388  1.00  0.00     0.258 C 
HETATM   30  N   UNL     1     -10.080   3.598 -34.733  1.00  0.00    -0.352 N 
HETATM   31  H   UNL     1      -9.999   2.639 -34.403  1.00  0.00     0.163 HD
HETATM   32  O   UNL     1      -9.054   5.647 -34.670  1.00  0.00    -0.267 OA
BRANCH  30  33
HETATM   33  C   UNL     1     -11.412   4.113 -35.017  1.00  0.00     0.084 C 
HETATM   34  C   UNL     1     -12.131   3.233 -36.042  1.00  0.00     0.025 C 
HETATM   35  C   UNL     1     -12.552   1.879 -35.472  1.00  0.00     0.002 C 
HETATM   36  C   UNL     1     -13.369   2.030 -34.192  1.00  0.00     0.000 C 
HETATM   37  C   UNL     1     -12.640   2.875 -33.153  1.00  0.00     0.002 C 
HETATM   38  C   UNL     1     -12.231   4.235 -33.719  1.00  0.00     0.025 C 
ENDBRANCH  30  33
ENDBRANCH  12  29
TORSDOF 7
ENDMDL
MODEL 7
REMARK VINA RESULT:      -8.6      2.224      3.505
REMARK  7 active torsions:
REMARK  status: ('A' for Active; 'I' for Inactive)
REMARK    1  A    between atoms: O_2  and  C_3 
REMARK    2  A    between atoms: C_4  and  O_5 
REMARK    3  A    between atoms: C_7  and  C_8 
REMARK    4  A    between atoms: N_9  and  N_10 
REMARK    5  A    between atoms: C_21  and  C_22 
REMARK       I    between atoms: C_22  and  N_23 
REMARK    6  A    between atoms: N_23  and  C_24 
REMARK    7  A    between atoms: C_31  and  N_32 
ROOT
HETATM    1  N   UNL     1      -8.506   3.167 -30.221  1.00  0.00    -0.197 N 
HETATM    2  C   UNL     1      -7.879   2.243 -31.044  1.00  0.00     0.183 A 
HETATM    3  C   UNL     1      -6.574   2.677 -31.237  1.00  0.00     0.125 A 
HETATM    4  N   UNL     1      -5.734   2.058 -32.108  1.00  0.00    -0.242 NA
HETATM    5  C   UNL     1      -6.249   0.969 -32.696  1.00  0.00     0.086 A 
HETATM    6  C   UNL     1      -7.576   0.519 -32.462  1.00  0.00     0.088 A 
HETATM    7  N   UNL     1      -8.433   1.163 -31.648  1.00  0.00    -0.225 NA
HETATM    8  C   UNL     1      -5.437   0.253 -33.566  1.00  0.00     0.034 A 
HETATM    9  C   UNL     1      -5.887  -0.905 -34.202  1.00  0.00     0.002 A 
HETATM   10  C   UNL     1      -7.178  -1.355 -33.965  1.00  0.00     0.002 A 
HETATM   11  C   UNL     1      -8.010  -0.638 -33.100  1.00  0.00     0.034 A 
HETATM   12  C   UNL     1      -6.358   3.828 -30.445  1.00  0.00     0.110 C 
HETATM   13  C   UNL     1      -7.511   4.009 -29.692  1.00  0.00     0.143 C 
ENDROOT
BRANCH   1  14
HETATM   14  N   UNL     1      -9.837   3.505 -30.332  1.00  0.00    -0.176 NA
HETATM   15  C   UNL     1     -10.182   3.979 -31.484  1.00  0.00     0.153 C 
BRANCH  15  16
HETATM   16  C   UNL     1     -11.532   3.731 -32.030  1.00  0.00     0.019 A 
HETATM   17  C   UNL     1     -11.690   2.942 -33.173  1.00  0.00     0.113 A 
HETATM   18  C   UNL     1     -12.952   2.406 -33.472  1.00  0.00     0.102 A 
HETATM   19  C   UNL     1     -14.061   2.762 -32.701  1.00  0.00     0.040 A 
HETATM   20  C   UNL     1     -13.913   3.603 -31.600  1.00  0.00     0.004 A 
HETATM   21  C   UNL     1     -12.648   4.077 -31.255  1.00  0.00     0.016 A 
BRANCH  17  22
HETATM   22  O   UNL     1     -10.607   2.665 -33.968  1.00  0.00    -0.352 OA
HETATM   23  C   UNL     1     -10.497   3.677 -34.974  1.00  0.00     0.210 C 
ENDBRANCH  17  22
BRANCH  18  24
HETATM   24  O   UNL     1     -13.200   1.548 -34.511  1.00  0.00    -0.353 OA
HETATM   25  C   UNL     1     -13.826   0.333 -34.095  1.00  0.00     0.210 C 
ENDBRANCH  18  24
ENDBRANCH  15  16
ENDBRANCH   1  14
BRANCH  13  26
HETATM   26  N   UNL     1      -7.740   4.973 -28.753  1.00  0.00    -0.383 N 
HETATM   27  H   UNL     1      -7.527   5.950 -28.925  1.00  0.00     0.157 HD
HETATM   28  H   UNL     1      -8.598   4.875 -28.198  1.00  0.00     0.157 HD
ENDBRANCH  13  26
BRANCH  12  29
HETATM   29  C   UNL     1      -5.217   4.731 -30.429  1.00  0.00     0.258 C 
HETATM   30  N   UNL     1      -4.462   4.714 -31.583  1.00  0.00    -0.352 N 
HETATM   31  H   UNL     1      -4.754   4.055 -32.301  1.00  0.00     0.163 HD
HETATM   32  O   UNL     1      -5.011   5.519 -29.508  1.00  0.00    -0.267 OA
BRANCH  30  33
HETATM   33  C   UNL     1      -3.706   5.887 -31.997  1.00  0.00     0.084 C 
HETATM   34  C   UNL     1      -2.209   5.685 -31.755  1.00  0.00     0.025 C 
HETATM   35  C   UNL     1      -1.579   4.684 -32.722  1.00  0.00     0.002 C 
HETATM   36  C   UNL     1      -1.868   5.041 -34.177  1.00  0.00     0.000 C 
HETATM   37  C   UNL     1      -3.362   5.205 -34.432  1.00  0.00     0.002 C 
HETATM   38  C   UNL     1      -3.989   6.218 -33.474  1.00  0.00     0.025 C 
ENDBRANCH  30  33
ENDBRANCH  12  29
TORSDOF 7
ENDMDL
MODEL 8
REMARK VINA RESULT:      -8.6      2.978      7.859
REMARK  7 active torsions:
REMARK  status: ('A' for Active; 'I' for Inactive)
REMARK    1  A    between atoms: O_2  and  C_3 
REMARK    2  A    between atoms: C_4  and  O_5 
REMARK    3  A    between atoms: C_7  and  C_8 
REMARK    4  A    between atoms: N_9  and  N_10 
REMARK    5  A    between atoms: C_21  and  C_22 
REMARK       I    between atoms: C_22  and  N_23 
REMARK    6  A    between atoms: N_23  and  C_24 
REMARK    7  A    between atoms: C_31  and  N_32 
ROOT
HETATM    1  N   UNL     1      -3.902   3.866 -32.163  1.00  0.00    -0.197 N 
HETATM    2  C   UNL     1      -4.279   2.594 -32.569  1.00  0.00     0.183 A 
HETATM    3  C   UNL     1      -5.633   2.638 -32.871  1.00  0.00     0.125 A 
HETATM    4  N   UNL     1      -6.337   1.515 -33.171  1.00  0.00    -0.242 NA
HETATM    5  C   UNL     1      -5.602   0.395 -33.220  1.00  0.00     0.086 A 
HETATM    6  C   UNL     1      -4.208   0.373 -32.941  1.00  0.00     0.088 A 
HETATM    7  N   UNL     1      -3.518   1.472 -32.582  1.00  0.00    -0.225 NA
HETATM    8  C   UNL     1      -6.239  -0.789 -33.567  1.00  0.00     0.034 A 
HETATM    9  C   UNL     1      -5.543  -1.994 -33.662  1.00  0.00     0.002 A 
HETATM   10  C   UNL     1      -4.180  -2.017 -33.405  1.00  0.00     0.002 A 
HETATM   11  C   UNL     1      -3.527  -0.835 -33.044  1.00  0.00     0.034 A 
HETATM   12  C   UNL     1      -6.081   3.973 -32.749  1.00  0.00     0.110 C 
HETATM   13  C   UNL     1      -4.956   4.743 -32.482  1.00  0.00     0.143 C 
ENDROOT
BRANCH   1  14
HETATM   14  N   UNL     1      -2.953   4.107 -31.195  1.00  0.00    -0.176 NA
HETATM   15  C   UNL     1      -1.829   4.566 -31.639  1.00  0.00     0.153 C 
BRANCH  15  16
HETATM   16  C   UNL     1      -1.023   5.504 -30.831  1.00  0.00     0.019 A 
HETATM   17  C   UNL     1      -1.454   6.821 -30.652  1.00  0.00     0.113 A 
HETATM   18  C   UNL     1      -0.911   7.589 -29.611  1.00  0.00     0.102 A 
HETATM   19  C   UNL     1       0.138   7.080 -28.842  1.00  0.00     0.040 A 
HETATM   20  C   UNL     1       0.613   5.788 -29.066  1.00  0.00     0.004 A 
HETATM   21  C   UNL     1       0.024   4.994 -30.049  1.00  0.00     0.016 A 
BRANCH  17  22
HETATM   22  O   UNL     1      -2.430   7.338 -31.466  1.00  0.00    -0.352 OA
HETATM   23  C   UNL     1      -1.811   7.966 -32.594  1.00  0.00     0.210 C 
ENDBRANCH  17  22
BRANCH  18  24
HETATM   24  O   UNL     1      -1.324   8.856 -29.289  1.00  0.00    -0.353 OA
HETATM   25  C   UNL     1      -2.210   8.886 -28.168  1.00  0.00     0.210 C 
ENDBRANCH  18  24
ENDBRANCH  15  16
ENDBRANCH   1  14
BRANCH  13  26
HETATM   26  N   UNL     1      -4.901   6.098 -32.329  1.00  0.00    -0.383 N 
HETATM   27  H   UNL     1      -4.916   6.535 -31.414  1.00  0.00     0.157 HD
HETATM   28  H   UNL     1      -4.278   6.605 -32.969  1.00  0.00     0.157 HD
ENDBRANCH  13  26
BRANCH  12  29
HETATM   29  C   UNL     1      -7.438   4.495 -32.802  1.00  0.00     0.258 C 
HETATM   30  N   UNL     1      -8.291   3.781 -33.618  1.00  0.00    -0.352 N 
HETATM   31  H   UNL     1      -7.881   2.998 -34.120  1.00  0.00     0.163 HD
HETATM   32  O   UNL     1      -7.816   5.427 -32.094  1.00  0.00    -0.267 OA
BRANCH  30  33
HETATM   33  C   UNL     1      -9.723   3.754 -33.358  1.00  0.00     0.084 C 
HETATM   34  C   UNL     1     -10.474   3.080 -34.509  1.00  0.00     0.025 C 
HETATM   35  C   UNL     1     -10.246   1.570 -34.564  1.00  0.00     0.002 C 
HETATM   36  C   UNL     1     -10.551   0.900 -33.228  1.00  0.00     0.000 C 
HETATM   37  C   UNL     1      -9.775   1.543 -32.084  1.00  0.00     0.002 C 
HETATM   38  C   UNL     1     -10.015   3.052 -32.019  1.00  0.00     0.025 C 
ENDBRANCH  30  33
ENDBRANCH  12  29
TORSDOF 7
ENDMDL
MODEL 9
REMARK VINA RESULT:      -8.5      3.310      6.605
REMARK  7 active torsions:
REMARK  status: ('A' for Active; 'I' for Inactive)
REMARK    1  A    between atoms: O_2  and  C_3 
REMARK    2  A    between atoms: C_4  and  O_5 
REMARK    3  A    between atoms: C_7  and  C_8 
REMARK    4  A    between atoms: N_9  and  N_10 
REMARK    5  A    between atoms: C_21  and  C_22 
REMARK       I    between atoms: C_22  and  N_23 
REMARK    6  A    between atoms: N_23  and  C_24 
REMARK    7  A    between atoms: C_31  and  N_32 
ROOT
HETATM    1  N   UNL     1     -10.631   5.658 -33.390  1.00  0.00    -0.197 N 
HETATM    2  C   UNL     1     -11.184   4.385 -33.371  1.00  0.00     0.183 A 
HETATM    3  C   UNL     1     -10.139   3.477 -33.478  1.00  0.00     0.125 A 
HETATM    4  N   UNL     1     -10.361   2.144 -33.624  1.00  0.00    -0.242 NA
HETATM    5  C   UNL     1     -11.653   1.788 -33.582  1.00  0.00     0.086 A 
HETATM    6  C   UNL     1     -12.709   2.729 -33.438  1.00  0.00     0.088 A 
HETATM    7  N   UNL     1     -12.499   4.056 -33.355  1.00  0.00    -0.225 NA
HETATM    8  C   UNL     1     -11.961   0.438 -33.677  1.00  0.00     0.034 A 
HETATM    9  C   UNL     1     -13.279  -0.019 -33.619  1.00  0.00     0.002 A 
HETATM   10  C   UNL     1     -14.311   0.895 -33.464  1.00  0.00     0.002 A 
HETATM   11  C   UNL     1     -14.017   2.259 -33.378  1.00  0.00     0.034 A 
HETATM   12  C   UNL     1      -8.918   4.188 -33.461  1.00  0.00     0.110 C 
HETATM   13  C   UNL     1      -9.240   5.518 -33.230  1.00  0.00     0.143 C 
ENDROOT
BRANCH   1  14
HETATM   14  N   UNL     1     -11.245   6.746 -33.970  1.00  0.00    -0.176 NA
HETATM   15  C   UNL     1     -11.216   6.760 -35.262  1.00  0.00     0.153 C 
BRANCH  15  16
HETATM   16  C   UNL     1     -12.327   7.351 -36.037  1.00  0.00     0.019 A 
HETATM   17  C   UNL     1     -12.136   8.549 -36.730  1.00  0.00     0.113 A 
HETATM   18  C   UNL     1     -13.036   8.912 -37.742  1.00  0.00     0.102 A 
HETATM   19  C   UNL     1     -14.181   8.142 -37.967  1.00  0.00     0.040 A 
HETATM   20  C   UNL     1     -14.405   6.982 -37.228  1.00  0.00     0.004 A 
HETATM   21  C   UNL     1     -13.472   6.577 -36.273  1.00  0.00     0.016 A 
BRANCH  17  22
HETATM   22  O   UNL     1     -11.049   9.338 -36.445  1.00  0.00    -0.352 OA
HETATM   23  C   UNL     1     -11.436  10.334 -35.492  1.00  0.00     0.210 C 
ENDBRANCH  17  22
BRANCH  18  24
HETATM   24  O   UNL     1     -12.894  10.014 -38.545  1.00  0.00    -0.353 OA
HETATM   25  C   UNL     1     -12.122   9.755 -39.719  1.00  0.00     0.210 C 
ENDBRANCH  18  24
ENDBRANCH  15  16
ENDBRANCH   1  14
BRANCH  13  26
HETATM   26  N   UNL     1      -8.375   6.565 -33.091  1.00  0.00    -0.383 N 
HETATM   27  H   UNL     1      -8.665   7.451 -32.692  1.00  0.00     0.157 HD
HETATM   28  H   UNL     1      -7.416   6.330 -32.808  1.00  0.00     0.157 HD
ENDBRANCH  13  26
BRANCH  12  29
HETATM   29  C   UNL     1      -7.569   3.701 -33.709  1.00  0.00     0.258 C 
HETATM   30  N   UNL     1      -7.385   2.364 -33.422  1.00  0.00    -0.352 N 
HETATM   31  H   UNL     1      -8.188   1.872 -33.039  1.00  0.00     0.163 HD
HETATM   32  O   UNL     1      -6.701   4.398 -34.230  1.00  0.00    -0.267 OA
BRANCH  30  33
HETATM   33  C   UNL     1      -6.374   1.584 -34.122  1.00  0.00     0.084 C 
HETATM   34  C   UNL     1      -5.643   0.648 -33.158  1.00  0.00     0.025 C 
HETATM   35  C   UNL     1      -6.512  -0.518 -32.687  1.00  0.00     0.002 C 
HETATM   36  C   UNL     1      -7.120  -1.283 -33.858  1.00  0.00     0.000 C 
HETATM   37  C   UNL     1      -7.882  -0.360 -34.802  1.00  0.00     0.002 C 
HETATM   38  C   UNL     1      -7.008   0.799 -35.285  1.00  0.00     0.025 C 
ENDBRANCH  30  33
ENDBRANCH  12  29
TORSDOF 7
ENDMDL
MODEL 10
REMARK VINA RESULT:      -8.4      3.452      7.887
REMARK  7 active torsions:
REMARK  status: ('A' for Active; 'I' for Inactive)
REMARK    1  A    between atoms: O_2  and  C_3 
REMARK    2  A    between atoms: C_4  and  O_5 
REMARK    3  A    between atoms: C_7  and  C_8 
REMARK    4  A    between atoms: N_9  and  N_10 
REMARK    5  A    between atoms: C_21  and  C_22 
REMARK       I    between atoms: C_22  and  N_23 
REMARK    6  A    between atoms: N_23  and  C_24 
REMARK    7  A    between atoms: C_31  and  N_32 
ROOT
HETATM    1  N   UNL     1      -4.691   3.041 -31.698  1.00  0.00    -0.197 N 
HETATM    2  C   UNL     1      -3.700   3.959 -31.381  1.00  0.00     0.183 A 
HETATM    3  C   UNL     1      -4.324   5.075 -30.842  1.00  0.00     0.125 A 
HETATM    4  N   UNL     1      -3.636   6.211 -30.553  1.00  0.00    -0.242 NA
HETATM    5  C   UNL     1      -2.315   6.129 -30.763  1.00  0.00     0.086 A 
HETATM    6  C   UNL     1      -1.687   4.965 -31.284  1.00  0.00     0.088 A 
HETATM    7  N   UNL     1      -2.371   3.859 -31.630  1.00  0.00    -0.225 NA
HETATM    8  C   UNL     1      -1.534   7.233 -30.447  1.00  0.00     0.034 A 
HETATM    9  C   UNL     1      -0.149   7.222 -30.614  1.00  0.00     0.002 A 
HETATM   10  C   UNL     1       0.469   6.083 -31.109  1.00  0.00     0.002 A 
HETATM   11  C   UNL     1      -0.305   4.967 -31.441  1.00  0.00     0.034 A 
HETATM   12  C   UNL     1      -5.708   4.810 -30.729  1.00  0.00     0.110 C 
HETATM   13  C   UNL     1      -5.886   3.484 -31.100  1.00  0.00     0.143 C 
ENDROOT
BRANCH   1  14
HETATM   14  N   UNL     1      -4.628   2.197 -32.785  1.00  0.00    -0.176 NA
HETATM   15  C   UNL     1      -4.680   0.938 -32.497  1.00  0.00     0.153 C 
BRANCH  15  16
HETATM   16  C   UNL     1      -5.317  -0.023 -33.420  1.00  0.00     0.019 A 
HETATM   17  C   UNL     1      -4.723  -1.266 -33.654  1.00  0.00     0.113 A 
HETATM   18  C   UNL     1      -5.487  -2.301 -34.215  1.00  0.00     0.102 A 
HETATM   19  C   UNL     1      -6.791  -2.050 -34.648  1.00  0.00     0.040 A 
HETATM   20  C   UNL     1      -7.360  -0.790 -34.473  1.00  0.00     0.004 A 
HETATM   21  C   UNL     1      -6.631   0.220 -33.847  1.00  0.00     0.016 A 
BRANCH  17  22
HETATM   22  O   UNL     1      -3.415  -1.477 -33.298  1.00  0.00    -0.352 OA
HETATM   23  C   UNL     1      -3.380  -2.186 -32.054  1.00  0.00     0.210 C 
ENDBRANCH  17  22
BRANCH  18  24
HETATM   24  O   UNL     1      -5.034  -3.581 -34.402  1.00  0.00    -0.353 OA
HETATM   25  C   UNL     1      -6.025  -4.449 -34.956  1.00  0.00     0.210 C 
ENDBRANCH  18  24
ENDBRANCH  15  16
ENDBRANCH   1  14
BRANCH  13  26
HETATM   26  N   UNL     1      -7.054   2.777 -31.104  1.00  0.00    -0.383 N 
HETATM   27  H   UNL     1      -7.127   1.866 -31.543  1.00  0.00     0.157 HD
HETATM   28  H   UNL     1      -7.616   2.819 -30.246  1.00  0.00     0.157 HD
ENDBRANCH  13  26
BRANCH  12  29
HETATM   29  C   UNL     1      -6.792   5.716 -30.379  1.00  0.00     0.258 C 
HETATM   30  N   UNL     1      -6.466   6.645 -29.412  1.00  0.00    -0.352 N 
HETATM   31  H   UNL     1      -5.528   6.579 -29.023  1.00  0.00     0.163 HD
HETATM   32  O   UNL     1      -7.868   5.719 -30.972  1.00  0.00    -0.267 OA
BRANCH  30  33
HETATM   33  C   UNL     1      -7.139   7.935 -29.361  1.00  0.00     0.084 C 
HETATM   34  C   UNL     1      -7.347   8.385 -27.913  1.00  0.00     0.025 C 
HETATM   35  C   UNL     1      -6.047   8.805 -27.229  1.00  0.00     0.002 C 
HETATM   36  C   UNL     1      -5.291   9.854 -28.039  1.00  0.00     0.000 C 
HETATM   37  C   UNL     1      -5.047   9.393 -29.472  1.00  0.00     0.002 C 
HETATM   38  C   UNL     1      -6.350   8.987 -30.162  1.00  0.00     0.025 C 
ENDBRANCH  30  33
ENDBRANCH  12  29
TORSDOF 7
ENDMDL
