MODEL 1
REMARK VINA RESULT:      -8.7      0.000      0.000
REMARK  4 active torsions:
REMARK  status: ('A' for Active; 'I' for Inactive)
REMARK    1  A    between atoms: C_9  and  C_10 
REMARK       I    between atoms: C_10  and  N_11 
REMARK    2  A    between atoms: N_11  and  C_12 
REMARK    3  A    between atoms: C_12  and  C_13 
REMARK    4  A    between atoms: C_14  and  O_15 
ROOT
HETATM    1  C   UNL     1      -4.872   2.593 -32.275  1.00  0.00     0.273 C 
HETATM    2  N   UNL     1      -4.397   1.382 -32.722  1.00  0.00    -0.347 N 
HETATM    3  O   UNL     1      -5.574   2.739 -31.280  1.00  0.00    -0.266 OA
HETATM    4  H   UNL     1      -3.750   1.454 -33.503  1.00  0.00     0.163 HD
ENDROOT
BRANCH   1   5
HETATM    5  C   UNL     1      -4.429   3.723 -33.110  1.00  0.00     0.157 A 
HETATM    6  C   UNL     1      -3.223   4.473 -32.980  1.00  0.00     0.029 A 
HETATM    7  C   UNL     1      -2.108   4.461 -32.119  1.00  0.00     0.023 A 
HETATM    8  C   UNL     1      -3.269   5.413 -34.002  1.00  0.00     0.063 A 
HETATM    9  C   UNL     1      -1.074   5.392 -32.310  1.00  0.00    -0.061 A 
HETATM   10  C   UNL     1       0.122   5.398 -31.402  1.00  0.00     0.048 C 
HETATM   11  C   UNL     1      -1.159   6.323 -33.355  1.00  0.00     0.009 A 
HETATM   12  C   UNL     1      -2.257   6.353 -34.222  1.00  0.00     0.032 A 
HETATM   13  N   UNL     1      -4.448   5.180 -34.654  1.00  0.00    -0.277 N 
HETATM   14  H   UNL     1      -4.813   5.679 -35.456  1.00  0.00     0.189 HD
HETATM   15  N   UNL     1      -5.176   4.169 -34.147  1.00  0.00    -0.168 NA
ENDBRANCH   1   5
BRANCH   2  16
HETATM   16  C   UNL     1      -4.540   0.084 -32.075  1.00  0.00     0.116 C 
HETATM   17  C   UNL     1      -3.397  -0.279 -31.127  1.00  0.00     0.037 C 
BRANCH  16  18
HETATM   18  C   UNL     1      -4.841  -1.048 -33.049  1.00  0.00    -0.002 A 
HETATM   19  C   UNL     1      -5.936  -0.956 -33.936  1.00  0.00     0.076 A 
HETATM   20  C   UNL     1      -6.209  -2.008 -34.817  1.00  0.00     0.038 A 
HETATM   21  C   UNL     1      -5.420  -3.161 -34.817  1.00  0.00     0.009 A 
HETATM   22  C   UNL     1      -4.350  -3.283 -33.932  1.00  0.00    -0.061 A 
HETATM   23  C   UNL     1      -3.501  -4.519 -33.907  1.00  0.00     0.048 C 
HETATM   24  C   UNL     1      -4.075  -2.231 -33.049  1.00  0.00     0.018 A 
BRANCH  19  25
HETATM   25  O   UNL     1      -6.672   0.200 -33.866  1.00  0.00    -0.355 OA
HETATM   26  C   UNL     1      -7.141   0.753 -35.090  1.00  0.00     0.210 C 
ENDBRANCH  19  25
ENDBRANCH  16  18
ENDBRANCH   2  16
TORSDOF 4
ENDMDL
MODEL 2
REMARK VINA RESULT:      -8.2      1.984      7.763
REMARK  4 active torsions:
REMARK  status: ('A' for Active; 'I' for Inactive)
REMARK    1  A    between atoms: C_9  and  C_10 
REMARK       I    between atoms: C_10  and  N_11 
REMARK    2  A    between atoms: N_11  and  C_12 
REMARK    3  A    between atoms: C_12  and  C_13 
REMARK    4  A    between atoms: C_14  and  O_15 
ROOT
HETATM    1  C   UNL     1      -4.161   2.342 -30.925  1.00  0.00     0.273 C 
HETATM    2  N   UNL     1      -3.314   3.324 -31.384  1.00  0.00    -0.347 N 
HETATM    3  O   UNL     1      -5.132   2.545 -30.203  1.00  0.00    -0.266 OA
HETATM    4  H   UNL     1      -2.622   2.993 -32.050  1.00  0.00     0.163 HD
ENDROOT
BRANCH   1   5
HETATM    5  C   UNL     1      -3.797   1.000 -31.412  1.00  0.00     0.157 A 
HETATM    6  C   UNL     1      -4.475   0.226 -32.400  1.00  0.00     0.029 A 
HETATM    7  C   UNL     1      -5.618   0.388 -33.207  1.00  0.00     0.023 A 
HETATM    8  C   UNL     1      -3.740  -0.947 -32.508  1.00  0.00     0.063 A 
HETATM    9  C   UNL     1      -5.988  -0.634 -34.098  1.00  0.00    -0.061 A 
HETATM   10  C   UNL     1      -7.204  -0.484 -34.966  1.00  0.00     0.048 C 
HETATM   11  C   UNL     1      -5.217  -1.802 -34.177  1.00  0.00     0.009 A 
HETATM   12  C   UNL     1      -4.077  -1.983 -33.384  1.00  0.00     0.032 A 
HETATM   13  N   UNL     1      -2.711  -0.812 -31.617  1.00  0.00    -0.277 N 
HETATM   14  H   UNL     1      -1.974  -1.480 -31.427  1.00  0.00     0.189 HD
HETATM   15  N   UNL     1      -2.711   0.349 -30.937  1.00  0.00    -0.168 NA
ENDBRANCH   1   5
BRANCH   2  16
HETATM   16  C   UNL     1      -3.446   4.763 -31.198  1.00  0.00     0.116 C 
HETATM   17  C   UNL     1      -4.491   5.424 -32.098  1.00  0.00     0.037 C 
BRANCH  16  18
HETATM   18  C   UNL     1      -2.116   5.505 -31.245  1.00  0.00    -0.002 A 
HETATM   19  C   UNL     1      -1.279   5.400 -32.376  1.00  0.00     0.076 A 
HETATM   20  C   UNL     1      -0.054   6.076 -32.401  1.00  0.00     0.038 A 
HETATM   21  C   UNL     1       0.360   6.842 -31.308  1.00  0.00     0.009 A 
HETATM   22  C   UNL     1      -0.441   6.938 -30.171  1.00  0.00    -0.061 A 
HETATM   23  C   UNL     1      -0.006   7.743 -28.982  1.00  0.00     0.048 C 
HETATM   24  C   UNL     1      -1.666   6.261 -30.144  1.00  0.00     0.018 A 
BRANCH  19  25
HETATM   25  O   UNL     1      -1.747   4.619 -33.402  1.00  0.00    -0.355 OA
HETATM   26  C   UNL     1      -1.698   5.163 -34.715  1.00  0.00     0.210 C 
ENDBRANCH  19  25
ENDBRANCH  16  18
ENDBRANCH   2  16
TORSDOF 4
ENDMDL
MODEL 3
REMARK VINA RESULT:      -8.0      2.003      2.741
REMARK  4 active torsions:
REMARK  status: ('A' for Active; 'I' for Inactive)
REMARK    1  A    between atoms: C_9  and  C_10 
REMARK       I    between atoms: C_10  and  N_11 
REMARK    2  A    between atoms: N_11  and  C_12 
REMARK    3  A    between atoms: C_12  and  C_13 
REMARK    4  A    between atoms: C_14  and  O_15 
ROOT
HETATM    1  C   UNL     1      -5.524   4.586 -33.782  1.00  0.00     0.273 C 
HETATM    2  N   UNL     1      -5.329   3.467 -33.007  1.00  0.00    -0.347 N 
HETATM    3  O   UNL     1      -6.610   4.942 -34.227  1.00  0.00    -0.266 OA
HETATM    4  H   UNL     1      -4.385   3.375 -32.642  1.00  0.00     0.163 HD
ENDROOT
BRANCH   1   5
HETATM    5  C   UNL     1      -4.281   5.343 -34.013  1.00  0.00     0.157 A 
HETATM    6  C   UNL     1      -3.533   6.090 -33.055  1.00  0.00     0.029 A 
HETATM    7  C   UNL     1      -3.651   6.385 -31.682  1.00  0.00     0.023 A 
HETATM    8  C   UNL     1      -2.452   6.602 -33.759  1.00  0.00     0.063 A 
HETATM    9  C   UNL     1      -2.679   7.185 -31.059  1.00  0.00    -0.061 A 
HETATM   10  C   UNL     1      -2.786   7.514 -29.598  1.00  0.00     0.048 C 
HETATM   11  C   UNL     1      -1.602   7.681 -31.807  1.00  0.00     0.009 A 
HETATM   12  C   UNL     1      -1.466   7.401 -33.172  1.00  0.00     0.032 A 
HETATM   13  N   UNL     1      -2.610   6.153 -35.041  1.00  0.00    -0.277 N 
HETATM   14  H   UNL     1      -2.003   6.333 -35.832  1.00  0.00     0.189 HD
HETATM   15  N   UNL     1      -3.700   5.390 -35.234  1.00  0.00    -0.168 NA
ENDBRANCH   1   5
BRANCH   2  16
HETATM   16  C   UNL     1      -6.348   2.563 -32.489  1.00  0.00     0.116 C 
HETATM   17  C   UNL     1      -6.165   2.177 -31.021  1.00  0.00     0.037 C 
BRANCH  16  18
HETATM   18  C   UNL     1      -6.574   1.338 -33.367  1.00  0.00    -0.002 A 
HETATM   19  C   UNL     1      -7.719   1.250 -34.189  1.00  0.00     0.076 A 
HETATM   20  C   UNL     1      -7.921   0.114 -34.981  1.00  0.00     0.038 A 
HETATM   21  C   UNL     1      -7.009  -0.945 -34.954  1.00  0.00     0.009 A 
HETATM   22  C   UNL     1      -5.886  -0.888 -34.131  1.00  0.00    -0.061 A 
HETATM   23  C   UNL     1      -4.905  -2.021 -34.078  1.00  0.00     0.048 C 
HETATM   24  C   UNL     1      -5.683   0.248 -33.337  1.00  0.00     0.018 A 
BRANCH  19  25
HETATM   25  O   UNL     1      -8.573   2.322 -34.150  1.00  0.00    -0.355 OA
HETATM   26  C   UNL     1      -9.968   2.051 -34.202  1.00  0.00     0.210 C 
ENDBRANCH  19  25
ENDBRANCH  16  18
ENDBRANCH   2  16
TORSDOF 4
ENDMDL
MODEL 4
REMARK VINA RESULT:      -7.6      2.124      7.821
REMARK  4 active torsions:
REMARK  status: ('A' for Active; 'I' for Inactive)
REMARK    1  A    between atoms: C_9  and  C_10 
REMARK       I    between atoms: C_10  and  N_11 
REMARK    2  A    between atoms: N_11  and  C_12 
REMARK    3  A    between atoms: C_12  and  C_13 
REMARK    4  A    between atoms: C_14  and  O_15 
ROOT
HETATM    1  C   UNL     1      -4.004   2.449 -31.158  1.00  0.00     0.273 C 
HETATM    2  N   UNL     1      -3.182   3.344 -31.801  1.00  0.00    -0.347 N 
HETATM    3  O   UNL     1      -4.907   2.763 -30.389  1.00  0.00    -0.266 OA
HETATM    4  H   UNL     1      -2.554   2.917 -32.477  1.00  0.00     0.163 HD
ENDROOT
BRANCH   1   5
HETATM    5  C   UNL     1      -3.705   1.048 -31.505  1.00  0.00     0.157 A 
HETATM    6  C   UNL     1      -4.406   0.219 -32.431  1.00  0.00     0.029 A 
HETATM    7  C   UNL     1      -5.523   0.362 -33.277  1.00  0.00     0.023 A 
HETATM    8  C   UNL     1      -3.734  -0.997 -32.408  1.00  0.00     0.063 A 
HETATM    9  C   UNL     1      -5.930  -0.720 -34.075  1.00  0.00    -0.061 A 
HETATM   10  C   UNL     1      -7.120  -0.591 -34.983  1.00  0.00     0.048 C 
HETATM   11  C   UNL     1      -5.224  -1.930 -34.023  1.00  0.00     0.009 A 
HETATM   12  C   UNL     1      -4.111  -2.093 -33.188  1.00  0.00     0.032 A 
HETATM   13  N   UNL     1      -2.717  -0.831 -31.509  1.00  0.00    -0.277 N 
HETATM   14  H   UNL     1      -2.022  -1.515 -31.238  1.00  0.00     0.189 HD
HETATM   15  N   UNL     1      -2.666   0.389 -30.944  1.00  0.00    -0.168 NA
ENDBRANCH   1   5
BRANCH   2  16
HETATM   16  C   UNL     1      -3.274   4.798 -31.783  1.00  0.00     0.116 C 
HETATM   17  C   UNL     1      -3.653   5.425 -33.125  1.00  0.00     0.037 C 
BRANCH  16  18
HETATM   18  C   UNL     1      -2.052   5.474 -31.173  1.00  0.00    -0.002 A 
HETATM   19  C   UNL     1      -2.168   6.739 -30.557  1.00  0.00     0.076 A 
HETATM   20  C   UNL     1      -1.036   7.355 -30.011  1.00  0.00     0.038 A 
HETATM   21  C   UNL     1       0.216   6.739 -30.087  1.00  0.00     0.009 A 
HETATM   22  C   UNL     1       0.356   5.502 -30.713  1.00  0.00    -0.061 A 
HETATM   23  C   UNL     1       1.695   4.833 -30.817  1.00  0.00     0.048 C 
HETATM   24  C   UNL     1      -0.776   4.885 -31.260  1.00  0.00     0.018 A 
BRANCH  19  25
HETATM   25  O   UNL     1      -3.427   7.285 -30.535  1.00  0.00    -0.355 OA
HETATM   26  C   UNL     1      -4.004   7.550 -29.262  1.00  0.00     0.210 C 
ENDBRANCH  19  25
ENDBRANCH  16  18
ENDBRANCH   2  16
TORSDOF 4
ENDMDL
MODEL 5
REMARK VINA RESULT:      -7.6      4.934      8.392
REMARK  4 active torsions:
REMARK  status: ('A' for Active; 'I' for Inactive)
REMARK    1  A    between atoms: C_9  and  C_10 
REMARK       I    between atoms: C_10  and  N_11 
REMARK    2  A    between atoms: N_11  and  C_12 
REMARK    3  A    between atoms: C_12  and  C_13 
REMARK    4  A    between atoms: C_14  and  O_15 
ROOT
HETATM    1  C   UNL     1      -9.577   0.895 -33.118  1.00  0.00     0.273 C 
HETATM    2  N   UNL     1      -9.879   2.125 -33.655  1.00  0.00    -0.347 N 
HETATM    3  O   UNL     1     -10.394  -0.001 -32.933  1.00  0.00    -0.266 OA
HETATM    4  H   UNL     1      -9.066   2.710 -33.829  1.00  0.00     0.163 HD
ENDROOT
BRANCH   1   5
HETATM    5  C   UNL     1      -8.146   0.746 -32.800  1.00  0.00     0.157 A 
HETATM    6  C   UNL     1      -7.265  -0.284 -33.245  1.00  0.00     0.029 A 
HETATM    7  C   UNL     1      -7.374  -1.434 -34.053  1.00  0.00     0.023 A 
HETATM    8  C   UNL     1      -6.033   0.027 -32.686  1.00  0.00     0.063 A 
HETATM    9  C   UNL     1      -6.241  -2.235 -34.273  1.00  0.00    -0.061 A 
HETATM   10  C   UNL     1      -6.335  -3.467 -35.128  1.00  0.00     0.048 C 
HETATM   11  C   UNL     1      -5.016  -1.885 -33.690  1.00  0.00     0.009 A 
HETATM   12  C   UNL     1      -4.886  -0.747 -32.884  1.00  0.00     0.032 A 
HETATM   13  N   UNL     1      -6.240   1.173 -31.970  1.00  0.00    -0.277 N 
HETATM   14  H   UNL     1      -5.557   1.688 -31.428  1.00  0.00     0.189 HD
HETATM   15  N   UNL     1      -7.501   1.639 -32.015  1.00  0.00    -0.168 NA
ENDBRANCH   1   5
BRANCH   2  16
HETATM   16  C   UNL     1     -11.161   2.566 -34.188  1.00  0.00     0.116 C 
HETATM   17  C   UNL     1     -11.060   3.631 -35.280  1.00  0.00     0.037 C 
BRANCH  16  18
HETATM   18  C   UNL     1     -12.162   2.962 -33.109  1.00  0.00    -0.002 A 
HETATM   19  C   UNL     1     -11.783   3.841 -32.071  1.00  0.00     0.076 A 
HETATM   20  C   UNL     1     -12.708   4.187 -31.079  1.00  0.00     0.038 A 
HETATM   21  C   UNL     1     -14.000   3.658 -31.095  1.00  0.00     0.009 A 
HETATM   22  C   UNL     1     -14.387   2.769 -32.096  1.00  0.00    -0.061 A 
HETATM   23  C   UNL     1     -15.766   2.178 -32.121  1.00  0.00     0.048 C 
HETATM   24  C   UNL     1     -13.462   2.421 -33.089  1.00  0.00     0.018 A 
BRANCH  19  25
HETATM   25  O   UNL     1     -10.493   4.307 -32.117  1.00  0.00    -0.355 OA
HETATM   26  C   UNL     1      -9.783   4.392 -30.888  1.00  0.00     0.210 C 
ENDBRANCH  19  25
ENDBRANCH  16  18
ENDBRANCH   2  16
TORSDOF 4
ENDMDL
MODEL 6
REMARK VINA RESULT:      -7.6      5.193      8.496
REMARK  4 active torsions:
REMARK  status: ('A' for Active; 'I' for Inactive)
REMARK    1  A    between atoms: C_9  and  C_10 
REMARK       I    between atoms: C_10  and  N_11 
REMARK    2  A    between atoms: N_11  and  C_12 
REMARK    3  A    between atoms: C_12  and  C_13 
REMARK    4  A    between atoms: C_14  and  O_15 
ROOT
HETATM    1  C   UNL     1      -9.701   0.938 -33.246  1.00  0.00     0.273 C 
HETATM    2  N   UNL     1     -10.063   2.129 -33.829  1.00  0.00    -0.347 N 
HETATM    3  O   UNL     1     -10.474   0.012 -33.021  1.00  0.00    -0.266 OA
HETATM    4  H   UNL     1      -9.280   2.745 -34.032  1.00  0.00     0.163 HD
ENDROOT
BRANCH   1   5
HETATM    5  C   UNL     1      -8.263   0.869 -32.932  1.00  0.00     0.157 A 
HETATM    6  C   UNL     1      -7.344  -0.153 -33.315  1.00  0.00     0.029 A 
HETATM    7  C   UNL     1      -7.410  -1.358 -34.041  1.00  0.00     0.023 A 
HETATM    8  C   UNL     1      -6.122   0.245 -32.789  1.00  0.00     0.063 A 
HETATM    9  C   UNL     1      -6.247  -2.126 -34.217  1.00  0.00    -0.061 A 
HETATM   10  C   UNL     1      -6.295  -3.416 -34.985  1.00  0.00     0.048 C 
HETATM   11  C   UNL     1      -5.033  -1.687 -33.670  1.00  0.00     0.009 A 
HETATM   12  C   UNL     1      -4.945  -0.493 -32.945  1.00  0.00     0.032 A 
HETATM   13  N   UNL     1      -6.371   1.429 -32.150  1.00  0.00    -0.277 N 
HETATM   14  H   UNL     1      -5.706   2.007 -31.651  1.00  0.00     0.189 HD
HETATM   15  N   UNL     1      -7.651   1.839 -32.215  1.00  0.00    -0.168 NA
ENDBRANCH   1   5
BRANCH   2  16
HETATM   16  C   UNL     1     -11.368   2.488 -34.371  1.00  0.00     0.116 C 
HETATM   17  C   UNL     1     -11.328   3.558 -35.462  1.00  0.00     0.037 C 
BRANCH  16  18
HETATM   18  C   UNL     1     -12.399   2.818 -33.299  1.00  0.00    -0.002 A 
HETATM   19  C   UNL     1     -13.619   2.111 -33.237  1.00  0.00     0.076 A 
HETATM   20  C   UNL     1     -14.562   2.433 -32.255  1.00  0.00     0.038 A 
HETATM   21  C   UNL     1     -14.318   3.462 -31.343  1.00  0.00     0.009 A 
HETATM   22  C   UNL     1     -13.131   4.190 -31.402  1.00  0.00    -0.061 A 
HETATM   23  C   UNL     1     -12.858   5.309 -30.441  1.00  0.00     0.048 C 
HETATM   24  C   UNL     1     -12.186   3.870 -32.385  1.00  0.00     0.018 A 
BRANCH  19  25
HETATM   25  O   UNL     1     -13.791   1.124 -34.175  1.00  0.00    -0.355 OA
HETATM   26  C   UNL     1     -15.110   0.631 -34.374  1.00  0.00     0.210 C 
ENDBRANCH  19  25
ENDBRANCH  16  18
ENDBRANCH   2  16
TORSDOF 4
ENDMDL
MODEL 7
REMARK VINA RESULT:      -7.5      3.153      7.452
REMARK  4 active torsions:
REMARK  status: ('A' for Active; 'I' for Inactive)
REMARK    1  A    between atoms: C_9  and  C_10 
REMARK       I    between atoms: C_10  and  N_11 
REMARK    2  A    between atoms: N_11  and  C_12 
REMARK    3  A    between atoms: C_12  and  C_13 
REMARK    4  A    between atoms: C_14  and  O_15 
ROOT
HETATM    1  C   UNL     1      -4.346   5.103 -34.430  1.00  0.00     0.273 C 
HETATM    2  N   UNL     1      -3.476   5.518 -33.449  1.00  0.00    -0.347 N 
HETATM    3  O   UNL     1      -4.174   5.281 -35.631  1.00  0.00    -0.266 OA
HETATM    4  H   UNL     1      -3.725   5.201 -32.515  1.00  0.00     0.163 HD
ENDROOT
BRANCH   1   5
HETATM    5  C   UNL     1      -5.518   4.391 -33.890  1.00  0.00     0.157 A 
HETATM    6  C   UNL     1      -5.517   3.222 -33.072  1.00  0.00     0.029 A 
HETATM    7  C   UNL     1      -4.540   2.370 -32.520  1.00  0.00     0.023 A 
HETATM    8  C   UNL     1      -6.857   2.953 -32.824  1.00  0.00     0.063 A 
HETATM    9  C   UNL     1      -4.939   1.275 -31.735  1.00  0.00    -0.061 A 
HETATM   10  C   UNL     1      -3.914   0.353 -31.139  1.00  0.00     0.048 C 
HETATM   11  C   UNL     1      -6.302   1.041 -31.509  1.00  0.00     0.009 A 
HETATM   12  C   UNL     1      -7.289   1.874 -32.048  1.00  0.00     0.032 A 
HETATM   13  N   UNL     1      -7.550   3.933 -33.480  1.00  0.00    -0.277 N 
HETATM   14  H   UNL     1      -8.555   4.052 -33.517  1.00  0.00     0.189 HD
HETATM   15  N   UNL     1      -6.778   4.820 -34.133  1.00  0.00    -0.168 NA
ENDBRANCH   1   5
BRANCH   2  16
HETATM   16  C   UNL     1      -2.172   6.141 -33.631  1.00  0.00     0.116 C 
HETATM   17  C   UNL     1      -1.279   5.450 -34.662  1.00  0.00     0.037 C 
BRANCH  16  18
HETATM   18  C   UNL     1      -1.430   6.387 -32.322  1.00  0.00    -0.002 A 
HETATM   19  C   UNL     1      -1.692   7.545 -31.559  1.00  0.00     0.076 A 
HETATM   20  C   UNL     1      -0.995   7.765 -30.365  1.00  0.00     0.038 A 
HETATM   21  C   UNL     1      -0.027   6.858 -29.928  1.00  0.00     0.009 A 
HETATM   22  C   UNL     1       0.264   5.721 -30.679  1.00  0.00    -0.061 A 
HETATM   23  C   UNL     1       1.311   4.743 -30.234  1.00  0.00     0.048 C 
HETATM   24  C   UNL     1      -0.431   5.499 -31.875  1.00  0.00     0.018 A 
BRANCH  19  25
HETATM   25  O   UNL     1      -2.645   8.394 -32.061  1.00  0.00    -0.355 OA
HETATM   26  C   UNL     1      -3.787   8.650 -31.253  1.00  0.00     0.210 C 
ENDBRANCH  19  25
ENDBRANCH  16  18
ENDBRANCH   2  16
TORSDOF 4
ENDMDL
MODEL 8
REMARK VINA RESULT:      -7.3     16.283     17.413
REMARK  4 active torsions:
REMARK  status: ('A' for Active; 'I' for Inactive)
REMARK    1  A    between atoms: C_9  and  C_10 
REMARK       I    between atoms: C_10  and  N_11 
REMARK    2  A    between atoms: N_11  and  C_12 
REMARK    3  A    between atoms: C_12  and  C_13 
REMARK    4  A    between atoms: C_14  and  O_15 
ROOT
HETATM    1  C   UNL     1      -5.376 -12.687 -39.982  1.00  0.00     0.273 C 
HETATM    2  N   UNL     1      -6.027 -13.416 -39.013  1.00  0.00    -0.347 N 
HETATM    3  O   UNL     1      -5.763 -11.606 -40.413  1.00  0.00    -0.266 OA
HETATM    4  H   UNL     1      -5.517 -14.239 -38.703  1.00  0.00     0.163 HD
ENDROOT
BRANCH   1   5
HETATM    5  C   UNL     1      -4.134 -13.331 -40.444  1.00  0.00     0.157 A 
HETATM    6  C   UNL     1      -3.040 -13.772 -39.642  1.00  0.00     0.029 A 
HETATM    7  C   UNL     1      -2.722 -13.772 -38.269  1.00  0.00     0.023 A 
HETATM    8  C   UNL     1      -2.129 -14.315 -40.539  1.00  0.00     0.063 A 
HETATM    9  C   UNL     1      -1.501 -14.317 -37.840  1.00  0.00    -0.061 A 
HETATM   10  C   UNL     1      -1.142 -14.325 -36.382  1.00  0.00     0.048 C 
HETATM   11  C   UNL     1      -0.611 -14.856 -38.779  1.00  0.00     0.009 A 
HETATM   12  C   UNL     1      -0.906 -14.866 -40.147  1.00  0.00     0.032 A 
HETATM   13  N   UNL     1      -2.707 -14.172 -41.770  1.00  0.00    -0.277 N 
HETATM   14  H   UNL     1      -2.324 -14.459 -42.663  1.00  0.00     0.189 HD
HETATM   15  N   UNL     1      -3.917 -13.585 -41.754  1.00  0.00    -0.168 NA
ENDBRANCH   1   5
BRANCH   2  16
HETATM   16  C   UNL     1      -7.209 -13.024 -38.257  1.00  0.00     0.116 C 
HETATM   17  C   UNL     1      -7.289 -13.623 -36.853  1.00  0.00     0.037 C 
BRANCH  16  18
HETATM   18  C   UNL     1      -8.511 -13.218 -39.025  1.00  0.00    -0.002 A 
HETATM   19  C   UNL     1      -8.971 -14.516 -39.334  1.00  0.00     0.076 A 
HETATM   20  C   UNL     1     -10.163 -14.680 -40.051  1.00  0.00     0.038 A 
HETATM   21  C   UNL     1     -10.894 -13.570 -40.481  1.00  0.00     0.009 A 
HETATM   22  C   UNL     1     -10.444 -12.280 -40.207  1.00  0.00    -0.061 A 
HETATM   23  C   UNL     1     -11.208 -11.076 -40.674  1.00  0.00     0.048 C 
HETATM   24  C   UNL     1      -9.251 -12.114 -39.491  1.00  0.00     0.018 A 
BRANCH  19  25
HETATM   25  O   UNL     1      -8.191 -15.554 -38.891  1.00  0.00    -0.355 OA
HETATM   26  C   UNL     1      -7.753 -16.503 -39.854  1.00  0.00     0.210 C 
ENDBRANCH  19  25
ENDBRANCH  16  18
ENDBRANCH   2  16
TORSDOF 4
ENDMDL
MODEL 9
REMARK VINA RESULT:      -7.2     15.709     17.453
REMARK  4 active torsions:
REMARK  status: ('A' for Active; 'I' for Inactive)
REMARK    1  A    between atoms: C_9  and  C_10 
REMARK       I    between atoms: C_10  and  N_11 
REMARK    2  A    between atoms: N_11  and  C_12 
REMARK    3  A    between atoms: C_12  and  C_13 
REMARK    4  A    between atoms: C_14  and  O_15 
ROOT
HETATM    1  C   UNL     1      -5.243 -12.613 -38.602  1.00  0.00     0.273 C 
HETATM    2  N   UNL     1      -5.816 -13.203 -37.499  1.00  0.00    -0.347 N 
HETATM    3  O   UNL     1      -5.865 -12.007 -39.467  1.00  0.00    -0.266 OA
HETATM    4  H   UNL     1      -5.144 -13.577 -36.834  1.00  0.00     0.163 HD
ENDROOT
BRANCH   1   5
HETATM    5  C   UNL     1      -3.777 -12.764 -38.633  1.00  0.00     0.157 A 
HETATM    6  C   UNL     1      -3.009 -13.554 -39.539  1.00  0.00     0.029 A 
HETATM    7  C   UNL     1      -3.284 -14.408 -40.626  1.00  0.00     0.023 A 
HETATM    8  C   UNL     1      -1.687 -13.353 -39.164  1.00  0.00     0.063 A 
HETATM    9  C   UNL     1      -2.223 -15.034 -41.301  1.00  0.00    -0.061 A 
HETATM   10  C   UNL     1      -2.494 -15.950 -42.460  1.00  0.00     0.048 C 
HETATM   11  C   UNL     1      -0.903 -14.803 -40.890  1.00  0.00     0.009 A 
HETATM   12  C   UNL     1      -0.607 -13.958 -39.814  1.00  0.00     0.032 A 
HETATM   13  N   UNL     1      -1.740 -12.494 -38.101  1.00  0.00    -0.277 N 
HETATM   14  H   UNL     1      -0.959 -12.127 -37.571  1.00  0.00     0.189 HD
HETATM   15  N   UNL     1      -2.982 -12.115 -37.752  1.00  0.00    -0.168 NA
ENDBRANCH   1   5
BRANCH   2  16
HETATM   16  C   UNL     1      -7.214 -13.145 -37.093  1.00  0.00     0.116 C 
HETATM   17  C   UNL     1      -7.460 -13.481 -35.622  1.00  0.00     0.037 C 
BRANCH  16  18
HETATM   18  C   UNL     1      -8.144 -13.929 -38.011  1.00  0.00    -0.002 A 
HETATM   19  C   UNL     1      -7.969 -15.319 -38.188  1.00  0.00     0.076 A 
HETATM   20  C   UNL     1      -8.823 -16.025 -39.043  1.00  0.00     0.038 A 
HETATM   21  C   UNL     1      -9.838 -15.365 -39.740  1.00  0.00     0.009 A 
HETATM   22  C   UNL     1     -10.012 -13.990 -39.599  1.00  0.00    -0.061 A 
HETATM   23  C   UNL     1     -11.086 -13.262 -40.351  1.00  0.00     0.048 C 
HETATM   24  C   UNL     1      -9.158 -13.281 -38.744  1.00  0.00     0.018 A 
BRANCH  19  25
HETATM   25  O   UNL     1      -6.942 -15.891 -37.480  1.00  0.00    -0.355 OA
HETATM   26  C   UNL     1      -7.255 -17.013 -36.664  1.00  0.00     0.210 C 
ENDBRANCH  19  25
ENDBRANCH  16  18
ENDBRANCH   2  16
TORSDOF 4
ENDMDL
MODEL 10
REMARK VINA RESULT:      -7.2      2.110      7.422
REMARK  4 active torsions:
REMARK  status: ('A' for Active; 'I' for Inactive)
REMARK    1  A    between atoms: C_9  and  C_10 
REMARK       I    between atoms: C_10  and  N_11 
REMARK    2  A    between atoms: N_11  and  C_12 
REMARK    3  A    between atoms: C_12  and  C_13 
REMARK    4  A    between atoms: C_14  and  O_15 
ROOT
HETATM    1  C   UNL     1      -4.009   3.225 -32.671  1.00  0.00     0.273 C 
HETATM    2  N   UNL     1      -3.999   4.468 -33.259  1.00  0.00    -0.347 N 
HETATM    3  O   UNL     1      -3.006   2.621 -32.306  1.00  0.00    -0.266 OA
HETATM    4  H   UNL     1      -4.924   4.862 -33.407  1.00  0.00     0.163 HD
ENDROOT
BRANCH   1   5
HETATM    5  C   UNL     1      -5.370   2.686 -32.497  1.00  0.00     0.157 A 
HETATM    6  C   UNL     1      -5.849   1.404 -32.900  1.00  0.00     0.029 A 
HETATM    7  C   UNL     1      -5.309   0.276 -33.548  1.00  0.00     0.023 A 
HETATM    8  C   UNL     1      -7.181   1.376 -32.506  1.00  0.00     0.063 A 
HETATM    9  C   UNL     1      -6.122  -0.846 -33.780  1.00  0.00    -0.061 A 
HETATM   10  C   UNL     1      -5.567  -2.058 -34.471  1.00  0.00     0.048 C 
HETATM   11  C   UNL     1      -7.461  -0.833 -33.365  1.00  0.00     0.009 A 
HETATM   12  C   UNL     1      -8.018   0.277 -32.719  1.00  0.00     0.032 A 
HETATM   13  N   UNL     1      -7.409   2.589 -31.917  1.00  0.00    -0.277 N 
HETATM   14  H   UNL     1      -8.276   2.919 -31.511  1.00  0.00     0.189 HD
HETATM   15  N   UNL     1      -6.341   3.407 -31.892  1.00  0.00    -0.168 NA
ENDBRANCH   1   5
BRANCH   2  16
HETATM   16  C   UNL     1      -2.847   5.336 -33.470  1.00  0.00     0.116 C 
HETATM   17  C   UNL     1      -1.924   4.896 -34.608  1.00  0.00     0.037 C 
BRANCH  16  18
HETATM   18  C   UNL     1      -2.067   5.627 -32.195  1.00  0.00    -0.002 A 
HETATM   19  C   UNL     1      -2.629   6.433 -31.181  1.00  0.00     0.076 A 
HETATM   20  C   UNL     1      -1.896   6.703 -30.020  1.00  0.00     0.038 A 
HETATM   21  C   UNL     1      -0.603   6.199 -29.859  1.00  0.00     0.009 A 
HETATM   22  C   UNL     1      -0.020   5.422 -30.859  1.00  0.00    -0.061 A 
HETATM   23  C   UNL     1       1.372   4.884 -30.711  1.00  0.00     0.048 C 
HETATM   24  C   UNL     1      -0.752   5.151 -32.022  1.00  0.00     0.018 A 
BRANCH  19  25
HETATM   25  O   UNL     1      -3.896   6.902 -31.418  1.00  0.00    -0.355 OA
HETATM   26  C   UNL     1      -4.911   6.547 -30.487  1.00  0.00     0.210 C 
ENDBRANCH  19  25
ENDBRANCH  16  18
ENDBRANCH   2  16
TORSDOF 4
ENDMDL
