MODEL 1
REMARK VINA RESULT:      -8.7      0.000      0.000
REMARK  6 active torsions:
REMARK  status: ('A' for Active; 'I' for Inactive)
REMARK    1  A    between atoms: C_2  and  C_3 
REMARK    2  A    between atoms: C_3  and  C_4 
REMARK    3  A    between atoms: C_3  and  C_10 
REMARK    4  A    between atoms: C_10  and  C_11 
REMARK       I    between atoms: C_11  and  N_12 
REMARK    5  A    between atoms: N_12  and  C_13 
REMARK    6  A    between atoms: C_20  and  C_21 
REMARK       I    between atoms: C_21  and  N_22 
ROOT
HETATM    1  C   UNL     1      -4.127   2.954 -32.586  1.00  0.00     0.035 A 
HETATM    2  C   UNL     1      -2.961   3.392 -31.944  1.00  0.00     0.046 A 
HETATM    3  C   UNL     1      -2.645   4.769 -31.937  1.00  0.00     0.030 A 
HETATM    4  C   UNL     1      -3.498   5.657 -32.581  1.00  0.00     0.063 A 
HETATM    5  N   UNL     1      -2.933   6.890 -32.415  1.00  0.00    -0.277 N 
HETATM    6  H   UNL     1      -3.283   7.777 -32.759  1.00  0.00     0.189 HD
HETATM    7  N   UNL     1      -1.795   6.889 -31.704  1.00  0.00    -0.168 NA
HETATM    8  C   UNL     1      -1.603   5.585 -31.399  1.00  0.00     0.156 A 
HETATM    9  C   UNL     1      -4.665   5.256 -33.232  1.00  0.00     0.034 A 
HETATM   10  C   UNL     1      -4.963   3.889 -33.213  1.00  0.00     0.032 A 
ENDROOT
BRANCH   1  11
HETATM   11  N   UNL     1      -4.541   1.604 -32.639  1.00  0.00    -0.327 N 
HETATM   12  C   UNL     1      -5.445   0.963 -31.811  1.00  0.00     0.223 C 
HETATM   13  O   UNL     1      -6.074   1.475 -30.890  1.00  0.00    -0.273 OA
HETATM   14  H   UNL     1      -4.087   1.043 -33.345  1.00  0.00     0.169 HD
BRANCH  12  15
HETATM   15  C   UNL     1      -5.696  -0.494 -32.178  1.00  0.00     0.116 C 
BRANCH  15  16
HETATM   16  C   UNL     1      -5.888  -0.773 -33.681  1.00  0.00     0.049 C 
BRANCH  16  17
HETATM   17  C   UNL     1      -7.204  -0.162 -34.145  1.00  0.00    -0.027 C 
HETATM   18  C   UNL     1      -7.469   0.454 -35.306  1.00  0.00     0.007 C 
ENDBRANCH  16  17
BRANCH  16  19
HETATM   19  C   UNL     1      -5.694  -2.234 -34.061  1.00  0.00    -0.050 A 
HETATM   20  C   UNL     1      -6.740  -3.010 -34.587  1.00  0.00     0.008 A 
HETATM   21  C   UNL     1      -6.534  -4.349 -34.924  1.00  0.00     0.001 A 
HETATM   22  C   UNL     1      -5.281  -4.932 -34.743  1.00  0.00     0.000 A 
HETATM   23  C   UNL     1      -4.232  -4.174 -34.231  1.00  0.00     0.001 A 
HETATM   24  C   UNL     1      -4.435  -2.834 -33.896  1.00  0.00     0.008 A 
ENDBRANCH  16  19
ENDBRANCH  15  16
ENDBRANCH  12  15
ENDBRANCH   1  11
BRANCH   8  25
HETATM   25  C   UNL     1      -0.446   5.156 -30.601  1.00  0.00     0.270 C 
HETATM   26  N   UNL     1      -0.532   5.483 -29.274  1.00  0.00    -0.365 N 
HETATM   27  H   UNL     1      -1.359   5.969 -28.948  1.00  0.00     0.159 HD
HETATM   28  H   UNL     1       0.208   5.214 -28.646  1.00  0.00     0.159 HD
HETATM   29  O   UNL     1       0.525   4.550 -31.042  1.00  0.00    -0.266 OA
ENDBRANCH   8  25
TORSDOF 6
ENDMDL
MODEL 2
REMARK VINA RESULT:      -8.7      4.811      7.875
REMARK  6 active torsions:
REMARK  status: ('A' for Active; 'I' for Inactive)
REMARK    1  A    between atoms: C_2  and  C_3 
REMARK    2  A    between atoms: C_3  and  C_4 
REMARK    3  A    between atoms: C_3  and  C_10 
REMARK    4  A    between atoms: C_10  and  C_11 
REMARK       I    between atoms: C_11  and  N_12 
REMARK    5  A    between atoms: N_12  and  C_13 
REMARK    6  A    between atoms: C_20  and  C_21 
REMARK       I    between atoms: C_21  and  N_22 
ROOT
HETATM    1  C   UNL     1      -9.451   1.879 -33.911  1.00  0.00     0.035 A 
HETATM    2  C   UNL     1     -10.650   1.154 -33.899  1.00  0.00     0.046 A 
HETATM    3  C   UNL     1     -11.858   1.809 -33.567  1.00  0.00     0.030 A 
HETATM    4  C   UNL     1     -11.822   3.161 -33.247  1.00  0.00     0.063 A 
HETATM    5  N   UNL     1     -13.115   3.503 -32.967  1.00  0.00    -0.277 N 
HETATM    6  H   UNL     1     -13.462   4.414 -32.689  1.00  0.00     0.189 HD
HETATM    7  N   UNL     1     -13.996   2.498 -33.091  1.00  0.00    -0.168 NA
HETATM    8  C   UNL     1     -13.235   1.443 -33.464  1.00  0.00     0.156 A 
HETATM    9  C   UNL     1     -10.647   3.913 -33.246  1.00  0.00     0.034 A 
HETATM   10  C   UNL     1      -9.467   3.245 -33.592  1.00  0.00     0.032 A 
ENDROOT
BRANCH   1  11
HETATM   11  N   UNL     1      -8.195   1.324 -34.242  1.00  0.00    -0.327 N 
HETATM   12  C   UNL     1      -7.348   0.600 -33.422  1.00  0.00     0.223 C 
HETATM   13  O   UNL     1      -7.563   0.286 -32.255  1.00  0.00    -0.273 OA
HETATM   14  H   UNL     1      -7.872   1.520 -35.178  1.00  0.00     0.169 HD
BRANCH  12  15
HETATM   15  C   UNL     1      -6.084   0.109 -34.116  1.00  0.00     0.116 C 
BRANCH  15  16
HETATM   16  C   UNL     1      -5.281  -0.958 -33.347  1.00  0.00     0.049 C 
BRANCH  16  17
HETATM   17  C   UNL     1      -3.846  -0.480 -33.169  1.00  0.00    -0.027 C 
HETATM   18  C   UNL     1      -3.380   0.445 -32.318  1.00  0.00     0.007 C 
ENDBRANCH  16  17
BRANCH  16  19
HETATM   19  C   UNL     1      -5.418  -2.360 -33.925  1.00  0.00    -0.050 A 
HETATM   20  C   UNL     1      -6.592  -2.788 -34.565  1.00  0.00     0.008 A 
HETATM   21  C   UNL     1      -6.690  -4.080 -35.084  1.00  0.00     0.001 A 
HETATM   22  C   UNL     1      -5.617  -4.962 -34.975  1.00  0.00     0.000 A 
HETATM   23  C   UNL     1      -4.442  -4.550 -34.352  1.00  0.00     0.001 A 
HETATM   24  C   UNL     1      -4.341  -3.257 -33.835  1.00  0.00     0.008 A 
ENDBRANCH  16  19
ENDBRANCH  15  16
ENDBRANCH  12  15
ENDBRANCH   1  11
BRANCH   8  25
HETATM   25  C   UNL     1     -13.837   0.127 -33.720  1.00  0.00     0.270 C 
HETATM   26  N   UNL     1     -15.009   0.178 -34.426  1.00  0.00    -0.365 N 
HETATM   27  H   UNL     1     -15.358   1.083 -34.719  1.00  0.00     0.159 HD
HETATM   28  H   UNL     1     -15.486  -0.677 -34.662  1.00  0.00     0.159 HD
HETATM   29  O   UNL     1     -13.362  -0.944 -33.359  1.00  0.00    -0.266 OA
ENDBRANCH   8  25
TORSDOF 6
ENDMDL
MODEL 3
REMARK VINA RESULT:      -8.4      1.181      1.743
REMARK  6 active torsions:
REMARK  status: ('A' for Active; 'I' for Inactive)
REMARK    1  A    between atoms: C_2  and  C_3 
REMARK    2  A    between atoms: C_3  and  C_4 
REMARK    3  A    between atoms: C_3  and  C_10 
REMARK    4  A    between atoms: C_10  and  C_11 
REMARK       I    between atoms: C_11  and  N_12 
REMARK    5  A    between atoms: N_12  and  C_13 
REMARK    6  A    between atoms: C_20  and  C_21 
REMARK       I    between atoms: C_21  and  N_22 
ROOT
HETATM    1  C   UNL     1      -3.860   3.622 -32.640  1.00  0.00     0.035 A 
HETATM    2  C   UNL     1      -2.643   3.846 -31.983  1.00  0.00     0.046 A 
HETATM    3  C   UNL     1      -1.944   5.055 -32.201  1.00  0.00     0.030 A 
HETATM    4  C   UNL     1      -2.481   5.991 -33.077  1.00  0.00     0.063 A 
HETATM    5  N   UNL     1      -1.592   7.029 -33.088  1.00  0.00    -0.277 N 
HETATM    6  H   UNL     1      -1.659   7.887 -33.623  1.00  0.00     0.189 HD
HETATM    7  N   UNL     1      -0.530   6.862 -32.285  1.00  0.00    -0.168 NA
HETATM    8  C   UNL     1      -0.733   5.646 -31.727  1.00  0.00     0.156 A 
HETATM    9  C   UNL     1      -3.688   5.801 -33.749  1.00  0.00     0.034 A 
HETATM   10  C   UNL     1      -4.367   4.601 -33.506  1.00  0.00     0.032 A 
ENDROOT
BRANCH   1  11
HETATM   11  N   UNL     1      -4.641   2.456 -32.481  1.00  0.00    -0.327 N 
HETATM   12  C   UNL     1      -5.307   2.032 -31.345  1.00  0.00     0.223 C 
HETATM   13  O   UNL     1      -5.357   2.624 -30.271  1.00  0.00    -0.273 OA
HETATM   14  H   UNL     1      -4.679   1.851 -33.288  1.00  0.00     0.169 HD
BRANCH  12  15
HETATM   15  C   UNL     1      -6.098   0.745 -31.534  1.00  0.00     0.116 C 
BRANCH  15  16
HETATM   16  C   UNL     1      -6.624   0.496 -32.962  1.00  0.00     0.049 C 
BRANCH  16  17
HETATM   17  C   UNL     1      -8.134   0.691 -32.986  1.00  0.00    -0.027 C 
HETATM   18  C   UNL     1      -9.000   0.584 -31.969  1.00  0.00     0.007 C 
ENDBRANCH  16  17
BRANCH  16  19
HETATM   19  C   UNL     1      -6.141  -0.814 -33.570  1.00  0.00    -0.050 A 
HETATM   20  C   UNL     1      -4.787  -1.187 -33.551  1.00  0.00     0.008 A 
HETATM   21  C   UNL     1      -4.373  -2.393 -34.119  1.00  0.00     0.001 A 
HETATM   22  C   UNL     1      -5.304  -3.245 -34.711  1.00  0.00     0.000 A 
HETATM   23  C   UNL     1      -6.651  -2.894 -34.730  1.00  0.00     0.001 A 
HETATM   24  C   UNL     1      -7.067  -1.689 -34.160  1.00  0.00     0.008 A 
ENDBRANCH  16  19
ENDBRANCH  15  16
ENDBRANCH  12  15
ENDBRANCH   1  11
BRANCH   8  25
HETATM   25  C   UNL     1       0.220   5.089 -30.756  1.00  0.00     0.270 C 
HETATM   26  N   UNL     1      -0.184   5.199 -29.453  1.00  0.00    -0.365 N 
HETATM   27  H   UNL     1      -1.080   5.630 -29.258  1.00  0.00     0.159 HD
HETATM   28  H   UNL     1       0.398   4.830 -28.719  1.00  0.00     0.159 HD
HETATM   29  O   UNL     1       1.286   4.558 -31.046  1.00  0.00    -0.266 OA
ENDBRANCH   8  25
TORSDOF 6
ENDMDL
MODEL 4
REMARK VINA RESULT:      -8.3      5.105      7.994
REMARK  6 active torsions:
REMARK  status: ('A' for Active; 'I' for Inactive)
REMARK    1  A    between atoms: C_2  and  C_3 
REMARK    2  A    between atoms: C_3  and  C_4 
REMARK    3  A    between atoms: C_3  and  C_10 
REMARK    4  A    between atoms: C_10  and  C_11 
REMARK       I    between atoms: C_11  and  N_12 
REMARK    5  A    between atoms: N_12  and  C_13 
REMARK    6  A    between atoms: C_20  and  C_21 
REMARK       I    between atoms: C_21  and  N_22 
ROOT
HETATM    1  C   UNL     1      -9.564   0.957 -33.455  1.00  0.00     0.035 A 
HETATM    2  C   UNL     1     -10.965   0.928 -33.465  1.00  0.00     0.046 A 
HETATM    3  C   UNL     1     -11.687   2.142 -33.517  1.00  0.00     0.030 A 
HETATM    4  C   UNL     1     -10.984   3.340 -33.545  1.00  0.00     0.063 A 
HETATM    5  N   UNL     1     -11.937   4.320 -33.583  1.00  0.00    -0.277 N 
HETATM    6  H   UNL     1     -11.786   5.322 -33.605  1.00  0.00     0.189 HD
HETATM    7  N   UNL     1     -13.200   3.868 -33.598  1.00  0.00    -0.168 NA
HETATM    8  C   UNL     1     -13.064   2.522 -33.560  1.00  0.00     0.156 A 
HETATM    9  C   UNL     1      -9.592   3.407 -33.534  1.00  0.00     0.034 A 
HETATM   10  C   UNL     1      -8.899   2.191 -33.496  1.00  0.00     0.032 A 
ENDROOT
BRANCH   1  11
HETATM   11  N   UNL     1      -8.750  -0.196 -33.418  1.00  0.00    -0.327 N 
HETATM   12  C   UNL     1      -7.872  -0.643 -34.389  1.00  0.00     0.223 C 
HETATM   13  O   UNL     1      -7.626  -0.087 -35.455  1.00  0.00    -0.273 OA
HETATM   14  H   UNL     1      -8.860  -0.774 -32.597  1.00  0.00     0.169 HD
BRANCH  12  15
HETATM   15  C   UNL     1      -7.114  -1.907 -34.004  1.00  0.00     0.116 C 
BRANCH  15  16
HETATM   16  C   UNL     1      -5.651  -1.973 -34.486  1.00  0.00     0.049 C 
BRANCH  16  17
HETATM   17  C   UNL     1      -5.354  -3.370 -35.013  1.00  0.00    -0.027 C 
HETATM   18  C   UNL     1      -6.225  -4.322 -35.377  1.00  0.00     0.007 C 
ENDBRANCH  16  17
BRANCH  16  19
HETATM   19  C   UNL     1      -4.649  -1.450 -33.466  1.00  0.00    -0.050 A 
HETATM   20  C   UNL     1      -4.518  -0.080 -33.188  1.00  0.00     0.008 A 
HETATM   21  C   UNL     1      -3.588   0.370 -32.249  1.00  0.00     0.001 A 
HETATM   22  C   UNL     1      -2.779  -0.540 -31.572  1.00  0.00     0.000 A 
HETATM   23  C   UNL     1      -2.903  -1.902 -31.829  1.00  0.00     0.001 A 
HETATM   24  C   UNL     1      -3.834  -2.355 -32.766  1.00  0.00     0.008 A 
ENDBRANCH  16  19
ENDBRANCH  15  16
ENDBRANCH  12  15
ENDBRANCH   1  11
BRANCH   8  25
HETATM   25  C   UNL     1     -14.240   1.641 -33.575  1.00  0.00     0.270 C 
HETATM   26  N   UNL     1     -14.815   1.457 -32.346  1.00  0.00    -0.365 N 
HETATM   27  H   UNL     1     -14.410   1.931 -31.547  1.00  0.00     0.159 HD
HETATM   28  H   UNL     1     -15.636   0.880 -32.262  1.00  0.00     0.159 HD
HETATM   29  O   UNL     1     -14.703   1.105 -34.577  1.00  0.00    -0.266 OA
ENDBRANCH   8  25
TORSDOF 6
ENDMDL
MODEL 5
REMARK VINA RESULT:      -8.2      1.448      1.894
REMARK  6 active torsions:
REMARK  status: ('A' for Active; 'I' for Inactive)
REMARK    1  A    between atoms: C_2  and  C_3 
REMARK    2  A    between atoms: C_3  and  C_4 
REMARK    3  A    between atoms: C_3  and  C_10 
REMARK    4  A    between atoms: C_10  and  C_11 
REMARK       I    between atoms: C_11  and  N_12 
REMARK    5  A    between atoms: N_12  and  C_13 
REMARK    6  A    between atoms: C_20  and  C_21 
REMARK       I    between atoms: C_21  and  N_22 
ROOT
HETATM    1  C   UNL     1      -5.275   2.972 -31.489  1.00  0.00     0.035 A 
HETATM    2  C   UNL     1      -3.995   3.435 -31.820  1.00  0.00     0.046 A 
HETATM    3  C   UNL     1      -3.557   4.686 -31.328  1.00  0.00     0.030 A 
HETATM    4  C   UNL     1      -4.419   5.434 -30.535  1.00  0.00     0.063 A 
HETATM    5  N   UNL     1      -3.732   6.575 -30.228  1.00  0.00    -0.277 N 
HETATM    6  H   UNL     1      -4.056   7.353 -29.666  1.00  0.00     0.189 HD
HETATM    7  N   UNL     1      -2.491   6.632 -30.736  1.00  0.00    -0.168 NA
HETATM    8  C   UNL     1      -2.366   5.470 -31.418  1.00  0.00     0.156 A 
HETATM    9  C   UNL     1      -5.700   5.006 -30.189  1.00  0.00     0.034 A 
HETATM   10  C   UNL     1      -6.105   3.758 -30.676  1.00  0.00     0.032 A 
ENDROOT
BRANCH   1  11
HETATM   11  N   UNL     1      -5.803   1.734 -31.916  1.00  0.00    -0.327 N 
HETATM   12  C   UNL     1      -5.212   0.486 -31.825  1.00  0.00     0.223 C 
HETATM   13  O   UNL     1      -4.122   0.236 -31.320  1.00  0.00    -0.273 OA
HETATM   14  H   UNL     1      -6.701   1.784 -32.376  1.00  0.00     0.169 HD
BRANCH  12  15
HETATM   15  C   UNL     1      -6.082  -0.651 -32.345  1.00  0.00     0.116 C 
BRANCH  15  16
HETATM   16  C   UNL     1      -5.925  -0.970 -33.844  1.00  0.00     0.049 C 
BRANCH  16  17
HETATM   17  C   UNL     1      -7.136  -0.444 -34.603  1.00  0.00    -0.027 C 
HETATM   18  C   UNL     1      -7.207   0.619 -35.416  1.00  0.00     0.007 C 
ENDBRANCH  16  17
BRANCH  16  19
HETATM   19  C   UNL     1      -5.581  -2.427 -34.126  1.00  0.00    -0.050 A 
HETATM   20  C   UNL     1      -4.326  -2.968 -33.805  1.00  0.00     0.008 A 
HETATM   21  C   UNL     1      -4.037  -4.307 -34.077  1.00  0.00     0.001 A 
HETATM   22  C   UNL     1      -4.998  -5.124 -34.670  1.00  0.00     0.000 A 
HETATM   23  C   UNL     1      -6.250  -4.605 -34.986  1.00  0.00     0.001 A 
HETATM   24  C   UNL     1      -6.541  -3.267 -34.712  1.00  0.00     0.008 A 
ENDBRANCH  16  19
ENDBRANCH  15  16
ENDBRANCH  12  15
ENDBRANCH   1  11
BRANCH   8  25
HETATM   25  C   UNL     1      -1.121   5.136 -32.125  1.00  0.00     0.270 C 
HETATM   26  N   UNL     1      -1.200   5.267 -33.485  1.00  0.00    -0.365 N 
HETATM   27  H   UNL     1      -2.073   5.581 -33.891  1.00  0.00     0.159 HD
HETATM   28  H   UNL     1      -0.390   5.074 -34.052  1.00  0.00     0.159 HD
HETATM   29  O   UNL     1      -0.082   4.778 -31.582  1.00  0.00    -0.266 OA
ENDBRANCH   8  25
TORSDOF 6
ENDMDL
MODEL 6
REMARK VINA RESULT:      -8.2      1.991      3.027
REMARK  6 active torsions:
REMARK  status: ('A' for Active; 'I' for Inactive)
REMARK    1  A    between atoms: C_2  and  C_3 
REMARK    2  A    between atoms: C_3  and  C_4 
REMARK    3  A    between atoms: C_3  and  C_10 
REMARK    4  A    between atoms: C_10  and  C_11 
REMARK       I    between atoms: C_11  and  N_12 
REMARK    5  A    between atoms: N_12  and  C_13 
REMARK    6  A    between atoms: C_20  and  C_21 
REMARK       I    between atoms: C_21  and  N_22 
ROOT
HETATM    1  C   UNL     1      -4.031   3.474 -32.734  1.00  0.00     0.035 A 
HETATM    2  C   UNL     1      -2.822   4.019 -32.279  1.00  0.00     0.046 A 
HETATM    3  C   UNL     1      -2.296   5.171 -32.907  1.00  0.00     0.030 A 
HETATM    4  C   UNL     1      -2.990   5.729 -33.974  1.00  0.00     0.063 A 
HETATM    5  N   UNL     1      -2.244   6.803 -34.371  1.00  0.00    -0.277 N 
HETATM    6  H   UNL     1      -2.446   7.443 -35.130  1.00  0.00     0.189 HD
HETATM    7  N   UNL     1      -1.132   7.006 -33.647  1.00  0.00    -0.168 NA
HETATM    8  C   UNL     1      -1.150   6.006 -32.736  1.00  0.00     0.156 A 
HETATM    9  C   UNL     1      -4.193   5.212 -34.454  1.00  0.00     0.034 A 
HETATM   10  C   UNL     1      -4.700   4.079 -33.807  1.00  0.00     0.032 A 
ENDROOT
BRANCH   1  11
HETATM   11  N   UNL     1      -4.647   2.336 -32.168  1.00  0.00    -0.327 N 
HETATM   12  C   UNL     1      -4.046   1.317 -31.451  1.00  0.00     0.223 C 
HETATM   13  O   UNL     1      -2.858   1.243 -31.154  1.00  0.00    -0.273 OA
HETATM   14  H   UNL     1      -5.637   2.249 -32.349  1.00  0.00     0.169 HD
BRANCH  12  15
HETATM   15  C   UNL     1      -5.018   0.259 -30.944  1.00  0.00     0.116 C 
BRANCH  15  16
HETATM   16  C   UNL     1      -5.403  -0.828 -31.966  1.00  0.00     0.049 C 
BRANCH  16  17
HETATM   17  C   UNL     1      -4.138  -1.425 -32.570  1.00  0.00    -0.027 C 
HETATM   18  C   UNL     1      -3.306  -2.326 -32.029  1.00  0.00     0.007 C 
ENDBRANCH  16  17
BRANCH  16  19
HETATM   19  C   UNL     1      -6.440  -0.371 -32.982  1.00  0.00    -0.050 A 
HETATM   20  C   UNL     1      -6.171  -0.353 -34.360  1.00  0.00     0.008 A 
HETATM   21  C   UNL     1      -7.141   0.074 -35.269  1.00  0.00     0.001 A 
HETATM   22  C   UNL     1      -8.393   0.484 -34.816  1.00  0.00     0.000 A 
HETATM   23  C   UNL     1      -8.679   0.462 -33.454  1.00  0.00     0.001 A 
HETATM   24  C   UNL     1      -7.711   0.034 -32.544  1.00  0.00     0.008 A 
ENDBRANCH  16  19
ENDBRANCH  15  16
ENDBRANCH  12  15
ENDBRANCH   1  11
BRANCH   8  25
HETATM   25  C   UNL     1      -0.088   5.880 -31.728  1.00  0.00     0.270 C 
HETATM   26  N   UNL     1       0.328   7.075 -31.204  1.00  0.00    -0.365 N 
HETATM   27  H   UNL     1      -0.116   7.926 -31.529  1.00  0.00     0.159 HD
HETATM   28  H   UNL     1       1.042   7.086 -30.494  1.00  0.00     0.159 HD
HETATM   29  O   UNL     1       0.403   4.821 -31.355  1.00  0.00    -0.266 OA
ENDBRANCH   8  25
TORSDOF 6
ENDMDL
MODEL 7
REMARK VINA RESULT:      -8.1      1.594      2.194
REMARK  6 active torsions:
REMARK  status: ('A' for Active; 'I' for Inactive)
REMARK    1  A    between atoms: C_2  and  C_3 
REMARK    2  A    between atoms: C_3  and  C_4 
REMARK    3  A    between atoms: C_3  and  C_10 
REMARK    4  A    between atoms: C_10  and  C_11 
REMARK       I    between atoms: C_11  and  N_12 
REMARK    5  A    between atoms: N_12  and  C_13 
REMARK    6  A    between atoms: C_20  and  C_21 
REMARK       I    between atoms: C_21  and  N_22 
ROOT
HETATM    1  C   UNL     1      -4.751   3.771 -33.134  1.00  0.00     0.035 A 
HETATM    2  C   UNL     1      -3.567   4.070 -32.446  1.00  0.00     0.046 A 
HETATM    3  C   UNL     1      -2.662   5.009 -32.990  1.00  0.00     0.030 A 
HETATM    4  C   UNL     1      -2.966   5.607 -34.206  1.00  0.00     0.063 A 
HETATM    5  N   UNL     1      -1.919   6.444 -34.473  1.00  0.00    -0.277 N 
HETATM    6  H   UNL     1      -1.800   7.039 -35.284  1.00  0.00     0.189 HD
HETATM    7  N   UNL     1      -0.964   6.458 -33.530  1.00  0.00    -0.168 NA
HETATM    8  C   UNL     1      -1.409   5.577 -32.604  1.00  0.00     0.156 A 
HETATM    9  C   UNL     1      -4.133   5.332 -34.920  1.00  0.00     0.034 A 
HETATM   10  C   UNL     1      -5.019   4.409 -34.354  1.00  0.00     0.032 A 
ENDROOT
BRANCH   1  11
HETATM   11  N   UNL     1      -5.725   2.860 -32.672  1.00  0.00    -0.327 N 
HETATM   12  C   UNL     1      -6.471   1.967 -33.421  1.00  0.00     0.223 C 
HETATM   13  O   UNL     1      -6.389   1.792 -34.633  1.00  0.00    -0.273 OA
HETATM   14  H   UNL     1      -5.918   2.902 -31.682  1.00  0.00     0.169 HD
BRANCH  12  15
HETATM   15  C   UNL     1      -7.406   1.094 -32.594  1.00  0.00     0.116 C 
BRANCH  15  16
HETATM   16  C   UNL     1      -6.766  -0.170 -31.988  1.00  0.00     0.049 C 
BRANCH  16  17
HETATM   17  C   UNL     1      -5.730   0.236 -30.948  1.00  0.00    -0.027 C 
HETATM   18  C   UNL     1      -5.922   0.513 -29.651  1.00  0.00     0.007 C 
ENDBRANCH  16  17
BRANCH  16  19
HETATM   19  C   UNL     1      -6.268  -1.162 -33.030  1.00  0.00    -0.050 A 
HETATM   20  C   UNL     1      -7.142  -1.807 -33.920  1.00  0.00     0.008 A 
HETATM   21  C   UNL     1      -6.656  -2.713 -34.864  1.00  0.00     0.001 A 
HETATM   22  C   UNL     1      -5.291  -2.986 -34.935  1.00  0.00     0.000 A 
HETATM   23  C   UNL     1      -4.411  -2.348 -34.067  1.00  0.00     0.001 A 
HETATM   24  C   UNL     1      -4.894  -1.439 -33.123  1.00  0.00     0.008 A 
ENDBRANCH  16  19
ENDBRANCH  15  16
ENDBRANCH  12  15
ENDBRANCH   1  11
BRANCH   8  25
HETATM   25  C   UNL     1      -0.640   5.310 -31.380  1.00  0.00     0.270 C 
HETATM   26  N   UNL     1      -1.271   5.698 -30.229  1.00  0.00    -0.365 N 
HETATM   27  H   UNL     1      -2.191   6.115 -30.298  1.00  0.00     0.159 HD
HETATM   28  H   UNL     1      -0.825   5.539 -29.340  1.00  0.00     0.159 HD
HETATM   29  O   UNL     1       0.467   4.782 -31.349  1.00  0.00    -0.266 OA
ENDBRANCH   8  25
TORSDOF 6
ENDMDL
MODEL 8
REMARK VINA RESULT:      -7.9      1.849      2.862
REMARK  6 active torsions:
REMARK  status: ('A' for Active; 'I' for Inactive)
REMARK    1  A    between atoms: C_2  and  C_3 
REMARK    2  A    between atoms: C_3  and  C_4 
REMARK    3  A    between atoms: C_3  and  C_10 
REMARK    4  A    between atoms: C_10  and  C_11 
REMARK       I    between atoms: C_11  and  N_12 
REMARK    5  A    between atoms: N_12  and  C_13 
REMARK    6  A    between atoms: C_20  and  C_21 
REMARK       I    between atoms: C_21  and  N_22 
ROOT
HETATM    1  C   UNL     1      -4.760   2.842 -32.367  1.00  0.00     0.035 A 
HETATM    2  C   UNL     1      -5.410   4.051 -32.082  1.00  0.00     0.046 A 
HETATM    3  C   UNL     1      -4.645   5.207 -31.812  1.00  0.00     0.030 A 
HETATM    4  C   UNL     1      -3.258   5.113 -31.824  1.00  0.00     0.063 A 
HETATM    5  N   UNL     1      -2.805   6.367 -31.523  1.00  0.00    -0.277 N 
HETATM    6  H   UNL     1      -1.841   6.666 -31.439  1.00  0.00     0.189 HD
HETATM    7  N   UNL     1      -3.773   7.277 -31.331  1.00  0.00    -0.168 NA
HETATM    8  C   UNL     1      -4.917   6.577 -31.509  1.00  0.00     0.156 A 
HETATM    9  C   UNL     1      -2.578   3.927 -32.100  1.00  0.00     0.034 A 
HETATM   10  C   UNL     1      -3.359   2.798 -32.378  1.00  0.00     0.032 A 
ENDROOT
BRANCH   1  11
HETATM   11  N   UNL     1      -5.430   1.635 -32.663  1.00  0.00    -0.327 N 
HETATM   12  C   UNL     1      -5.368   0.440 -31.968  1.00  0.00     0.223 C 
HETATM   13  O   UNL     1      -4.731   0.233 -30.940  1.00  0.00    -0.273 OA
HETATM   14  H   UNL     1      -5.986   1.647 -33.506  1.00  0.00     0.169 HD
BRANCH  12  15
HETATM   15  C   UNL     1      -6.258  -0.656 -32.539  1.00  0.00     0.116 C 
BRANCH  15  16
HETATM   16  C   UNL     1      -5.971  -1.045 -34.002  1.00  0.00     0.049 C 
BRANCH  16  17
HETATM   17  C   UNL     1      -7.146  -0.628 -34.876  1.00  0.00    -0.027 C 
HETATM   18  C   UNL     1      -7.437   0.593 -35.346  1.00  0.00     0.007 C 
ENDBRANCH  16  17
BRANCH  16  19
HETATM   19  C   UNL     1      -5.531  -2.493 -34.174  1.00  0.00    -0.050 A 
HETATM   20  C   UNL     1      -6.349  -3.448 -34.798  1.00  0.00     0.008 A 
HETATM   21  C   UNL     1      -5.920  -4.769 -34.940  1.00  0.00     0.001 A 
HETATM   22  C   UNL     1      -4.669  -5.154 -34.464  1.00  0.00     0.000 A 
HETATM   23  C   UNL     1      -3.842  -4.217 -33.851  1.00  0.00     0.001 A 
HETATM   24  C   UNL     1      -4.268  -2.895 -33.710  1.00  0.00     0.008 A 
ENDBRANCH  16  19
ENDBRANCH  15  16
ENDBRANCH  12  15
ENDBRANCH   1  11
BRANCH   8  25
HETATM   25  C   UNL     1      -6.229   7.229 -31.395  1.00  0.00     0.270 C 
HETATM   26  N   UNL     1      -6.925   7.290 -32.573  1.00  0.00    -0.365 N 
HETATM   27  H   UNL     1      -6.507   6.888 -33.403  1.00  0.00     0.159 HD
HETATM   28  H   UNL     1      -7.842   7.705 -32.588  1.00  0.00     0.159 HD
HETATM   29  O   UNL     1      -6.700   7.682 -30.358  1.00  0.00    -0.266 OA
ENDBRANCH   8  25
TORSDOF 6
ENDMDL
MODEL 9
REMARK VINA RESULT:      -7.8      2.144      2.875
REMARK  6 active torsions:
REMARK  status: ('A' for Active; 'I' for Inactive)
REMARK    1  A    between atoms: C_2  and  C_3 
REMARK    2  A    between atoms: C_3  and  C_4 
REMARK    3  A    between atoms: C_3  and  C_10 
REMARK    4  A    between atoms: C_10  and  C_11 
REMARK       I    between atoms: C_11  and  N_12 
REMARK    5  A    between atoms: N_12  and  C_13 
REMARK    6  A    between atoms: C_20  and  C_21 
REMARK       I    between atoms: C_21  and  N_22 
ROOT
HETATM    1  C   UNL     1      -3.454   4.084 -32.457  1.00  0.00     0.035 A 
HETATM    2  C   UNL     1      -3.685   5.303 -31.806  1.00  0.00     0.046 A 
HETATM    3  C   UNL     1      -2.923   6.439 -32.162  1.00  0.00     0.030 A 
HETATM    4  C   UNL     1      -1.950   6.312 -33.145  1.00  0.00     0.063 A 
HETATM    5  N   UNL     1      -1.385   7.552 -33.260  1.00  0.00    -0.277 N 
HETATM    6  H   UNL     1      -0.634   7.829 -33.881  1.00  0.00     0.189 HD
HETATM    7  N   UNL     1      -1.915   8.482 -32.450  1.00  0.00    -0.168 NA
HETATM    8  C   UNL     1      -2.870   7.810 -31.765  1.00  0.00     0.156 A 
HETATM    9  C   UNL     1      -1.690   5.115 -33.811  1.00  0.00     0.034 A 
HETATM   10  C   UNL     1      -2.467   4.008 -33.450  1.00  0.00     0.032 A 
ENDROOT
BRANCH   1  11
HETATM   11  N   UNL     1      -4.167   2.895 -32.186  1.00  0.00    -0.327 N 
HETATM   12  C   UNL     1      -5.387   2.504 -32.708  1.00  0.00     0.223 C 
HETATM   13  O   UNL     1      -6.054   3.121 -33.533  1.00  0.00    -0.273 OA
HETATM   14  H   UNL     1      -3.745   2.287 -31.500  1.00  0.00     0.169 HD
BRANCH  12  15
HETATM   15  C   UNL     1      -5.853   1.133 -32.235  1.00  0.00     0.116 C 
BRANCH  15  16
HETATM   16  C   UNL     1      -6.794   0.385 -33.199  1.00  0.00     0.049 C 
BRANCH  16  17
HETATM   17  C   UNL     1      -8.180   0.284 -32.576  1.00  0.00    -0.027 C 
HETATM   18  C   UNL     1      -8.749   1.104 -31.682  1.00  0.00     0.007 C 
ENDBRANCH  16  17
BRANCH  16  19
HETATM   19  C   UNL     1      -6.226  -0.933 -33.708  1.00  0.00    -0.050 A 
HETATM   20  C   UNL     1      -4.854  -1.223 -33.645  1.00  0.00     0.008 A 
HETATM   21  C   UNL     1      -4.361  -2.440 -34.121  1.00  0.00     0.001 A 
HETATM   22  C   UNL     1      -5.231  -3.384 -34.663  1.00  0.00     0.000 A 
HETATM   23  C   UNL     1      -6.595  -3.115 -34.724  1.00  0.00     0.001 A 
HETATM   24  C   UNL     1      -7.090  -1.900 -34.246  1.00  0.00     0.008 A 
ENDBRANCH  16  19
ENDBRANCH  15  16
ENDBRANCH  12  15
ENDBRANCH   1  11
BRANCH   8  25
HETATM   25  C   UNL     1      -3.706   8.490 -30.766  1.00  0.00     0.270 C 
HETATM   26  N   UNL     1      -4.987   8.733 -31.183  1.00  0.00    -0.365 N 
HETATM   27  H   UNL     1      -5.260   8.429 -32.110  1.00  0.00     0.159 HD
HETATM   28  H   UNL     1      -5.637   9.181 -30.558  1.00  0.00     0.159 HD
HETATM   29  O   UNL     1      -3.331   8.820 -29.646  1.00  0.00    -0.266 OA
ENDBRANCH   8  25
TORSDOF 6
ENDMDL
MODEL 10
REMARK VINA RESULT:      -7.8      5.221      7.300
REMARK  6 active torsions:
REMARK  status: ('A' for Active; 'I' for Inactive)
REMARK    1  A    between atoms: C_2  and  C_3 
REMARK    2  A    between atoms: C_3  and  C_4 
REMARK    3  A    between atoms: C_3  and  C_10 
REMARK    4  A    between atoms: C_10  and  C_11 
REMARK       I    between atoms: C_11  and  N_12 
REMARK    5  A    between atoms: N_12  and  C_13 
REMARK    6  A    between atoms: C_20  and  C_21 
REMARK       I    between atoms: C_21  and  N_22 
ROOT
HETATM    1  C   UNL     1     -10.185   1.822 -34.495  1.00  0.00     0.035 A 
HETATM    2  C   UNL     1     -10.259   3.173 -34.858  1.00  0.00     0.046 A 
HETATM    3  C   UNL     1     -11.464   3.884 -34.659  1.00  0.00     0.030 A 
HETATM    4  C   UNL     1     -12.555   3.216 -34.116  1.00  0.00     0.063 A 
HETATM    5  N   UNL     1     -13.556   4.145 -34.055  1.00  0.00    -0.277 N 
HETATM    6  H   UNL     1     -14.501   4.006 -33.716  1.00  0.00     0.189 HD
HETATM    7  N   UNL     1     -13.211   5.365 -34.495  1.00  0.00    -0.168 NA
HETATM    8  C   UNL     1     -11.919   5.222 -34.870  1.00  0.00     0.156 A 
HETATM    9  C   UNL     1     -12.518   1.872 -33.746  1.00  0.00     0.034 A 
HETATM   10  C   UNL     1     -11.310   1.193 -33.941  1.00  0.00     0.032 A 
ENDROOT
BRANCH   1  11
HETATM   11  N   UNL     1      -9.027   1.026 -34.640  1.00  0.00    -0.327 N 
HETATM   12  C   UNL     1      -7.735   1.334 -34.252  1.00  0.00     0.223 C 
HETATM   13  O   UNL     1      -7.376   2.358 -33.680  1.00  0.00    -0.273 OA
HETATM   14  H   UNL     1      -9.166   0.148 -35.119  1.00  0.00     0.169 HD
BRANCH  12  15
HETATM   15  C   UNL     1      -6.727   0.224 -34.519  1.00  0.00     0.116 C 
BRANCH  15  16
HETATM   16  C   UNL     1      -6.675  -0.890 -33.455  1.00  0.00     0.049 C 
BRANCH  16  17
HETATM   17  C   UNL     1      -5.946  -0.377 -32.220  1.00  0.00    -0.027 C 
HETATM   18  C   UNL     1      -6.461  -0.071 -31.021  1.00  0.00     0.007 C 
ENDBRANCH  16  17
BRANCH  16  19
HETATM   19  C   UNL     1      -6.163  -2.221 -33.990  1.00  0.00    -0.050 A 
HETATM   20  C   UNL     1      -4.805  -2.571 -33.932  1.00  0.00     0.008 A 
HETATM   21  C   UNL     1      -4.364  -3.798 -34.432  1.00  0.00     0.001 A 
HETATM   22  C   UNL     1      -5.272  -4.692 -34.995  1.00  0.00     0.000 A 
HETATM   23  C   UNL     1      -6.623  -4.364 -35.052  1.00  0.00     0.001 A 
HETATM   24  C   UNL     1      -7.067  -3.139 -34.549  1.00  0.00     0.008 A 
ENDBRANCH  16  19
ENDBRANCH  15  16
ENDBRANCH  12  15
ENDBRANCH   1  11
BRANCH   8  25
HETATM   25  C   UNL     1     -11.156   6.357 -35.408  1.00  0.00     0.270 C 
HETATM   26  N   UNL     1     -11.872   7.521 -35.490  1.00  0.00    -0.365 N 
HETATM   27  H   UNL     1     -12.836   7.519 -35.177  1.00  0.00     0.159 HD
HETATM   28  H   UNL     1     -11.426   8.357 -35.832  1.00  0.00     0.159 HD
HETATM   29  O   UNL     1      -9.981   6.311 -35.755  1.00  0.00    -0.266 OA
ENDBRANCH   8  25
TORSDOF 6
ENDMDL
