MODEL 1
REMARK VINA RESULT:      -8.9      0.000      0.000
REMARK  8 active torsions:
REMARK  status: ('A' for Active; 'I' for Inactive)
REMARK    1  A    between atoms: O_2  and  C_3 
REMARK    2  A    between atoms: C_4  and  O_5 
REMARK    3  A    between atoms: C_8  and  C_9 
REMARK    4  A    between atoms: C_9  and  C_10 
REMARK    5  A    between atoms: C_10  and  N_11 
REMARK       I    between atoms: N_11  and  C_12 
REMARK    6  A    between atoms: C_12  and  C_13 
REMARK    7  A    between atoms: C_13  and  S_14 
REMARK    8  A    between atoms: S_14  and  C_15 
ROOT
HETATM    1  N   UNL     1      -2.387   4.852 -33.708  1.00  0.00    -0.360 N 
HETATM    2  C   UNL     1      -2.713   4.083 -32.615  1.00  0.00     0.227 C 
HETATM    3  O   UNL     1      -1.965   3.944 -31.649  1.00  0.00    -0.273 OA
HETATM    4  H   UNL     1      -2.978   4.790 -34.539  1.00  0.00     0.162 HD
ENDROOT
BRANCH   2   5
HETATM    5  C   UNL     1      -4.101   3.468 -32.659  1.00  0.00     0.185 C 
BRANCH   5   6
HETATM    6  S   UNL     1      -4.444   2.460 -31.191  1.00  0.00    -0.080 SA
BRANCH   6   7
HETATM    7  C   UNL     1      -3.834   0.914 -31.679  1.00  0.00     0.197 A 
HETATM    8  N   UNL     1      -4.419   0.016 -32.557  1.00  0.00    -0.271 N 
HETATM    9  C   UNL     1      -3.602  -1.111 -32.455  1.00  0.00     0.159 A 
HETATM   10  C   UNL     1      -5.547   0.064 -33.426  1.00  0.00     0.053 A 
HETATM   11  C   UNL     1      -3.927  -2.285 -33.173  1.00  0.00     0.054 A 
HETATM   12  N   UNL     1      -2.590  -0.868 -31.651  1.00  0.00    -0.129 NA
HETATM   13  C   UNL     1      -4.996  -2.314 -33.978  1.00  0.00     0.017 A 
HETATM   14  C   UNL     1      -5.836  -1.121 -34.140  1.00  0.00    -0.009 A 
HETATM   15  C   UNL     1      -6.924  -1.159 -35.021  1.00  0.00     0.014 A 
HETATM   16  C   UNL     1      -7.715  -0.028 -35.205  1.00  0.00     0.001 A 
HETATM   17  C   UNL     1      -7.421   1.145 -34.513  1.00  0.00     0.002 A 
HETATM   18  C   UNL     1      -6.341   1.195 -33.626  1.00  0.00     0.031 A 
HETATM   19  N   UNL     1      -2.732   0.401 -31.175  1.00  0.00    -0.122 NA
ENDBRANCH   6   7
ENDBRANCH   5   6
ENDBRANCH   2   5
BRANCH   1  20
HETATM   20  C   UNL     1      -1.160   5.612 -33.796  1.00  0.00     0.127 C 
BRANCH  20  21
HETATM   21  C   UNL     1      -1.327   7.089 -33.432  1.00  0.00     0.058 C 
BRANCH  21  22
HETATM   22  C   UNL     1      -0.918   7.327 -31.996  1.00  0.00    -0.054 A 
HETATM   23  C   UNL     1      -1.727   8.101 -31.147  1.00  0.00     0.046 A 
HETATM   24  C   UNL     1      -1.401   8.259 -29.796  1.00  0.00     0.102 A 
HETATM   25  C   UNL     1      -0.263   7.612 -29.290  1.00  0.00     0.101 A 
HETATM   26  C   UNL     1       0.568   6.872 -30.136  1.00  0.00     0.040 A 
HETATM   27  C   UNL     1       0.237   6.724 -31.483  1.00  0.00     0.010 A 
BRANCH  24  28
HETATM   28  O   UNL     1      -2.142   8.978 -28.892  1.00  0.00    -0.353 OA
HETATM   29  C   UNL     1      -2.184  10.387 -29.062  1.00  0.00     0.210 C 
ENDBRANCH  24  28
BRANCH  25  30
HETATM   30  O   UNL     1       0.046   7.775 -27.961  1.00  0.00    -0.353 OA
HETATM   31  C   UNL     1       1.289   8.448 -27.774  1.00  0.00     0.210 C 
ENDBRANCH  25  30
ENDBRANCH  21  22
ENDBRANCH  20  21
ENDBRANCH   1  20
TORSDOF 8
ENDMDL
MODEL 2
REMARK VINA RESULT:      -8.6      1.466      1.915
REMARK  8 active torsions:
REMARK  status: ('A' for Active; 'I' for Inactive)
REMARK    1  A    between atoms: O_2  and  C_3 
REMARK    2  A    between atoms: C_4  and  O_5 
REMARK    3  A    between atoms: C_8  and  C_9 
REMARK    4  A    between atoms: C_9  and  C_10 
REMARK    5  A    between atoms: C_10  and  N_11 
REMARK       I    between atoms: N_11  and  C_12 
REMARK    6  A    between atoms: C_12  and  C_13 
REMARK    7  A    between atoms: C_13  and  S_14 
REMARK    8  A    between atoms: S_14  and  C_15 
ROOT
HETATM    1  N   UNL     1      -3.584   5.815 -33.248  1.00  0.00    -0.360 N 
HETATM    2  C   UNL     1      -4.692   5.233 -33.821  1.00  0.00     0.227 C 
HETATM    3  O   UNL     1      -4.745   4.921 -35.009  1.00  0.00    -0.273 OA
HETATM    4  H   UNL     1      -3.670   6.196 -32.305  1.00  0.00     0.162 HD
ENDROOT
BRANCH   2   5
HETATM    5  C   UNL     1      -5.830   4.943 -32.857  1.00  0.00     0.185 C 
BRANCH   5   6
HETATM    6  S   UNL     1      -6.354   3.208 -32.928  1.00  0.00    -0.080 SA
BRANCH   6   7
HETATM    7  C   UNL     1      -4.935   2.392 -32.361  1.00  0.00     0.197 A 
HETATM    8  N   UNL     1      -4.597   1.062 -32.545  1.00  0.00    -0.271 N 
HETATM    9  C   UNL     1      -3.461   0.906 -31.750  1.00  0.00     0.159 A 
HETATM   10  C   UNL     1      -5.142  -0.007 -33.314  1.00  0.00     0.053 A 
HETATM   11  C   UNL     1      -2.853  -0.365 -31.629  1.00  0.00     0.054 A 
HETATM   12  N   UNL     1      -3.120   2.057 -31.212  1.00  0.00    -0.129 NA
HETATM   13  C   UNL     1      -3.341  -1.416 -32.298  1.00  0.00     0.017 A 
HETATM   14  C   UNL     1      -4.503  -1.261 -33.181  1.00  0.00    -0.009 A 
HETATM   15  C   UNL     1      -4.969  -2.364 -33.906  1.00  0.00     0.014 A 
HETATM   16  C   UNL     1      -6.056  -2.226 -34.768  1.00  0.00     0.001 A 
HETATM   17  C   UNL     1      -6.676  -0.987 -34.909  1.00  0.00     0.002 A 
HETATM   18  C   UNL     1      -6.223   0.122 -34.187  1.00  0.00     0.031 A 
HETATM   19  N   UNL     1      -4.037   2.987 -31.603  1.00  0.00    -0.122 NA
ENDBRANCH   6   7
ENDBRANCH   5   6
ENDBRANCH   2   5
BRANCH   1  20
HETATM   20  C   UNL     1      -2.361   6.060 -33.978  1.00  0.00     0.127 C 
BRANCH  20  21
HETATM   21  C   UNL     1      -1.752   7.438 -33.707  1.00  0.00     0.058 C 
BRANCH  21  22
HETATM   22  C   UNL     1      -1.263   7.527 -32.279  1.00  0.00    -0.054 A 
HETATM   23  C   UNL     1      -1.935   8.337 -31.348  1.00  0.00     0.046 A 
HETATM   24  C   UNL     1      -1.541   8.363 -30.006  1.00  0.00     0.102 A 
HETATM   25  C   UNL     1      -0.477   7.546 -29.594  1.00  0.00     0.101 A 
HETATM   26  C   UNL     1       0.221   6.767 -30.521  1.00  0.00     0.040 A 
HETATM   27  C   UNL     1      -0.175   6.752 -31.858  1.00  0.00     0.010 A 
BRANCH  24  28
HETATM   28  O   UNL     1      -2.150   9.106 -29.027  1.00  0.00    -0.353 OA
HETATM   29  C   UNL     1      -2.307  10.496 -29.270  1.00  0.00     0.210 C 
ENDBRANCH  24  28
BRANCH  25  30
HETATM   30  O   UNL     1      -0.100   7.581 -28.273  1.00  0.00    -0.353 OA
HETATM   31  C   UNL     1       1.162   8.219 -28.087  1.00  0.00     0.210 C 
ENDBRANCH  25  30
ENDBRANCH  21  22
ENDBRANCH  20  21
ENDBRANCH   1  20
TORSDOF 8
ENDMDL
MODEL 3
REMARK VINA RESULT:      -8.6      3.336      9.149
REMARK  8 active torsions:
REMARK  status: ('A' for Active; 'I' for Inactive)
REMARK    1  A    between atoms: O_2  and  C_3 
REMARK    2  A    between atoms: C_4  and  O_5 
REMARK    3  A    between atoms: C_8  and  C_9 
REMARK    4  A    between atoms: C_9  and  C_10 
REMARK    5  A    between atoms: C_10  and  N_11 
REMARK       I    between atoms: N_11  and  C_12 
REMARK    6  A    between atoms: C_12  and  C_13 
REMARK    7  A    between atoms: C_13  and  S_14 
REMARK    8  A    between atoms: S_14  and  C_15 
ROOT
HETATM    1  N   UNL     1      -7.068   3.158 -33.049  1.00  0.00    -0.360 N 
HETATM    2  C   UNL     1      -7.311   4.019 -32.003  1.00  0.00     0.227 C 
HETATM    3  O   UNL     1      -7.342   3.654 -30.830  1.00  0.00    -0.273 OA
HETATM    4  H   UNL     1      -7.220   3.496 -34.001  1.00  0.00     0.162 HD
ENDROOT
BRANCH   2   5
HETATM    5  C   UNL     1      -7.473   5.476 -32.401  1.00  0.00     0.185 C 
BRANCH   5   6
HETATM    6  S   UNL     1      -5.985   6.448 -32.041  1.00  0.00    -0.080 SA
BRANCH   6   7
HETATM    7  C   UNL     1      -4.896   5.885 -33.266  1.00  0.00     0.197 A 
HETATM    8  N   UNL     1      -3.513   5.948 -33.257  1.00  0.00    -0.271 N 
HETATM    9  C   UNL     1      -3.164   5.516 -34.537  1.00  0.00     0.159 A 
HETATM   10  C   UNL     1      -2.538   6.317 -32.285  1.00  0.00     0.053 A 
HETATM   11  C   UNL     1      -1.806   5.505 -34.933  1.00  0.00     0.054 A 
HETATM   12  N   UNL     1      -4.239   5.161 -35.207  1.00  0.00    -0.129 NA
HETATM   13  C   UNL     1      -0.847   5.877 -34.075  1.00  0.00     0.017 A 
HETATM   14  C   UNL     1      -1.190   6.282 -32.707  1.00  0.00    -0.009 A 
HETATM   15  C   UNL     1      -0.168   6.623 -31.813  1.00  0.00     0.014 A 
HETATM   16  C   UNL     1      -0.476   6.986 -30.504  1.00  0.00     0.001 A 
HETATM   17  C   UNL     1      -1.804   7.005 -30.083  1.00  0.00     0.002 A 
HETATM   18  C   UNL     1      -2.835   6.672 -30.967  1.00  0.00     0.031 A 
HETATM   19  N   UNL     1      -5.320   5.383 -34.406  1.00  0.00    -0.122 NA
ENDBRANCH   6   7
ENDBRANCH   5   6
ENDBRANCH   2   5
BRANCH   1  20
HETATM   20  C   UNL     1      -6.772   1.756 -32.859  1.00  0.00     0.127 C 
BRANCH  20  21
HETATM   21  C   UNL     1      -7.060   0.896 -34.092  1.00  0.00     0.058 C 
BRANCH  21  22
HETATM   22  C   UNL     1      -6.186  -0.337 -34.091  1.00  0.00    -0.054 A 
HETATM   23  C   UNL     1      -5.078  -0.420 -33.230  1.00  0.00     0.046 A 
HETATM   24  C   UNL     1      -4.311  -1.588 -33.161  1.00  0.00     0.102 A 
HETATM   25  C   UNL     1      -4.678  -2.690 -33.949  1.00  0.00     0.101 A 
HETATM   26  C   UNL     1      -5.754  -2.602 -34.837  1.00  0.00     0.040 A 
HETATM   27  C   UNL     1      -6.510  -1.431 -34.902  1.00  0.00     0.010 A 
BRANCH  24  28
HETATM   28  O   UNL     1      -3.229  -1.765 -32.337  1.00  0.00    -0.353 OA
HETATM   29  C   UNL     1      -2.737  -0.620 -31.656  1.00  0.00     0.210 C 
ENDBRANCH  24  28
BRANCH  25  30
HETATM   30  O   UNL     1      -3.916  -3.831 -33.873  1.00  0.00    -0.353 OA
HETATM   31  C   UNL     1      -4.639  -4.992 -34.278  1.00  0.00     0.210 C 
ENDBRANCH  25  30
ENDBRANCH  21  22
ENDBRANCH  20  21
ENDBRANCH   1  20
TORSDOF 8
ENDMDL
MODEL 4
REMARK VINA RESULT:      -8.6      1.708      3.105
REMARK  8 active torsions:
REMARK  status: ('A' for Active; 'I' for Inactive)
REMARK    1  A    between atoms: O_2  and  C_3 
REMARK    2  A    between atoms: C_4  and  O_5 
REMARK    3  A    between atoms: C_8  and  C_9 
REMARK    4  A    between atoms: C_9  and  C_10 
REMARK    5  A    between atoms: C_10  and  N_11 
REMARK       I    between atoms: N_11  and  C_12 
REMARK    6  A    between atoms: C_12  and  C_13 
REMARK    7  A    between atoms: C_13  and  S_14 
REMARK    8  A    between atoms: S_14  and  C_15 
ROOT
HETATM    1  N   UNL     1      -2.011   4.331 -31.043  1.00  0.00    -0.360 N 
HETATM    2  C   UNL     1      -2.923   3.641 -31.808  1.00  0.00     0.227 C 
HETATM    3  O   UNL     1      -2.971   3.731 -33.034  1.00  0.00    -0.273 OA
HETATM    4  H   UNL     1      -2.135   4.336 -30.029  1.00  0.00     0.162 HD
ENDROOT
BRANCH   2   5
HETATM    5  C   UNL     1      -3.829   2.702 -31.031  1.00  0.00     0.185 C 
BRANCH   5   6
HETATM    6  S   UNL     1      -3.490   0.962 -31.409  1.00  0.00    -0.080 SA
BRANCH   6   7
HETATM    7  C   UNL     1      -4.746   0.601 -32.546  1.00  0.00     0.197 A 
HETATM    8  N   UNL     1      -4.963  -0.594 -33.213  1.00  0.00    -0.271 N 
HETATM    9  C   UNL     1      -5.983  -0.279 -34.112  1.00  0.00     0.159 A 
HETATM   10  C   UNL     1      -4.398  -1.899 -33.126  1.00  0.00     0.053 A 
HETATM   11  C   UNL     1      -6.439  -1.253 -35.030  1.00  0.00     0.054 A 
HETATM   12  N   UNL     1      -6.379   0.962 -33.935  1.00  0.00    -0.129 NA
HETATM   13  C   UNL     1      -5.921  -2.488 -35.022  1.00  0.00     0.017 A 
HETATM   14  C   UNL     1      -4.886  -2.853 -34.048  1.00  0.00    -0.009 A 
HETATM   15  C   UNL     1      -4.390  -4.163 -34.028  1.00  0.00     0.014 A 
HETATM   16  C   UNL     1      -3.425  -4.530 -33.093  1.00  0.00     0.001 A 
HETATM   17  C   UNL     1      -2.956  -3.594 -32.174  1.00  0.00     0.002 A 
HETATM   18  C   UNL     1      -3.438  -2.282 -32.186  1.00  0.00     0.031 A 
HETATM   19  N   UNL     1      -5.612   1.508 -32.949  1.00  0.00    -0.122 NA
ENDBRANCH   6   7
ENDBRANCH   5   6
ENDBRANCH   2   5
BRANCH   1  20
HETATM   20  C   UNL     1      -0.990   5.181 -31.613  1.00  0.00     0.127 C 
BRANCH  20  21
HETATM   21  C   UNL     1       0.290   5.246 -30.776  1.00  0.00     0.058 C 
BRANCH  21  22
HETATM   22  C   UNL     1       0.126   6.227 -29.637  1.00  0.00    -0.054 A 
HETATM   23  C   UNL     1      -0.528   7.453 -29.847  1.00  0.00     0.046 A 
HETATM   24  C   UNL     1      -0.759   8.333 -28.783  1.00  0.00     0.102 A 
HETATM   25  C   UNL     1      -0.348   7.962 -27.493  1.00  0.00     0.101 A 
HETATM   26  C   UNL     1       0.337   6.761 -27.283  1.00  0.00     0.040 A 
HETATM   27  C   UNL     1       0.567   5.894 -28.351  1.00  0.00     0.010 A 
BRANCH  24  28
HETATM   28  O   UNL     1      -1.405   9.537 -28.891  1.00  0.00    -0.353 OA
HETATM   29  C   UNL     1      -2.810   9.504 -29.091  1.00  0.00     0.210 C 
ENDBRANCH  24  28
BRANCH  25  30
HETATM   30  O   UNL     1      -0.580   8.834 -26.457  1.00  0.00    -0.353 OA
HETATM   31  C   UNL     1      -1.511   8.313 -25.510  1.00  0.00     0.210 C 
ENDBRANCH  25  30
ENDBRANCH  21  22
ENDBRANCH  20  21
ENDBRANCH   1  20
TORSDOF 8
ENDMDL
MODEL 5
REMARK VINA RESULT:      -8.3      2.841      4.507
REMARK  8 active torsions:
REMARK  status: ('A' for Active; 'I' for Inactive)
REMARK    1  A    between atoms: O_2  and  C_3 
REMARK    2  A    between atoms: C_4  and  O_5 
REMARK    3  A    between atoms: C_8  and  C_9 
REMARK    4  A    between atoms: C_9  and  C_10 
REMARK    5  A    between atoms: C_10  and  N_11 
REMARK       I    between atoms: N_11  and  C_12 
REMARK    6  A    between atoms: C_12  and  C_13 
REMARK    7  A    between atoms: C_13  and  S_14 
REMARK    8  A    between atoms: S_14  and  C_15 
ROOT
HETATM    1  N   UNL     1      -7.658   3.045 -33.586  1.00  0.00    -0.360 N 
HETATM    2  C   UNL     1      -8.331   1.949 -34.075  1.00  0.00     0.227 C 
HETATM    3  O   UNL     1      -7.947   1.311 -35.053  1.00  0.00    -0.273 OA
HETATM    4  H   UNL     1      -8.118   3.621 -32.879  1.00  0.00     0.162 HD
ENDROOT
BRANCH   2   5
HETATM    5  C   UNL     1      -9.555   1.542 -33.274  1.00  0.00     0.185 C 
BRANCH   5   6
HETATM    6  S   UNL     1      -9.215   0.137 -32.180  1.00  0.00    -0.080 SA
BRANCH   6   7
HETATM    7  C   UNL     1      -7.646   0.543 -31.569  1.00  0.00     0.197 A 
HETATM    8  N   UNL     1      -6.439  -0.063 -31.877  1.00  0.00    -0.271 N 
HETATM    9  C   UNL     1      -5.544   0.538 -30.991  1.00  0.00     0.159 A 
HETATM   10  C   UNL     1      -6.030  -1.046 -32.824  1.00  0.00     0.053 A 
HETATM   11  C   UNL     1      -4.193   0.121 -30.962  1.00  0.00     0.054 A 
HETATM   12  N   UNL     1      -6.154   1.464 -30.284  1.00  0.00    -0.129 NA
HETATM   13  C   UNL     1      -3.757  -0.826 -31.802  1.00  0.00     0.017 A 
HETATM   14  C   UNL     1      -4.671  -1.431 -32.778  1.00  0.00    -0.009 A 
HETATM   15  C   UNL     1      -4.184  -2.387 -33.677  1.00  0.00     0.014 A 
HETATM   16  C   UNL     1      -5.034  -2.952 -34.626  1.00  0.00     0.001 A 
HETATM   17  C   UNL     1      -6.370  -2.561 -34.680  1.00  0.00     0.002 A 
HETATM   18  C   UNL     1      -6.871  -1.611 -33.785  1.00  0.00     0.031 A 
HETATM   19  N   UNL     1      -7.466   1.472 -30.654  1.00  0.00    -0.122 NA
ENDBRANCH   6   7
ENDBRANCH   5   6
ENDBRANCH   2   5
BRANCH   1  20
HETATM   20  C   UNL     1      -6.408   3.512 -34.142  1.00  0.00     0.127 C 
BRANCH  20  21
HETATM   21  C   UNL     1      -5.941   4.850 -33.561  1.00  0.00     0.058 C 
BRANCH  21  22
HETATM   22  C   UNL     1      -4.497   4.759 -33.126  1.00  0.00    -0.054 A 
HETATM   23  C   UNL     1      -3.562   5.712 -33.566  1.00  0.00     0.046 A 
HETATM   24  C   UNL     1      -2.241   5.686 -33.105  1.00  0.00     0.102 A 
HETATM   25  C   UNL     1      -1.866   4.706 -32.173  1.00  0.00     0.101 A 
HETATM   26  C   UNL     1      -2.779   3.732 -31.759  1.00  0.00     0.040 A 
HETATM   27  C   UNL     1      -4.092   3.763 -32.229  1.00  0.00     0.010 A 
BRANCH  24  28
HETATM   28  O   UNL     1      -1.270   6.585 -33.464  1.00  0.00    -0.353 OA
HETATM   29  C   UNL     1      -1.341   7.882 -32.888  1.00  0.00     0.210 C 
ENDBRANCH  24  28
BRANCH  25  30
HETATM   30  O   UNL     1      -0.566   4.692 -31.727  1.00  0.00    -0.353 OA
HETATM   31  C   UNL     1      -0.442   5.216 -30.406  1.00  0.00     0.210 C 
ENDBRANCH  25  30
ENDBRANCH  21  22
ENDBRANCH  20  21
ENDBRANCH   1  20
TORSDOF 8
ENDMDL
MODEL 6
REMARK VINA RESULT:      -8.1      5.667      8.544
REMARK  8 active torsions:
REMARK  status: ('A' for Active; 'I' for Inactive)
REMARK    1  A    between atoms: O_2  and  C_3 
REMARK    2  A    between atoms: C_4  and  O_5 
REMARK    3  A    between atoms: C_8  and  C_9 
REMARK    4  A    between atoms: C_9  and  C_10 
REMARK    5  A    between atoms: C_10  and  N_11 
REMARK       I    between atoms: N_11  and  C_12 
REMARK    6  A    between atoms: C_12  and  C_13 
REMARK    7  A    between atoms: C_13  and  S_14 
REMARK    8  A    between atoms: S_14  and  C_15 
ROOT
HETATM    1  N   UNL     1      -7.700   0.632 -31.152  1.00  0.00    -0.360 N 
HETATM    2  C   UNL     1      -6.873   1.727 -31.060  1.00  0.00     0.227 C 
HETATM    3  O   UNL     1      -7.281   2.883 -31.157  1.00  0.00    -0.273 OA
HETATM    4  H   UNL     1      -7.274  -0.293 -31.227  1.00  0.00     0.162 HD
ENDROOT
BRANCH   2   5
HETATM    5  C   UNL     1      -5.419   1.406 -30.762  1.00  0.00     0.185 C 
BRANCH   5   6
HETATM    6  S   UNL     1      -4.402   1.409 -32.263  1.00  0.00    -0.080 SA
BRANCH   6   7
HETATM    7  C   UNL     1      -5.408   0.531 -33.367  1.00  0.00     0.197 A 
HETATM    8  N   UNL     1      -5.303  -0.803 -33.725  1.00  0.00    -0.271 N 
HETATM    9  C   UNL     1      -6.239  -0.935 -34.751  1.00  0.00     0.159 A 
HETATM   10  C   UNL     1      -4.514  -1.898 -33.267  1.00  0.00     0.053 A 
HETATM   11  C   UNL     1      -6.377  -2.170 -35.426  1.00  0.00     0.054 A 
HETATM   12  N   UNL     1      -6.886   0.197 -34.926  1.00  0.00    -0.129 NA
HETATM   13  C   UNL     1      -5.638  -3.226 -35.065  1.00  0.00     0.017 A 
HETATM   14  C   UNL     1      -4.686  -3.122 -33.952  1.00  0.00    -0.009 A 
HETATM   15  C   UNL     1      -3.955  -4.251 -33.563  1.00  0.00     0.014 A 
HETATM   16  C   UNL     1      -3.067  -4.174 -32.493  1.00  0.00     0.001 A 
HETATM   17  C   UNL     1      -2.909  -2.972 -31.807  1.00  0.00     0.002 A 
HETATM   18  C   UNL     1      -3.629  -1.835 -32.189  1.00  0.00     0.031 A 
HETATM   19  N   UNL     1      -6.371   1.109 -34.053  1.00  0.00    -0.122 NA
ENDBRANCH   6   7
ENDBRANCH   5   6
ENDBRANCH   2   5
BRANCH   1  20
HETATM   20  C   UNL     1      -9.133   0.740 -31.314  1.00  0.00     0.127 C 
BRANCH  20  21
HETATM   21  C   UNL     1      -9.644   0.166 -32.638  1.00  0.00     0.058 C 
BRANCH  21  22
HETATM   22  C   UNL     1     -10.349   1.237 -33.439  1.00  0.00    -0.054 A 
HETATM   23  C   UNL     1      -9.682   2.428 -33.772  1.00  0.00     0.046 A 
HETATM   24  C   UNL     1     -10.296   3.390 -34.582  1.00  0.00     0.102 A 
HETATM   25  C   UNL     1     -11.583   3.138 -35.080  1.00  0.00     0.101 A 
HETATM   26  C   UNL     1     -12.268   1.973 -34.722  1.00  0.00     0.040 A 
HETATM   27  C   UNL     1     -11.650   1.023 -33.910  1.00  0.00     0.010 A 
BRANCH  24  28
HETATM   28  O   UNL     1      -9.714   4.569 -34.973  1.00  0.00    -0.353 OA
HETATM   29  C   UNL     1      -8.946   5.267 -34.004  1.00  0.00     0.210 C 
ENDBRANCH  24  28
BRANCH  25  30
HETATM   30  O   UNL     1     -12.175   4.090 -35.875  1.00  0.00    -0.353 OA
HETATM   31  C   UNL     1     -12.994   4.986 -35.126  1.00  0.00     0.210 C 
ENDBRANCH  25  30
ENDBRANCH  21  22
ENDBRANCH  20  21
ENDBRANCH   1  20
TORSDOF 8
ENDMDL
MODEL 7
REMARK VINA RESULT:      -8.1      2.927      9.145
REMARK  8 active torsions:
REMARK  status: ('A' for Active; 'I' for Inactive)
REMARK    1  A    between atoms: O_2  and  C_3 
REMARK    2  A    between atoms: C_4  and  O_5 
REMARK    3  A    between atoms: C_8  and  C_9 
REMARK    4  A    between atoms: C_9  and  C_10 
REMARK    5  A    between atoms: C_10  and  N_11 
REMARK       I    between atoms: N_11  and  C_12 
REMARK    6  A    between atoms: C_12  and  C_13 
REMARK    7  A    between atoms: C_13  and  S_14 
REMARK    8  A    between atoms: S_14  and  C_15 
ROOT
HETATM    1  N   UNL     1      -3.963   3.193 -31.116  1.00  0.00    -0.360 N 
HETATM    2  C   UNL     1      -5.241   3.632 -30.856  1.00  0.00     0.227 C 
HETATM    3  O   UNL     1      -6.237   3.140 -31.382  1.00  0.00    -0.273 OA
HETATM    4  H   UNL     1      -3.179   3.751 -30.774  1.00  0.00     0.162 HD
ENDROOT
BRANCH   2   5
HETATM    5  C   UNL     1      -5.337   4.734 -29.815  1.00  0.00     0.185 C 
BRANCH   5   6
HETATM    6  S   UNL     1      -5.437   6.378 -30.574  1.00  0.00    -0.080 SA
BRANCH   6   7
HETATM    7  C   UNL     1      -4.574   6.131 -32.056  1.00  0.00     0.197 A 
HETATM    8  N   UNL     1      -3.216   6.291 -32.277  1.00  0.00    -0.271 N 
HETATM    9  C   UNL     1      -3.095   6.128 -33.658  1.00  0.00     0.159 A 
HETATM   10  C   UNL     1      -2.093   6.546 -31.438  1.00  0.00     0.053 A 
HETATM   11  C   UNL     1      -1.835   6.290 -34.280  1.00  0.00     0.054 A 
HETATM   12  N   UNL     1      -4.261   5.825 -34.185  1.00  0.00    -0.129 NA
HETATM   13  C   UNL     1      -0.749   6.566 -33.548  1.00  0.00     0.017 A 
HETATM   14  C   UNL     1      -0.846   6.687 -32.089  1.00  0.00    -0.009 A 
HETATM   15  C   UNL     1       0.311   6.933 -31.339  1.00  0.00     0.014 A 
HETATM   16  C   UNL     1       0.237   7.026 -29.951  1.00  0.00     0.001 A 
HETATM   17  C   UNL     1      -0.989   6.870 -29.309  1.00  0.00     0.002 A 
HETATM   18  C   UNL     1      -2.153   6.630 -30.046  1.00  0.00     0.031 A 
HETATM   19  N   UNL     1      -5.182   5.817 -33.180  1.00  0.00    -0.122 NA
ENDBRANCH   6   7
ENDBRANCH   5   6
ENDBRANCH   2   5
BRANCH   1  20
HETATM   20  C   UNL     1      -3.679   2.075 -31.987  1.00  0.00     0.127 C 
BRANCH  20  21
HETATM   21  C   UNL     1      -3.701   0.721 -31.274  1.00  0.00     0.058 C 
BRANCH  21  22
HETATM   22  C   UNL     1      -4.189  -0.361 -32.211  1.00  0.00    -0.054 A 
HETATM   23  C   UNL     1      -5.206  -0.087 -33.141  1.00  0.00     0.046 A 
HETATM   24  C   UNL     1      -5.608  -1.056 -34.068  1.00  0.00     0.102 A 
HETATM   25  C   UNL     1      -4.962  -2.302 -34.072  1.00  0.00     0.101 A 
HETATM   26  C   UNL     1      -3.976  -2.595 -33.126  1.00  0.00     0.040 A 
HETATM   27  C   UNL     1      -3.586  -1.625 -32.202  1.00  0.00     0.010 A 
BRANCH  24  28
HETATM   28  O   UNL     1      -6.575  -0.870 -35.022  1.00  0.00    -0.353 OA
HETATM   29  C   UNL     1      -7.057   0.452 -35.209  1.00  0.00     0.210 C 
ENDBRANCH  24  28
BRANCH  25  30
HETATM   30  O   UNL     1      -5.366  -3.244 -34.987  1.00  0.00    -0.353 OA
HETATM   31  C   UNL     1      -5.096  -4.574 -34.548  1.00  0.00     0.210 C 
ENDBRANCH  25  30
ENDBRANCH  21  22
ENDBRANCH  20  21
ENDBRANCH   1  20
TORSDOF 8
ENDMDL
MODEL 8
REMARK VINA RESULT:      -8.1      2.097      3.422
REMARK  8 active torsions:
REMARK  status: ('A' for Active; 'I' for Inactive)
REMARK    1  A    between atoms: O_2  and  C_3 
REMARK    2  A    between atoms: C_4  and  O_5 
REMARK    3  A    between atoms: C_8  and  C_9 
REMARK    4  A    between atoms: C_9  and  C_10 
REMARK    5  A    between atoms: C_10  and  N_11 
REMARK       I    between atoms: N_11  and  C_12 
REMARK    6  A    between atoms: C_12  and  C_13 
REMARK    7  A    between atoms: C_13  and  S_14 
REMARK    8  A    between atoms: S_14  and  C_15 
ROOT
HETATM    1  N   UNL     1      -1.782   4.789 -31.073  1.00  0.00    -0.360 N 
HETATM    2  C   UNL     1      -2.652   4.745 -32.138  1.00  0.00     0.227 C 
HETATM    3  O   UNL     1      -3.149   5.753 -32.636  1.00  0.00    -0.273 OA
HETATM    4  H   UNL     1      -1.540   3.912 -30.608  1.00  0.00     0.162 HD
ENDROOT
BRANCH   2   5
HETATM    5  C   UNL     1      -2.905   3.356 -32.698  1.00  0.00     0.185 C 
BRANCH   5   6
HETATM    6  S   UNL     1      -3.956   2.363 -31.604  1.00  0.00    -0.080 SA
BRANCH   6   7
HETATM    7  C   UNL     1      -5.391   2.192 -32.559  1.00  0.00     0.197 A 
HETATM    8  N   UNL     1      -5.780   1.092 -33.306  1.00  0.00    -0.271 N 
HETATM    9  C   UNL     1      -6.904   1.552 -33.993  1.00  0.00     0.159 A 
HETATM   10  C   UNL     1      -5.291  -0.239 -33.448  1.00  0.00     0.053 A 
HETATM   11  C   UNL     1      -7.554   0.711 -34.925  1.00  0.00     0.054 A 
HETATM   12  N   UNL     1      -7.190   2.782 -33.626  1.00  0.00    -0.129 NA
HETATM   13  C   UNL     1      -7.119  -0.538 -35.130  1.00  0.00     0.017 A 
HETATM   14  C   UNL     1      -5.972  -1.059 -34.377  1.00  0.00    -0.009 A 
HETATM   15  C   UNL     1      -5.562  -2.383 -34.574  1.00  0.00     0.014 A 
HETATM   16  C   UNL     1      -4.490  -2.898 -33.848  1.00  0.00     0.001 A 
HETATM   17  C   UNL     1      -3.829  -2.095 -32.922  1.00  0.00     0.002 A 
HETATM   18  C   UNL     1      -4.225  -0.769 -32.718  1.00  0.00     0.031 A 
HETATM   19  N   UNL     1      -6.249   3.176 -32.722  1.00  0.00    -0.122 NA
ENDBRANCH   6   7
ENDBRANCH   5   6
ENDBRANCH   2   5
BRANCH   1  20
HETATM   20  C   UNL     1      -1.328   6.027 -30.479  1.00  0.00     0.127 C 
BRANCH  20  21
HETATM   21  C   UNL     1       0.007   5.899 -29.741  1.00  0.00     0.058 C 
BRANCH  21  22
HETATM   22  C   UNL     1       0.084   6.905 -28.615  1.00  0.00    -0.054 A 
HETATM   23  C   UNL     1      -0.858   6.877 -27.573  1.00  0.00     0.046 A 
HETATM   24  C   UNL     1      -0.748   7.750 -26.485  1.00  0.00     0.102 A 
HETATM   25  C   UNL     1       0.336   8.641 -26.435  1.00  0.00     0.101 A 
HETATM   26  C   UNL     1       1.256   8.701 -27.485  1.00  0.00     0.040 A 
HETATM   27  C   UNL     1       1.134   7.831 -28.569  1.00  0.00     0.010 A 
BRANCH  24  28
HETATM   28  O   UNL     1      -1.607   7.779 -25.416  1.00  0.00    -0.353 OA
HETATM   29  C   UNL     1      -2.989   7.603 -25.690  1.00  0.00     0.210 C 
ENDBRANCH  24  28
BRANCH  25  30
HETATM   30  O   UNL     1       0.433   9.492 -25.361  1.00  0.00    -0.353 OA
HETATM   31  C   UNL     1       0.337  10.862 -25.746  1.00  0.00     0.210 C 
ENDBRANCH  25  30
ENDBRANCH  21  22
ENDBRANCH  20  21
ENDBRANCH   1  20
TORSDOF 8
ENDMDL
MODEL 9
REMARK VINA RESULT:      -8.0      2.955      9.429
REMARK  8 active torsions:
REMARK  status: ('A' for Active; 'I' for Inactive)
REMARK    1  A    between atoms: O_2  and  C_3 
REMARK    2  A    between atoms: C_4  and  O_5 
REMARK    3  A    between atoms: C_8  and  C_9 
REMARK    4  A    between atoms: C_9  and  C_10 
REMARK    5  A    between atoms: C_10  and  N_11 
REMARK       I    between atoms: N_11  and  C_12 
REMARK    6  A    between atoms: C_12  and  C_13 
REMARK    7  A    between atoms: C_13  and  S_14 
REMARK    8  A    between atoms: S_14  and  C_15 
ROOT
HETATM    1  N   UNL     1      -6.821   2.799 -33.155  1.00  0.00    -0.360 N 
HETATM    2  C   UNL     1      -6.162   3.382 -32.097  1.00  0.00     0.227 C 
HETATM    3  O   UNL     1      -5.998   2.816 -31.018  1.00  0.00    -0.273 OA
HETATM    4  H   UNL     1      -7.064   3.383 -33.957  1.00  0.00     0.162 HD
ENDROOT
BRANCH   2   5
HETATM    5  C   UNL     1      -5.591   4.760 -32.383  1.00  0.00     0.185 C 
BRANCH   5   6
HETATM    6  S   UNL     1      -4.834   5.500 -30.910  1.00  0.00    -0.080 SA
BRANCH   6   7
HETATM    7  C   UNL     1      -3.148   5.266 -31.231  1.00  0.00     0.197 A 
HETATM    8  N   UNL     1      -2.083   5.979 -30.705  1.00  0.00    -0.271 N 
HETATM    9  C   UNL     1      -0.987   5.493 -31.419  1.00  0.00     0.159 A 
HETATM   10  C   UNL     1      -1.953   6.973 -29.691  1.00  0.00     0.053 A 
HETATM   11  C   UNL     1       0.298   6.041 -31.200  1.00  0.00     0.054 A 
HETATM   12  N   UNL     1      -1.365   4.531 -32.232  1.00  0.00    -0.129 NA
HETATM   13  C   UNL     1       0.477   7.004 -30.287  1.00  0.00     0.017 A 
HETATM   14  C   UNL     1      -0.653   7.490 -29.487  1.00  0.00    -0.009 A 
HETATM   15  C   UNL     1      -0.435   8.465 -28.507  1.00  0.00     0.014 A 
HETATM   16  C   UNL     1      -1.494   8.919 -27.723  1.00  0.00     0.001 A 
HETATM   17  C   UNL     1      -2.771   8.398 -27.914  1.00  0.00     0.002 A 
HETATM   18  C   UNL     1      -3.005   7.427 -28.893  1.00  0.00     0.031 A 
HETATM   19  N   UNL     1      -2.714   4.384 -32.106  1.00  0.00    -0.122 NA
ENDBRANCH   6   7
ENDBRANCH   5   6
ENDBRANCH   2   5
BRANCH   1  20
HETATM   20  C   UNL     1      -7.330   1.446 -33.114  1.00  0.00     0.127 C 
BRANCH  20  21
HETATM   21  C   UNL     1      -7.089   0.661 -34.405  1.00  0.00     0.058 C 
BRANCH  21  22
HETATM   22  C   UNL     1      -6.098  -0.454 -34.167  1.00  0.00    -0.054 A 
HETATM   23  C   UNL     1      -5.085  -0.309 -33.203  1.00  0.00     0.046 A 
HETATM   24  C   UNL     1      -4.213  -1.365 -32.916  1.00  0.00     0.102 A 
HETATM   25  C   UNL     1      -4.380  -2.586 -33.588  1.00  0.00     0.101 A 
HETATM   26  C   UNL     1      -5.360  -2.727 -34.575  1.00  0.00     0.040 A 
HETATM   27  C   UNL     1      -6.221  -1.666 -34.858  1.00  0.00     0.010 A 
BRANCH  24  28
HETATM   28  O   UNL     1      -3.212  -1.320 -31.980  1.00  0.00    -0.353 OA
HETATM   29  C   UNL     1      -3.075  -0.119 -31.234  1.00  0.00     0.210 C 
ENDBRANCH  24  28
BRANCH  25  30
HETATM   30  O   UNL     1      -3.517  -3.616 -33.297  1.00  0.00    -0.353 OA
HETATM   31  C   UNL     1      -3.947  -4.855 -33.856  1.00  0.00     0.210 C 
ENDBRANCH  25  30
ENDBRANCH  21  22
ENDBRANCH  20  21
ENDBRANCH   1  20
TORSDOF 8
ENDMDL
MODEL 10
REMARK VINA RESULT:      -8.0      5.118      8.783
REMARK  8 active torsions:
REMARK  status: ('A' for Active; 'I' for Inactive)
REMARK    1  A    between atoms: O_2  and  C_3 
REMARK    2  A    between atoms: C_4  and  O_5 
REMARK    3  A    between atoms: C_8  and  C_9 
REMARK    4  A    between atoms: C_9  and  C_10 
REMARK    5  A    between atoms: C_10  and  N_11 
REMARK       I    between atoms: N_11  and  C_12 
REMARK    6  A    between atoms: C_12  and  C_13 
REMARK    7  A    between atoms: C_13  and  S_14 
REMARK    8  A    between atoms: S_14  and  C_15 
ROOT
HETATM    1  N   UNL     1      -7.433   2.547 -30.822  1.00  0.00    -0.360 N 
HETATM    2  C   UNL     1      -6.152   2.858 -30.428  1.00  0.00     0.227 C 
HETATM    3  O   UNL     1      -5.809   3.995 -30.108  1.00  0.00    -0.273 OA
HETATM    4  H   UNL     1      -7.605   1.626 -31.229  1.00  0.00     0.162 HD
ENDROOT
BRANCH   2   5
HETATM    5  C   UNL     1      -5.202   1.676 -30.353  1.00  0.00     0.185 C 
BRANCH   5   6
HETATM    6  S   UNL     1      -4.157   1.550 -31.829  1.00  0.00    -0.080 SA
BRANCH   6   7
HETATM    7  C   UNL     1      -5.252   0.846 -32.973  1.00  0.00     0.197 A 
HETATM    8  N   UNL     1      -5.244  -0.451 -33.457  1.00  0.00    -0.271 N 
HETATM    9  C   UNL     1      -6.219  -0.426 -34.456  1.00  0.00     0.159 A 
HETATM   10  C   UNL     1      -4.515  -1.632 -33.134  1.00  0.00     0.053 A 
HETATM   11  C   UNL     1      -6.458  -1.579 -35.238  1.00  0.00     0.054 A 
HETATM   12  N   UNL     1      -6.797   0.755 -34.499  1.00  0.00    -0.129 NA
HETATM   13  C   UNL     1      -5.778  -2.708 -35.007  1.00  0.00     0.017 A 
HETATM   14  C   UNL     1      -4.787  -2.771 -33.925  1.00  0.00    -0.009 A 
HETATM   15  C   UNL     1      -4.119  -3.975 -33.672  1.00  0.00     0.014 A 
HETATM   16  C   UNL     1      -3.194  -4.056 -32.633  1.00  0.00     0.001 A 
HETATM   17  C   UNL     1      -2.937  -2.937 -31.844  1.00  0.00     0.002 A 
HETATM   18  C   UNL     1      -3.593  -1.727 -32.089  1.00  0.00     0.031 A 
HETATM   19  N   UNL     1      -6.197   1.546 -33.564  1.00  0.00    -0.122 NA
ENDBRANCH   6   7
ENDBRANCH   5   6
ENDBRANCH   2   5
BRANCH   1  20
HETATM   20  C   UNL     1      -8.507   3.515 -30.842  1.00  0.00     0.127 C 
BRANCH  20  21
HETATM   21  C   UNL     1      -8.937   3.924 -32.253  1.00  0.00     0.058 C 
BRANCH  21  22
HETATM   22  C   UNL     1     -10.115   3.092 -32.706  1.00  0.00    -0.054 A 
HETATM   23  C   UNL     1     -11.427   3.568 -32.538  1.00  0.00     0.046 A 
HETATM   24  C   UNL     1     -12.519   2.845 -33.027  1.00  0.00     0.102 A 
HETATM   25  C   UNL     1     -12.287   1.643 -33.713  1.00  0.00     0.101 A 
HETATM   26  C   UNL     1     -10.989   1.143 -33.851  1.00  0.00     0.040 A 
HETATM   27  C   UNL     1      -9.906   1.869 -33.355  1.00  0.00     0.010 A 
BRANCH  24  28
HETATM   28  O   UNL     1     -13.828   3.242 -32.927  1.00  0.00    -0.353 OA
HETATM   29  C   UNL     1     -14.460   3.081 -31.665  1.00  0.00     0.210 C 
ENDBRANCH  24  28
BRANCH  25  30
HETATM   30  O   UNL     1     -13.369   0.941 -34.189  1.00  0.00    -0.353 OA
HETATM   31  C   UNL     1     -13.445  -0.373 -33.640  1.00  0.00     0.210 C 
ENDBRANCH  25  30
ENDBRANCH  21  22
ENDBRANCH  20  21
ENDBRANCH   1  20
TORSDOF 8
ENDMDL
