MODEL 1
REMARK VINA RESULT:      -8.9      0.000      0.000
REMARK  9 active torsions:
REMARK  status: ('A' for Active; 'I' for Inactive)
REMARK    1  A    between atoms: O_2  and  C_3 
REMARK    2  A    between atoms: C_4  and  O_5 
REMARK    3  A    between atoms: C_6  and  C_7 
REMARK    4  A    between atoms: N_8  and  N_9 
REMARK       I    between atoms: N_9  and  C_10 
REMARK    5  A    between atoms: C_10  and  C_11 
REMARK    6  A    between atoms: C_11  and  N_12 
REMARK       I    between atoms: N_12  and  C_13 
REMARK    7  A    between atoms: C_13  and  C_14 
REMARK    8  A    between atoms: C_15  and  C_16 
REMARK    9  A    between atoms: C_15  and  C_22 
ROOT
HETATM    1  N   UNL     1      -9.408   1.646 -34.609  1.00  0.00    -0.352 N 
HETATM    2  C   UNL     1      -9.090   0.447 -34.023  1.00  0.00     0.223 C 
HETATM    3  O   UNL     1      -9.617   0.039 -32.996  1.00  0.00    -0.273 OA
HETATM    4  H   UNL     1      -8.884   1.974 -35.408  1.00  0.00     0.162 HD
ENDROOT
BRANCH   1   5
HETATM    5  C   UNL     1     -10.528   2.443 -34.151  1.00  0.00     0.227 C 
BRANCH   5   6
HETATM    6  C   UNL     1     -10.122   3.654 -33.316  1.00  0.00     0.255 C 
HETATM    7  N   UNL     1      -8.748   3.755 -33.161  1.00  0.00    -0.246 N 
HETATM    8  H   UNL     1      -8.132   3.158 -33.721  1.00  0.00     0.192 HD
HETATM    9  O   UNL     1     -10.963   4.404 -32.822  1.00  0.00    -0.270 OA
BRANCH   7  10
HETATM   10  N   UNL     1      -8.224   4.608 -32.239  1.00  0.00    -0.184 NA
HETATM   11  C   UNL     1      -7.927   4.066 -31.098  1.00  0.00     0.153 C 
BRANCH  11  12
HETATM   12  C   UNL     1      -7.420   4.878 -29.973  1.00  0.00     0.019 A 
HETATM   13  C   UNL     1      -8.297   5.654 -29.213  1.00  0.00     0.110 A 
HETATM   14  C   UNL     1      -7.820   6.471 -28.177  1.00  0.00     0.102 A 
HETATM   15  C   UNL     1      -6.453   6.488 -27.893  1.00  0.00     0.040 A 
HETATM   16  C   UNL     1      -5.572   5.706 -28.646  1.00  0.00     0.004 A 
HETATM   17  C   UNL     1      -6.052   4.906 -29.686  1.00  0.00     0.016 A 
BRANCH  13  18
HETATM   18  O   UNL     1      -9.642   5.650 -29.483  1.00  0.00    -0.357 OA
HETATM   19  H   UNL     1      -9.708   5.664 -30.459  1.00  0.00     0.218 HD
ENDBRANCH  13  18
BRANCH  14  20
HETATM   20  O   UNL     1      -8.786   7.198 -27.525  1.00  0.00    -0.353 OA
HETATM   21  C   UNL     1      -8.638   8.614 -27.546  1.00  0.00     0.210 C 
ENDBRANCH  14  20
ENDBRANCH  11  12
ENDBRANCH   7  10
ENDBRANCH   5   6
ENDBRANCH   1   5
BRANCH   2  22
HETATM   22  C   UNL     1      -8.048  -0.308 -34.756  1.00  0.00     0.097 A 
HETATM   23  C   UNL     1      -6.664  -0.555 -34.132  1.00  0.00     0.027 A 
HETATM   24  C   UNL     1      -6.843   0.345 -35.356  1.00  0.00     0.035 A 
BRANCH  23  25
HETATM   25  C   UNL     1      -6.199   0.154 -32.854  1.00  0.00    -0.044 A 
HETATM   26  C   UNL     1      -6.453  -0.364 -31.571  1.00  0.00     0.008 A 
HETATM   27  C   UNL     1      -6.005   0.286 -30.418  1.00  0.00     0.001 A 
HETATM   28  C   UNL     1      -5.274   1.467 -30.521  1.00  0.00     0.000 A 
HETATM   29  C   UNL     1      -4.990   1.994 -31.776  1.00  0.00     0.001 A 
HETATM   30  C   UNL     1      -5.447   1.343 -32.924  1.00  0.00     0.008 A 
ENDBRANCH  23  25
BRANCH  23  31
HETATM   31  C   UNL     1      -6.118  -1.975 -34.308  1.00  0.00    -0.044 A 
HETATM   32  C   UNL     1      -4.759  -2.280 -34.119  1.00  0.00     0.008 A 
HETATM   33  C   UNL     1      -4.278  -3.584 -34.268  1.00  0.00     0.001 A 
HETATM   34  C   UNL     1      -5.149  -4.615 -34.606  1.00  0.00     0.000 A 
HETATM   35  C   UNL     1      -6.500  -4.346 -34.791  1.00  0.00     0.001 A 
HETATM   36  C   UNL     1      -6.976  -3.041 -34.640  1.00  0.00     0.008 A 
ENDBRANCH  23  31
ENDBRANCH   2  22
TORSDOF 9
ENDMDL
MODEL 2
REMARK VINA RESULT:      -8.8      3.287      4.107
REMARK  9 active torsions:
REMARK  status: ('A' for Active; 'I' for Inactive)
REMARK    1  A    between atoms: O_2  and  C_3 
REMARK    2  A    between atoms: C_4  and  O_5 
REMARK    3  A    between atoms: C_6  and  C_7 
REMARK    4  A    between atoms: N_8  and  N_9 
REMARK       I    between atoms: N_9  and  C_10 
REMARK    5  A    between atoms: C_10  and  C_11 
REMARK    6  A    between atoms: C_11  and  N_12 
REMARK       I    between atoms: N_12  and  C_13 
REMARK    7  A    between atoms: C_13  and  C_14 
REMARK    8  A    between atoms: C_15  and  C_16 
REMARK    9  A    between atoms: C_15  and  C_22 
ROOT
HETATM    1  N   UNL     1      -8.098   2.104 -33.285  1.00  0.00    -0.352 N 
HETATM    2  C   UNL     1      -8.264   0.774 -32.994  1.00  0.00     0.223 C 
HETATM    3  O   UNL     1      -8.816   0.370 -31.979  1.00  0.00    -0.273 OA
HETATM    4  H   UNL     1      -7.560   2.382 -34.095  1.00  0.00     0.162 HD
ENDROOT
BRANCH   1   5
HETATM    5  C   UNL     1      -8.727   3.140 -32.492  1.00  0.00     0.227 C 
BRANCH   5   6
HETATM    6  C   UNL     1      -7.760   4.216 -32.005  1.00  0.00     0.255 C 
HETATM    7  N   UNL     1      -6.701   4.411 -32.878  1.00  0.00    -0.246 N 
HETATM    8  H   UNL     1      -6.727   3.981 -33.807  1.00  0.00     0.192 HD
HETATM    9  O   UNL     1      -7.926   4.787 -30.928  1.00  0.00    -0.270 OA
BRANCH   7  10
HETATM   10  N   UNL     1      -5.615   5.131 -32.484  1.00  0.00    -0.184 NA
HETATM   11  C   UNL     1      -4.575   5.018 -33.251  1.00  0.00     0.153 C 
BRANCH  11  12
HETATM   12  C   UNL     1      -3.299   5.680 -32.914  1.00  0.00     0.019 A 
HETATM   13  C   UNL     1      -2.771   5.579 -31.626  1.00  0.00     0.110 A 
HETATM   14  C   UNL     1      -1.587   6.247 -31.279  1.00  0.00     0.102 A 
HETATM   15  C   UNL     1      -0.922   7.006 -32.244  1.00  0.00     0.040 A 
HETATM   16  C   UNL     1      -1.442   7.103 -33.539  1.00  0.00     0.004 A 
HETATM   17  C   UNL     1      -2.629   6.447 -33.872  1.00  0.00     0.016 A 
BRANCH  13  18
HETATM   18  O   UNL     1      -3.416   4.839 -30.666  1.00  0.00    -0.357 OA
HETATM   19  H   UNL     1      -3.841   4.105 -31.152  1.00  0.00     0.218 HD
ENDBRANCH  13  18
BRANCH  14  20
HETATM   20  O   UNL     1      -1.192   6.080 -29.974  1.00  0.00    -0.353 OA
HETATM   21  C   UNL     1       0.156   5.674 -29.764  1.00  0.00     0.210 C 
ENDBRANCH  14  20
ENDBRANCH  11  12
ENDBRANCH   7  10
ENDBRANCH   5   6
ENDBRANCH   1   5
BRANCH   2  22
HETATM   22  C   UNL     1      -7.712  -0.128 -34.032  1.00  0.00     0.097 A 
HETATM   23  C   UNL     1      -6.252  -0.606 -33.969  1.00  0.00     0.027 A 
HETATM   24  C   UNL     1      -6.742   0.331 -35.074  1.00  0.00     0.035 A 
BRANCH  23  25
HETATM   25  C   UNL     1      -5.229  -0.002 -32.999  1.00  0.00    -0.044 A 
HETATM   26  C   UNL     1      -4.549   1.199 -33.272  1.00  0.00     0.008 A 
HETATM   27  C   UNL     1      -3.634   1.744 -32.368  1.00  0.00     0.001 A 
HETATM   28  C   UNL     1      -3.388   1.107 -31.155  1.00  0.00     0.000 A 
HETATM   29  C   UNL     1      -4.058  -0.071 -30.846  1.00  0.00     0.001 A 
HETATM   30  C   UNL     1      -4.967  -0.614 -31.757  1.00  0.00     0.008 A 
ENDBRANCH  23  25
BRANCH  23  31
HETATM   31  C   UNL     1      -6.042  -2.092 -34.271  1.00  0.00    -0.044 A 
HETATM   32  C   UNL     1      -7.112  -2.945 -34.596  1.00  0.00     0.008 A 
HETATM   33  C   UNL     1      -6.903  -4.297 -34.884  1.00  0.00     0.001 A 
HETATM   34  C   UNL     1      -5.616  -4.826 -34.857  1.00  0.00     0.000 A 
HETATM   35  C   UNL     1      -4.537  -4.005 -34.547  1.00  0.00     0.001 A 
HETATM   36  C   UNL     1      -4.751  -2.655 -34.261  1.00  0.00     0.008 A 
ENDBRANCH  23  31
ENDBRANCH   2  22
TORSDOF 9
ENDMDL
MODEL 3
REMARK VINA RESULT:      -8.8      2.782      3.479
REMARK  9 active torsions:
REMARK  status: ('A' for Active; 'I' for Inactive)
REMARK    1  A    between atoms: O_2  and  C_3 
REMARK    2  A    between atoms: C_4  and  O_5 
REMARK    3  A    between atoms: C_6  and  C_7 
REMARK    4  A    between atoms: N_8  and  N_9 
REMARK       I    between atoms: N_9  and  C_10 
REMARK    5  A    between atoms: C_10  and  C_11 
REMARK    6  A    between atoms: C_11  and  N_12 
REMARK       I    between atoms: N_12  and  C_13 
REMARK    7  A    between atoms: C_13  and  C_14 
REMARK    8  A    between atoms: C_15  and  C_16 
REMARK    9  A    between atoms: C_15  and  C_22 
ROOT
HETATM    1  N   UNL     1      -9.067   1.884 -34.605  1.00  0.00    -0.352 N 
HETATM    2  C   UNL     1      -8.962   0.616 -34.095  1.00  0.00     0.223 C 
HETATM    3  O   UNL     1      -9.614   0.219 -33.137  1.00  0.00    -0.273 OA
HETATM    4  H   UNL     1      -8.444   2.186 -35.343  1.00  0.00     0.162 HD
ENDROOT
BRANCH   1   5
HETATM    5  C   UNL     1     -10.094   2.802 -34.158  1.00  0.00     0.227 C 
BRANCH   5   6
HETATM    6  C   UNL     1      -9.549   4.044 -33.458  1.00  0.00     0.255 C 
HETATM    7  N   UNL     1      -8.307   4.424 -33.943  1.00  0.00    -0.246 N 
HETATM    8  H   UNL     1      -7.943   3.987 -34.794  1.00  0.00     0.192 HD
HETATM    9  O   UNL     1     -10.165   4.585 -32.541  1.00  0.00    -0.270 OA
BRANCH   7  10
HETATM   10  N   UNL     1      -7.559   5.337 -33.266  1.00  0.00    -0.184 NA
HETATM   11  C   UNL     1      -6.279   5.130 -33.298  1.00  0.00     0.153 C 
BRANCH  11  12
HETATM   12  C   UNL     1      -5.344   5.993 -32.549  1.00  0.00     0.019 A 
HETATM   13  C   UNL     1      -4.116   6.353 -33.108  1.00  0.00     0.110 A 
HETATM   14  C   UNL     1      -3.197   7.128 -32.385  1.00  0.00     0.102 A 
HETATM   15  C   UNL     1      -3.527   7.557 -31.098  1.00  0.00     0.040 A 
HETATM   16  C   UNL     1      -4.759   7.206 -30.537  1.00  0.00     0.004 A 
HETATM   17  C   UNL     1      -5.663   6.423 -31.258  1.00  0.00     0.016 A 
BRANCH  13  18
HETATM   18  O   UNL     1      -3.777   5.935 -34.370  1.00  0.00    -0.357 OA
HETATM   19  H   UNL     1      -3.672   6.756 -34.892  1.00  0.00     0.218 HD
ENDBRANCH  13  18
BRANCH  14  20
HETATM   20  O   UNL     1      -2.021   7.390 -33.044  1.00  0.00    -0.353 OA
HETATM   21  C   UNL     1      -0.835   6.852 -32.468  1.00  0.00     0.210 C 
ENDBRANCH  14  20
ENDBRANCH  11  12
ENDBRANCH   7  10
ENDBRANCH   5   6
ENDBRANCH   1   5
BRANCH   2  22
HETATM   22  C   UNL     1      -7.985  -0.231 -34.818  1.00  0.00     0.097 A 
HETATM   23  C   UNL     1      -6.609  -0.546 -34.208  1.00  0.00     0.027 A 
HETATM   24  C   UNL     1      -6.752   0.321 -35.460  1.00  0.00     0.035 A 
BRANCH  23  25
HETATM   25  C   UNL     1      -6.074   0.175 -32.965  1.00  0.00    -0.044 A 
HETATM   26  C   UNL     1      -5.373   1.392 -33.043  1.00  0.00     0.008 A 
HETATM   27  C   UNL     1      -4.910   2.044 -31.897  1.00  0.00     0.001 A 
HETATM   28  C   UNL     1      -5.151   1.501 -30.638  1.00  0.00     0.000 A 
HETATM   29  C   UNL     1      -5.858   0.309 -30.526  1.00  0.00     0.001 A 
HETATM   30  C   UNL     1      -6.313  -0.341 -31.676  1.00  0.00     0.008 A 
ENDBRANCH  23  25
BRANCH  23  31
HETATM   31  C   UNL     1      -6.159  -2.004 -34.342  1.00  0.00    -0.044 A 
HETATM   32  C   UNL     1      -7.064  -3.040 -34.630  1.00  0.00     0.008 A 
HETATM   33  C   UNL     1      -6.637  -4.364 -34.764  1.00  0.00     0.001 A 
HETATM   34  C   UNL     1      -5.290  -4.681 -34.615  1.00  0.00     0.000 A 
HETATM   35  C   UNL     1      -4.369  -3.676 -34.338  1.00  0.00     0.001 A 
HETATM   36  C   UNL     1      -4.802  -2.355 -34.206  1.00  0.00     0.008 A 
ENDBRANCH  23  31
ENDBRANCH   2  22
TORSDOF 9
ENDMDL
MODEL 4
REMARK VINA RESULT:      -8.5      4.028      5.652
REMARK  9 active torsions:
REMARK  status: ('A' for Active; 'I' for Inactive)
REMARK    1  A    between atoms: O_2  and  C_3 
REMARK    2  A    between atoms: C_4  and  O_5 
REMARK    3  A    between atoms: C_6  and  C_7 
REMARK    4  A    between atoms: N_8  and  N_9 
REMARK       I    between atoms: N_9  and  C_10 
REMARK    5  A    between atoms: C_10  and  C_11 
REMARK    6  A    between atoms: C_11  and  N_12 
REMARK       I    between atoms: N_12  and  C_13 
REMARK    7  A    between atoms: C_13  and  C_14 
REMARK    8  A    between atoms: C_15  and  C_16 
REMARK    9  A    between atoms: C_15  and  C_22 
ROOT
HETATM    1  N   UNL     1      -9.050   2.055 -34.437  1.00  0.00    -0.352 N 
HETATM    2  C   UNL     1      -9.076   0.726 -34.100  1.00  0.00     0.223 C 
HETATM    3  O   UNL     1      -9.867   0.250 -33.296  1.00  0.00    -0.273 OA
HETATM    4  H   UNL     1      -8.322   2.410 -35.043  1.00  0.00     0.162 HD
ENDROOT
BRANCH   1   5
HETATM    5  C   UNL     1     -10.082   2.971 -33.998  1.00  0.00     0.227 C 
BRANCH   5   6
HETATM    6  C   UNL     1      -9.772   4.436 -34.293  1.00  0.00     0.255 C 
HETATM    7  N   UNL     1     -10.918   5.206 -34.416  1.00  0.00    -0.246 N 
HETATM    8  H   UNL     1     -11.823   4.810 -34.147  1.00  0.00     0.192 HD
HETATM    9  O   UNL     1      -8.615   4.830 -34.438  1.00  0.00    -0.270 OA
BRANCH   7  10
HETATM   10  N   UNL     1     -10.845   6.462 -34.935  1.00  0.00    -0.184 NA
HETATM   11  C   UNL     1     -11.859   6.815 -35.663  1.00  0.00     0.153 C 
BRANCH  11  12
HETATM   12  C   UNL     1     -11.891   8.119 -36.354  1.00  0.00     0.019 A 
HETATM   13  C   UNL     1     -10.774   8.570 -37.060  1.00  0.00     0.110 A 
HETATM   14  C   UNL     1     -10.773   9.830 -37.676  1.00  0.00     0.102 A 
HETATM   15  C   UNL     1     -11.913  10.633 -37.594  1.00  0.00     0.040 A 
HETATM   16  C   UNL     1     -13.037  10.182 -36.895  1.00  0.00     0.004 A 
HETATM   17  C   UNL     1     -13.026   8.932 -36.272  1.00  0.00     0.016 A 
BRANCH  13  18
HETATM   18  O   UNL     1      -9.645   7.794 -37.146  1.00  0.00    -0.357 OA
HETATM   19  H   UNL     1      -9.891   6.940 -36.736  1.00  0.00     0.218 HD
ENDBRANCH  13  18
BRANCH  14  20
HETATM   20  O   UNL     1      -9.603  10.157 -38.317  1.00  0.00    -0.353 OA
HETATM   21  C   UNL     1      -8.801  11.161 -37.705  1.00  0.00     0.210 C 
ENDBRANCH  14  20
ENDBRANCH  11  12
ENDBRANCH   7  10
ENDBRANCH   5   6
ENDBRANCH   1   5
BRANCH   2  22
HETATM   22  C   UNL     1      -8.055  -0.081 -34.807  1.00  0.00     0.097 A 
HETATM   23  C   UNL     1      -6.709  -0.412 -34.142  1.00  0.00     0.027 A 
HETATM   24  C   UNL     1      -6.795   0.508 -35.360  1.00  0.00     0.035 A 
BRANCH  23  25
HETATM   25  C   UNL     1      -6.247   0.257 -32.841  1.00  0.00    -0.044 A 
HETATM   26  C   UNL     1      -6.520  -0.290 -31.575  1.00  0.00     0.008 A 
HETATM   27  C   UNL     1      -6.075   0.324 -30.401  1.00  0.00     0.001 A 
HETATM   28  C   UNL     1      -5.327   1.497 -30.466  1.00  0.00     0.000 A 
HETATM   29  C   UNL     1      -5.024   2.052 -31.704  1.00  0.00     0.001 A 
HETATM   30  C   UNL     1      -5.477   1.437 -32.873  1.00  0.00     0.008 A 
ENDBRANCH  23  25
BRANCH  23  31
HETATM   31  C   UNL     1      -6.239  -1.859 -34.315  1.00  0.00    -0.044 A 
HETATM   32  C   UNL     1      -7.135  -2.907 -34.588  1.00  0.00     0.008 A 
HETATM   33  C   UNL     1      -6.690  -4.221 -34.758  1.00  0.00     0.001 A 
HETATM   34  C   UNL     1      -5.333  -4.516 -34.664  1.00  0.00     0.000 A 
HETATM   35  C   UNL     1      -4.421  -3.499 -34.403  1.00  0.00     0.001 A 
HETATM   36  C   UNL     1      -4.871  -2.187 -34.234  1.00  0.00     0.008 A 
ENDBRANCH  23  31
ENDBRANCH   2  22
TORSDOF 9
ENDMDL
MODEL 5
REMARK VINA RESULT:      -8.3      3.907      5.094
REMARK  9 active torsions:
REMARK  status: ('A' for Active; 'I' for Inactive)
REMARK    1  A    between atoms: O_2  and  C_3 
REMARK    2  A    between atoms: C_4  and  O_5 
REMARK    3  A    between atoms: C_6  and  C_7 
REMARK    4  A    between atoms: N_8  and  N_9 
REMARK       I    between atoms: N_9  and  C_10 
REMARK    5  A    between atoms: C_10  and  C_11 
REMARK    6  A    between atoms: C_11  and  N_12 
REMARK       I    between atoms: N_12  and  C_13 
REMARK    7  A    between atoms: C_13  and  C_14 
REMARK    8  A    between atoms: C_15  and  C_16 
REMARK    9  A    between atoms: C_15  and  C_22 
ROOT
HETATM    1  N   UNL     1      -5.372   2.534 -33.636  1.00  0.00    -0.352 N 
HETATM    2  C   UNL     1      -5.730   2.030 -32.412  1.00  0.00     0.223 C 
HETATM    3  O   UNL     1      -6.115   2.728 -31.482  1.00  0.00    -0.273 OA
HETATM    4  H   UNL     1      -4.982   1.923 -34.341  1.00  0.00     0.162 HD
ENDROOT
BRANCH   1   5
HETATM    5  C   UNL     1      -5.593   3.923 -33.980  1.00  0.00     0.227 C 
BRANCH   5   6
HETATM    6  C   UNL     1      -4.378   4.817 -33.746  1.00  0.00     0.255 C 
HETATM    7  N   UNL     1      -3.371   4.170 -33.046  1.00  0.00    -0.246 N 
HETATM    8  H   UNL     1      -3.430   3.159 -32.897  1.00  0.00     0.192 HD
HETATM    9  O   UNL     1      -4.362   5.989 -34.120  1.00  0.00    -0.270 OA
BRANCH   7  10
HETATM   10  N   UNL     1      -2.338   4.883 -32.520  1.00  0.00    -0.184 NA
HETATM   11  C   UNL     1      -2.458   5.178 -31.263  1.00  0.00     0.153 C 
BRANCH  11  12
HETATM   12  C   UNL     1      -1.453   6.010 -30.571  1.00  0.00     0.019 A 
HETATM   13  C   UNL     1      -1.802   6.733 -29.429  1.00  0.00     0.110 A 
HETATM   14  C   UNL     1      -0.871   7.568 -28.794  1.00  0.00     0.102 A 
HETATM   15  C   UNL     1       0.425   7.659 -29.304  1.00  0.00     0.040 A 
HETATM   16  C   UNL     1       0.783   6.931 -30.443  1.00  0.00     0.004 A 
HETATM   17  C   UNL     1      -0.154   6.112 -31.078  1.00  0.00     0.016 A 
BRANCH  13  18
HETATM   18  O   UNL     1      -3.074   6.656 -28.919  1.00  0.00    -0.357 OA
HETATM   19  H   UNL     1      -2.996   6.095 -28.121  1.00  0.00     0.218 HD
ENDBRANCH  13  18
BRANCH  14  20
HETATM   20  O   UNL     1      -1.353   8.238 -27.696  1.00  0.00    -0.353 OA
HETATM   21  C   UNL     1      -1.360   9.660 -27.770  1.00  0.00     0.210 C 
ENDBRANCH  14  20
ENDBRANCH  11  12
ENDBRANCH   7  10
ENDBRANCH   5   6
ENDBRANCH   1   5
BRANCH   2  22
HETATM   22  C   UNL     1      -5.612   0.556 -32.324  1.00  0.00     0.097 A 
HETATM   23  C   UNL     1      -6.732  -0.359 -32.846  1.00  0.00     0.027 A 
HETATM   24  C   UNL     1      -6.403  -0.265 -31.356  1.00  0.00     0.035 A 
BRANCH  23  25
HETATM   25  C   UNL     1      -8.111   0.176 -33.252  1.00  0.00    -0.044 A 
HETATM   26  C   UNL     1      -8.330   0.845 -34.470  1.00  0.00     0.008 A 
HETATM   27  C   UNL     1      -9.597   1.309 -34.832  1.00  0.00     0.001 A 
HETATM   28  C   UNL     1     -10.685   1.100 -33.989  1.00  0.00     0.000 A 
HETATM   29  C   UNL     1     -10.504   0.426 -32.786  1.00  0.00     0.001 A 
HETATM   30  C   UNL     1      -9.234  -0.030 -32.428  1.00  0.00     0.008 A 
ENDBRANCH  23  25
BRANCH  23  31
HETATM   31  C   UNL     1      -6.256  -1.570 -33.654  1.00  0.00    -0.044 A 
HETATM   32  C   UNL     1      -4.892  -1.830 -33.875  1.00  0.00     0.008 A 
HETATM   33  C   UNL     1      -4.471  -2.947 -34.601  1.00  0.00     0.001 A 
HETATM   34  C   UNL     1      -5.409  -3.835 -35.121  1.00  0.00     0.000 A 
HETATM   35  C   UNL     1      -6.765  -3.610 -34.912  1.00  0.00     0.001 A 
HETATM   36  C   UNL     1      -7.180  -2.491 -34.185  1.00  0.00     0.008 A 
ENDBRANCH  23  31
ENDBRANCH   2  22
TORSDOF 9
ENDMDL
MODEL 6
REMARK VINA RESULT:      -8.3      4.712      6.058
REMARK  9 active torsions:
REMARK  status: ('A' for Active; 'I' for Inactive)
REMARK    1  A    between atoms: O_2  and  C_3 
REMARK    2  A    between atoms: C_4  and  O_5 
REMARK    3  A    between atoms: C_6  and  C_7 
REMARK    4  A    between atoms: N_8  and  N_9 
REMARK       I    between atoms: N_9  and  C_10 
REMARK    5  A    between atoms: C_10  and  C_11 
REMARK    6  A    between atoms: C_11  and  N_12 
REMARK       I    between atoms: N_12  and  C_13 
REMARK    7  A    between atoms: C_13  and  C_14 
REMARK    8  A    between atoms: C_15  and  C_16 
REMARK    9  A    between atoms: C_15  and  C_22 
ROOT
HETATM    1  N   UNL     1      -3.792   2.598 -32.565  1.00  0.00    -0.352 N 
HETATM    2  C   UNL     1      -4.521   2.082 -31.525  1.00  0.00     0.223 C 
HETATM    3  O   UNL     1      -4.930   2.757 -30.589  1.00  0.00    -0.273 OA
HETATM    4  H   UNL     1      -3.407   1.982 -33.268  1.00  0.00     0.162 HD
ENDROOT
BRANCH   1   5
HETATM    5  C   UNL     1      -3.602   4.025 -32.727  1.00  0.00     0.227 C 
BRANCH   5   6
HETATM    6  C   UNL     1      -2.404   4.578 -31.959  1.00  0.00     0.255 C 
HETATM    7  N   UNL     1      -2.771   5.178 -30.765  1.00  0.00    -0.246 N 
HETATM    8  H   UNL     1      -3.727   5.064 -30.416  1.00  0.00     0.192 HD
HETATM    9  O   UNL     1      -1.264   4.511 -32.416  1.00  0.00    -0.270 OA
BRANCH   7  10
HETATM   10  N   UNL     1      -1.880   5.951 -30.086  1.00  0.00    -0.184 NA
HETATM   11  C   UNL     1      -2.406   6.766 -29.225  1.00  0.00     0.153 C 
BRANCH  11  12
HETATM   12  C   UNL     1      -1.573   7.721 -28.466  1.00  0.00     0.019 A 
HETATM   13  C   UNL     1      -0.584   7.257 -27.597  1.00  0.00     0.110 A 
HETATM   14  C   UNL     1       0.177   8.152 -26.830  1.00  0.00     0.102 A 
HETATM   15  C   UNL     1      -0.049   9.524 -26.956  1.00  0.00     0.040 A 
HETATM   16  C   UNL     1      -1.033   9.994 -27.831  1.00  0.00     0.004 A 
HETATM   17  C   UNL     1      -1.797   9.097 -28.581  1.00  0.00     0.016 A 
BRANCH  13  18
HETATM   18  O   UNL     1      -0.353   5.911 -27.461  1.00  0.00    -0.357 OA
HETATM   19  H   UNL     1       0.513   5.756 -27.888  1.00  0.00     0.218 HD
ENDBRANCH  13  18
BRANCH  14  20
HETATM   20  O   UNL     1       1.099   7.561 -26.002  1.00  0.00    -0.353 OA
HETATM   21  C   UNL     1       2.184   8.378 -25.572  1.00  0.00     0.210 C 
ENDBRANCH  14  20
ENDBRANCH  11  12
ENDBRANCH   7  10
ENDBRANCH   5   6
ENDBRANCH   1   5
BRANCH   2  22
HETATM   22  C   UNL     1      -4.769   0.626 -31.645  1.00  0.00     0.097 A 
HETATM   23  C   UNL     1      -6.067   0.096 -32.277  1.00  0.00     0.027 A 
HETATM   24  C   UNL     1      -5.760  -0.101 -30.792  1.00  0.00     0.035 A 
BRANCH  23  25
HETATM   25  C   UNL     1      -7.262   1.005 -32.589  1.00  0.00    -0.044 A 
HETATM   26  C   UNL     1      -7.318   1.806 -33.744  1.00  0.00     0.008 A 
HETATM   27  C   UNL     1      -8.424   2.614 -34.021  1.00  0.00     0.001 A 
HETATM   28  C   UNL     1      -9.514   2.628 -33.155  1.00  0.00     0.000 A 
HETATM   29  C   UNL     1      -9.498   1.832 -32.015  1.00  0.00     0.001 A 
HETATM   30  C   UNL     1      -8.386   1.032 -31.740  1.00  0.00     0.008 A 
ENDBRANCH  23  25
BRANCH  23  31
HETATM   31  C   UNL     1      -5.883  -1.072 -33.251  1.00  0.00    -0.044 A 
HETATM   32  C   UNL     1      -4.614  -1.587 -33.567  1.00  0.00     0.008 A 
HETATM   33  C   UNL     1      -4.463  -2.663 -34.446  1.00  0.00     0.001 A 
HETATM   34  C   UNL     1      -5.582  -3.251 -35.028  1.00  0.00     0.000 A 
HETATM   35  C   UNL     1      -6.851  -2.769 -34.729  1.00  0.00     0.001 A 
HETATM   36  C   UNL     1      -6.997  -1.694 -33.849  1.00  0.00     0.008 A 
ENDBRANCH  23  31
ENDBRANCH   2  22
TORSDOF 9
ENDMDL
MODEL 7
REMARK VINA RESULT:      -8.0      1.829      2.387
REMARK  9 active torsions:
REMARK  status: ('A' for Active; 'I' for Inactive)
REMARK    1  A    between atoms: O_2  and  C_3 
REMARK    2  A    between atoms: C_4  and  O_5 
REMARK    3  A    between atoms: C_6  and  C_7 
REMARK    4  A    between atoms: N_8  and  N_9 
REMARK       I    between atoms: N_9  and  C_10 
REMARK    5  A    between atoms: C_10  and  C_11 
REMARK    6  A    between atoms: C_11  and  N_12 
REMARK       I    between atoms: N_12  and  C_13 
REMARK    7  A    between atoms: C_13  and  C_14 
REMARK    8  A    between atoms: C_15  and  C_16 
REMARK    9  A    between atoms: C_15  and  C_22 
ROOT
HETATM    1  N   UNL     1      -8.625   1.833 -33.057  1.00  0.00    -0.352 N 
HETATM    2  C   UNL     1      -8.881   0.487 -33.034  1.00  0.00     0.223 C 
HETATM    3  O   UNL     1      -9.667  -0.036 -32.253  1.00  0.00    -0.273 OA
HETATM    4  H   UNL     1      -7.905   2.201 -33.665  1.00  0.00     0.162 HD
ENDROOT
BRANCH   1   5
HETATM    5  C   UNL     1      -9.402   2.770 -32.273  1.00  0.00     0.227 C 
BRANCH   5   6
HETATM    6  C   UNL     1      -8.720   3.208 -30.980  1.00  0.00     0.255 C 
HETATM    7  N   UNL     1      -9.221   4.406 -30.496  1.00  0.00    -0.246 N 
HETATM    8  H   UNL     1     -10.072   4.800 -30.907  1.00  0.00     0.192 HD
HETATM    9  O   UNL     1      -7.800   2.556 -30.487  1.00  0.00    -0.270 OA
BRANCH   7  10
HETATM   10  N   UNL     1      -8.560   5.077 -29.513  1.00  0.00    -0.184 NA
HETATM   11  C   UNL     1      -7.785   6.031 -29.926  1.00  0.00     0.153 C 
BRANCH  11  12
HETATM   12  C   UNL     1      -6.947   6.800 -28.984  1.00  0.00     0.019 A 
HETATM   13  C   UNL     1      -5.912   6.172 -28.288  1.00  0.00     0.110 A 
HETATM   14  C   UNL     1      -5.143   6.879 -27.352  1.00  0.00     0.102 A 
HETATM   15  C   UNL     1      -5.408   8.232 -27.130  1.00  0.00     0.040 A 
HETATM   16  C   UNL     1      -6.437   8.867 -27.831  1.00  0.00     0.004 A 
HETATM   17  C   UNL     1      -7.208   8.154 -28.752  1.00  0.00     0.016 A 
BRANCH  13  18
HETATM   18  O   UNL     1      -5.643   4.842 -28.493  1.00  0.00    -0.357 OA
HETATM   19  H   UNL     1      -6.482   4.378 -28.296  1.00  0.00     0.218 HD
ENDBRANCH  13  18
BRANCH  14  20
HETATM   20  O   UNL     1      -4.175   6.135 -26.723  1.00  0.00    -0.353 OA
HETATM   21  C   UNL     1      -2.976   6.819 -26.370  1.00  0.00     0.210 C 
ENDBRANCH  14  20
ENDBRANCH  11  12
ENDBRANCH   7  10
ENDBRANCH   5   6
ENDBRANCH   1   5
BRANCH   2  22
HETATM   22  C   UNL     1      -8.118  -0.276 -34.049  1.00  0.00     0.097 A 
HETATM   23  C   UNL     1      -6.614  -0.541 -33.872  1.00  0.00     0.027 A 
HETATM   24  C   UNL     1      -7.143   0.368 -34.983  1.00  0.00     0.035 A 
BRANCH  23  25
HETATM   25  C   UNL     1      -5.776   0.156 -32.793  1.00  0.00    -0.044 A 
HETATM   26  C   UNL     1      -5.685  -0.334 -31.478  1.00  0.00     0.008 A 
HETATM   27  C   UNL     1      -4.902   0.304 -30.512  1.00  0.00     0.001 A 
HETATM   28  C   UNL     1      -4.174   1.443 -30.844  1.00  0.00     0.000 A 
HETATM   29  C   UNL     1      -4.228   1.942 -32.141  1.00  0.00     0.001 A 
HETATM   30  C   UNL     1      -5.018   1.303 -33.100  1.00  0.00     0.008 A 
ENDBRANCH  23  25
BRANCH  23  31
HETATM   31  C   UNL     1      -6.163  -1.966 -34.207  1.00  0.00    -0.044 A 
HETATM   32  C   UNL     1      -4.810  -2.347 -34.175  1.00  0.00     0.008 A 
HETATM   33  C   UNL     1      -4.415  -3.655 -34.468  1.00  0.00     0.001 A 
HETATM   34  C   UNL     1      -5.367  -4.615 -34.797  1.00  0.00     0.000 A 
HETATM   35  C   UNL     1      -6.714  -4.270 -34.828  1.00  0.00     0.001 A 
HETATM   36  C   UNL     1      -7.104  -2.961 -34.534  1.00  0.00     0.008 A 
ENDBRANCH  23  31
ENDBRANCH   2  22
TORSDOF 9
ENDMDL
MODEL 8
REMARK VINA RESULT:      -7.9      2.751      4.921
REMARK  9 active torsions:
REMARK  status: ('A' for Active; 'I' for Inactive)
REMARK    1  A    between atoms: O_2  and  C_3 
REMARK    2  A    between atoms: C_4  and  O_5 
REMARK    3  A    between atoms: C_6  and  C_7 
REMARK    4  A    between atoms: N_8  and  N_9 
REMARK       I    between atoms: N_9  and  C_10 
REMARK    5  A    between atoms: C_10  and  C_11 
REMARK    6  A    between atoms: C_11  and  N_12 
REMARK       I    between atoms: N_12  and  C_13 
REMARK    7  A    between atoms: C_13  and  C_14 
REMARK    8  A    between atoms: C_15  and  C_16 
REMARK    9  A    between atoms: C_15  and  C_22 
ROOT
HETATM    1  N   UNL     1      -4.979   2.921 -32.166  1.00  0.00    -0.352 N 
HETATM    2  C   UNL     1      -5.829   2.238 -31.335  1.00  0.00     0.223 C 
HETATM    3  O   UNL     1      -6.618   2.789 -30.578  1.00  0.00    -0.273 OA
HETATM    4  H   UNL     1      -4.290   2.418 -32.709  1.00  0.00     0.162 HD
ENDROOT
BRANCH   1   5
HETATM    5  C   UNL     1      -5.075   4.355 -32.342  1.00  0.00     0.227 C 
BRANCH   5   6
HETATM    6  C   UNL     1      -6.325   4.801 -33.097  1.00  0.00     0.255 C 
HETATM    7  N   UNL     1      -7.344   5.200 -32.246  1.00  0.00    -0.246 N 
HETATM    8  H   UNL     1      -7.147   5.328 -31.249  1.00  0.00     0.192 HD
HETATM    9  O   UNL     1      -6.384   4.752 -34.324  1.00  0.00    -0.270 OA
BRANCH   7  10
HETATM   10  N   UNL     1      -8.606   5.374 -32.725  1.00  0.00    -0.184 NA
HETATM   11  C   UNL     1      -9.543   4.827 -32.015  1.00  0.00     0.153 C 
BRANCH  11  12
HETATM   12  C   UNL     1     -10.954   4.867 -32.446  1.00  0.00     0.019 A 
HETATM   13  C   UNL     1     -11.933   4.187 -31.719  1.00  0.00     0.110 A 
HETATM   14  C   UNL     1     -13.268   4.173 -32.149  1.00  0.00     0.102 A 
HETATM   15  C   UNL     1     -13.621   4.866 -33.308  1.00  0.00     0.040 A 
HETATM   16  C   UNL     1     -12.646   5.556 -34.035  1.00  0.00     0.004 A 
HETATM   17  C   UNL     1     -11.316   5.553 -33.610  1.00  0.00     0.016 A 
BRANCH  13  18
HETATM   18  O   UNL     1     -11.600   3.498 -30.579  1.00  0.00    -0.357 OA
HETATM   19  H   UNL     1     -11.293   4.181 -29.949  1.00  0.00     0.218 HD
ENDBRANCH  13  18
BRANCH  14  20
HETATM   20  O   UNL     1     -14.122   3.448 -31.353  1.00  0.00    -0.353 OA
HETATM   21  C   UNL     1     -15.337   3.014 -31.955  1.00  0.00     0.210 C 
ENDBRANCH  14  20
ENDBRANCH  11  12
ENDBRANCH   7  10
ENDBRANCH   5   6
ENDBRANCH   1   5
BRANCH   2  22
HETATM   22  C   UNL     1      -5.705   0.766 -31.445  1.00  0.00     0.097 A 
HETATM   23  C   UNL     1      -6.693  -0.049 -32.296  1.00  0.00     0.027 A 
HETATM   24  C   UNL     1      -6.649  -0.181 -30.773  1.00  0.00     0.035 A 
BRANCH  23  25
HETATM   25  C   UNL     1      -7.981   0.555 -32.868  1.00  0.00    -0.044 A 
HETATM   26  C   UNL     1      -9.253   0.232 -32.364  1.00  0.00     0.008 A 
HETATM   27  C   UNL     1     -10.415   0.807 -32.886  1.00  0.00     0.001 A 
HETATM   28  C   UNL     1     -10.331   1.737 -33.919  1.00  0.00     0.000 A 
HETATM   29  C   UNL     1      -9.086   2.092 -34.427  1.00  0.00     0.001 A 
HETATM   30  C   UNL     1      -7.929   1.508 -33.905  1.00  0.00     0.008 A 
ENDBRANCH  23  25
BRANCH  23  31
HETATM   31  C   UNL     1      -6.055  -1.133 -33.170  1.00  0.00    -0.044 A 
HETATM   32  C   UNL     1      -6.809  -1.902 -34.074  1.00  0.00     0.008 A 
HETATM   33  C   UNL     1      -6.210  -2.877 -34.876  1.00  0.00     0.001 A 
HETATM   34  C   UNL     1      -4.839  -3.103 -34.795  1.00  0.00     0.000 A 
HETATM   35  C   UNL     1      -4.066  -2.352 -33.917  1.00  0.00     0.001 A 
HETATM   36  C   UNL     1      -4.669  -1.378 -33.117  1.00  0.00     0.008 A 
ENDBRANCH  23  31
ENDBRANCH   2  22
TORSDOF 9
ENDMDL
MODEL 9
REMARK VINA RESULT:      -7.8      3.938      5.561
REMARK  9 active torsions:
REMARK  status: ('A' for Active; 'I' for Inactive)
REMARK    1  A    between atoms: O_2  and  C_3 
REMARK    2  A    between atoms: C_4  and  O_5 
REMARK    3  A    between atoms: C_6  and  C_7 
REMARK    4  A    between atoms: N_8  and  N_9 
REMARK       I    between atoms: N_9  and  C_10 
REMARK    5  A    between atoms: C_10  and  C_11 
REMARK    6  A    between atoms: C_11  and  N_12 
REMARK       I    between atoms: N_12  and  C_13 
REMARK    7  A    between atoms: C_13  and  C_14 
REMARK    8  A    between atoms: C_15  and  C_16 
REMARK    9  A    between atoms: C_15  and  C_22 
ROOT
HETATM    1  N   UNL     1      -7.977   4.884 -30.879  1.00  0.00    -0.352 N 
HETATM    2  C   UNL     1      -7.588   3.574 -30.765  1.00  0.00     0.223 C 
HETATM    3  O   UNL     1      -6.980   3.134 -29.797  1.00  0.00    -0.273 OA
HETATM    4  H   UNL     1      -8.402   5.213 -31.736  1.00  0.00     0.162 HD
ENDROOT
BRANCH   1   5
HETATM    5  C   UNL     1      -7.855   5.813 -29.776  1.00  0.00     0.227 C 
BRANCH   5   6
HETATM    6  C   UNL     1      -6.417   6.034 -29.312  1.00  0.00     0.255 C 
HETATM    7  N   UNL     1      -5.512   6.007 -30.362  1.00  0.00    -0.246 N 
HETATM    8  H   UNL     1      -5.857   6.017 -31.326  1.00  0.00     0.192 HD
HETATM    9  O   UNL     1      -6.141   6.173 -28.122  1.00  0.00    -0.270 OA
BRANCH   7  10
HETATM   10  N   UNL     1      -4.177   5.920 -30.111  1.00  0.00    -0.184 NA
HETATM   11  C   UNL     1      -3.450   6.822 -30.694  1.00  0.00     0.153 C 
BRANCH  11  12
HETATM   12  C   UNL     1      -1.978   6.813 -30.577  1.00  0.00     0.019 A 
HETATM   13  C   UNL     1      -1.371   6.752 -29.322  1.00  0.00     0.110 A 
HETATM   14  C   UNL     1       0.026   6.797 -29.195  1.00  0.00     0.102 A 
HETATM   15  C   UNL     1       0.814   6.884 -30.344  1.00  0.00     0.040 A 
HETATM   16  C   UNL     1       0.211   6.937 -31.604  1.00  0.00     0.004 A 
HETATM   17  C   UNL     1      -1.180   6.907 -31.722  1.00  0.00     0.016 A 
BRANCH  13  18
HETATM   18  O   UNL     1      -2.134   6.669 -28.184  1.00  0.00    -0.357 OA
HETATM   19  H   UNL     1      -3.048   6.860 -28.475  1.00  0.00     0.218 HD
ENDBRANCH  13  18
BRANCH  14  20
HETATM   20  O   UNL     1       0.488   6.751 -27.903  1.00  0.00    -0.353 OA
HETATM   21  C   UNL     1       1.138   7.921 -27.417  1.00  0.00     0.210 C 
ENDBRANCH  14  20
ENDBRANCH  11  12
ENDBRANCH   7  10
ENDBRANCH   5   6
ENDBRANCH   1   5
BRANCH   2  22
HETATM   22  C   UNL     1      -7.978   2.741 -31.926  1.00  0.00     0.097 A 
HETATM   23  C   UNL     1      -7.005   2.506 -33.093  1.00  0.00     0.027 A 
HETATM   24  C   UNL     1      -8.289   3.317 -33.271  1.00  0.00     0.035 A 
BRANCH  23  25
HETATM   25  C   UNL     1      -5.699   3.296 -33.248  1.00  0.00    -0.044 A 
HETATM   26  C   UNL     1      -4.509   2.919 -32.599  1.00  0.00     0.008 A 
HETATM   27  C   UNL     1      -3.324   3.641 -32.767  1.00  0.00     0.001 A 
HETATM   28  C   UNL     1      -3.296   4.752 -33.605  1.00  0.00     0.000 A 
HETATM   29  C   UNL     1      -4.451   5.139 -34.275  1.00  0.00     0.001 A 
HETATM   30  C   UNL     1      -5.634   4.418 -34.098  1.00  0.00     0.008 A 
ENDBRANCH  23  25
BRANCH  23  31
HETATM   31  C   UNL     1      -6.940   1.064 -33.604  1.00  0.00    -0.044 A 
HETATM   32  C   UNL     1      -7.423   0.700 -34.873  1.00  0.00     0.008 A 
HETATM   33  C   UNL     1      -7.344  -0.618 -35.332  1.00  0.00     0.001 A 
HETATM   34  C   UNL     1      -6.775  -1.603 -34.530  1.00  0.00     0.000 A 
HETATM   35  C   UNL     1      -6.281  -1.272 -33.273  1.00  0.00     0.001 A 
HETATM   36  C   UNL     1      -6.362   0.047 -32.820  1.00  0.00     0.008 A 
ENDBRANCH  23  31
ENDBRANCH   2  22
TORSDOF 9
ENDMDL
MODEL 10
REMARK VINA RESULT:      -7.8      4.684      6.422
REMARK  9 active torsions:
REMARK  status: ('A' for Active; 'I' for Inactive)
REMARK    1  A    between atoms: O_2  and  C_3 
REMARK    2  A    between atoms: C_4  and  O_5 
REMARK    3  A    between atoms: C_6  and  C_7 
REMARK    4  A    between atoms: N_8  and  N_9 
REMARK       I    between atoms: N_9  and  C_10 
REMARK    5  A    between atoms: C_10  and  C_11 
REMARK    6  A    between atoms: C_11  and  N_12 
REMARK       I    between atoms: N_12  and  C_13 
REMARK    7  A    between atoms: C_13  and  C_14 
REMARK    8  A    between atoms: C_15  and  C_16 
REMARK    9  A    between atoms: C_15  and  C_22 
ROOT
HETATM    1  N   UNL     1      -3.132   4.581 -33.729  1.00  0.00    -0.352 N 
HETATM    2  C   UNL     1      -2.667   3.806 -32.697  1.00  0.00     0.223 C 
HETATM    3  O   UNL     1      -1.823   4.187 -31.896  1.00  0.00    -0.273 OA
HETATM    4  H   UNL     1      -3.767   4.188 -34.411  1.00  0.00     0.162 HD
ENDROOT
BRANCH   1   5
HETATM    5  C   UNL     1      -2.786   5.982 -33.843  1.00  0.00     0.227 C 
BRANCH   5   6
HETATM    6  C   UNL     1      -2.830   6.738 -32.518  1.00  0.00     0.255 C 
HETATM    7  N   UNL     1      -1.584   7.210 -32.134  1.00  0.00    -0.246 N 
HETATM    8  H   UNL     1      -0.807   7.178 -32.800  1.00  0.00     0.192 HD
HETATM    9  O   UNL     1      -3.875   6.851 -31.878  1.00  0.00    -0.270 OA
BRANCH   7  10
HETATM   10  N   UNL     1      -1.387   7.669 -30.868  1.00  0.00    -0.184 NA
HETATM   11  C   UNL     1      -0.401   7.116 -30.232  1.00  0.00     0.153 C 
BRANCH  11  12
HETATM   12  C   UNL     1      -0.109   7.457 -28.825  1.00  0.00     0.019 A 
HETATM   13  C   UNL     1      -1.058   7.215 -27.831  1.00  0.00     0.110 A 
HETATM   14  C   UNL     1      -0.814   7.583 -26.499  1.00  0.00     0.102 A 
HETATM   15  C   UNL     1       0.403   8.181 -26.167  1.00  0.00     0.040 A 
HETATM   16  C   UNL     1       1.361   8.417 -27.158  1.00  0.00     0.004 A 
HETATM   17  C   UNL     1       1.105   8.061 -28.484  1.00  0.00     0.016 A 
BRANCH  13  18
HETATM   18  O   UNL     1      -2.261   6.632 -28.143  1.00  0.00    -0.357 OA
HETATM   19  H   UNL     1      -2.897   6.996 -27.496  1.00  0.00     0.218 HD
ENDBRANCH  13  18
BRANCH  14  20
HETATM   20  O   UNL     1      -1.840   7.309 -25.628  1.00  0.00    -0.353 OA
HETATM   21  C   UNL     1      -2.333   8.402 -24.861  1.00  0.00     0.210 C 
ENDBRANCH  14  20
ENDBRANCH  11  12
ENDBRANCH   7  10
ENDBRANCH   5   6
ENDBRANCH   1   5
BRANCH   2  22
HETATM   22  C   UNL     1      -3.290   2.463 -32.643  1.00  0.00     0.097 A 
HETATM   23  C   UNL     1      -4.732   2.281 -32.141  1.00  0.00     0.027 A 
HETATM   24  C   UNL     1      -3.537   1.735 -31.359  1.00  0.00     0.035 A 
BRANCH  23  25
HETATM   25  C   UNL     1      -5.513   3.406 -31.452  1.00  0.00    -0.044 A 
HETATM   26  C   UNL     1      -6.359   4.279 -32.160  1.00  0.00     0.008 A 
HETATM   27  C   UNL     1      -7.077   5.288 -31.512  1.00  0.00     0.001 A 
HETATM   28  C   UNL     1      -6.980   5.438 -30.131  1.00  0.00     0.000 A 
HETATM   29  C   UNL     1      -6.167   4.579 -29.400  1.00  0.00     0.001 A 
HETATM   30  C   UNL     1      -5.447   3.577 -30.055  1.00  0.00     0.008 A 
ENDBRANCH  23  25
BRANCH  23  31
HETATM   31  C   UNL     1      -5.593   1.328 -32.976  1.00  0.00    -0.044 A 
HETATM   32  C   UNL     1      -6.268   1.752 -34.134  1.00  0.00     0.008 A 
HETATM   33  C   UNL     1      -7.037   0.867 -34.894  1.00  0.00     0.001 A 
HETATM   34  C   UNL     1      -7.147  -0.467 -34.514  1.00  0.00     0.000 A 
HETATM   35  C   UNL     1      -6.484  -0.919 -33.378  1.00  0.00     0.001 A 
HETATM   36  C   UNL     1      -5.715  -0.030 -32.622  1.00  0.00     0.008 A 
ENDBRANCH  23  31
ENDBRANCH   2  22
TORSDOF 9
ENDMDL
