MODEL 1
REMARK VINA RESULT:      -8.8      0.000      0.000
REMARK  5 active torsions:
REMARK  status: ('A' for Active; 'I' for Inactive)
REMARK    1  A    between atoms: O_2  and  C_3 
REMARK    2  A    between atoms: C_5  and  C_6 
REMARK    3  A    between atoms: C_12  and  C_13 
REMARK    4  A    between atoms: C_15  and  O_16 
REMARK    5  A    between atoms: C_18  and  O_19 
ROOT
HETATM    1  C   UNL     1      -6.825   0.843 -31.758  1.00  0.00     0.098 A 
HETATM    2  N   UNL     1      -6.708   1.116 -30.432  1.00  0.00    -0.173 NA
HETATM    3  N   UNL     1      -5.399   0.935 -30.137  1.00  0.00    -0.272 N 
HETATM    4  H   UNL     1      -5.076   1.106 -29.189  1.00  0.00     0.189 HD
HETATM    5  C   UNL     1      -4.704   0.545 -31.214  1.00  0.00     0.128 A 
HETATM    6  C   UNL     1      -5.573   0.445 -32.263  1.00  0.00     0.034 A 
HETATM    7  C   UNL     1      -4.837   0.020 -33.475  1.00  0.00     0.156 A 
HETATM    8  N   UNL     1      -3.472  -0.074 -32.925  1.00  0.00    -0.343 N 
HETATM    9  C   UNL     1      -3.378   0.220 -31.570  1.00  0.00     0.271 A 
HETATM   10  O   UNL     1      -2.383   0.185 -30.871  1.00  0.00    -0.266 OA
HETATM   11  H   UNL     1      -2.668  -0.384 -33.452  1.00  0.00     0.163 HD
ENDROOT
BRANCH   7  12
HETATM   12  C   UNL     1      -5.359  -1.320 -33.934  1.00  0.00    -0.028 A 
HETATM   13  C   UNL     1      -4.590  -2.503 -33.852  1.00  0.00     0.049 A 
HETATM   14  C   UNL     1      -5.087  -3.719 -34.323  1.00  0.00     0.101 A 
HETATM   15  C   UNL     1      -6.368  -3.750 -34.882  1.00  0.00     0.099 A 
HETATM   16  C   UNL     1      -7.147  -2.606 -34.977  1.00  0.00     0.040 A 
HETATM   17  C   UNL     1      -6.642  -1.394 -34.507  1.00  0.00     0.012 A 
BRANCH  14  18
HETATM   18  O   UNL     1      -4.435  -4.925 -34.305  1.00  0.00    -0.353 OA
HETATM   19  C   UNL     1      -3.243  -4.994 -33.530  1.00  0.00     0.210 C 
ENDBRANCH  14  18
BRANCH  15  20
HETATM   20  O   UNL     1      -6.884  -4.924 -35.361  1.00  0.00    -0.358 OA
HETATM   21  H   UNL     1      -6.186  -5.588 -35.198  1.00  0.00     0.218 HD
ENDBRANCH  15  20
ENDBRANCH   7  12
BRANCH   1  22
HETATM   22  C   UNL     1      -8.115   0.992 -32.442  1.00  0.00    -0.002 A 
HETATM   23  C   UNL     1      -8.345   2.108 -33.270  1.00  0.00     0.050 A 
HETATM   24  C   UNL     1      -9.557   2.262 -33.949  1.00  0.00     0.069 A 
HETATM   25  C   UNL     1     -10.556   1.302 -33.789  1.00  0.00     0.037 A 
HETATM   26  C   UNL     1     -10.344   0.188 -32.980  1.00  0.00     0.004 A 
HETATM   27  C   UNL     1      -9.125   0.029 -32.318  1.00  0.00     0.014 A 
BRANCH  24  28
HETATM   28  O   UNL     1      -9.884   3.294 -34.785  1.00  0.00    -0.356 OA
HETATM   29  C   UNL     1     -11.272   3.526 -34.999  1.00  0.00     0.210 C 
ENDBRANCH  24  28
ENDBRANCH   1  22
TORSDOF 5
ENDMDL
MODEL 2
REMARK VINA RESULT:      -8.4      1.534      6.233
REMARK  5 active torsions:
REMARK  status: ('A' for Active; 'I' for Inactive)
REMARK    1  A    between atoms: O_2  and  C_3 
REMARK    2  A    between atoms: C_5  and  C_6 
REMARK    3  A    between atoms: C_12  and  C_13 
REMARK    4  A    between atoms: C_15  and  O_16 
REMARK    5  A    between atoms: C_18  and  O_19 
ROOT
HETATM    1  C   UNL     1      -5.123   0.269 -32.575  1.00  0.00     0.098 A 
HETATM    2  N   UNL     1      -3.917   0.894 -32.606  1.00  0.00    -0.173 NA
HETATM    3  N   UNL     1      -4.005   1.904 -31.709  1.00  0.00    -0.272 N 
HETATM    4  H   UNL     1      -3.197   2.500 -31.551  1.00  0.00     0.189 HD
HETATM    5  C   UNL     1      -5.216   1.946 -31.138  1.00  0.00     0.128 A 
HETATM    6  C   UNL     1      -5.972   0.944 -31.677  1.00  0.00     0.034 A 
HETATM    7  C   UNL     1      -7.319   0.956 -31.063  1.00  0.00     0.156 A 
HETATM    8  N   UNL     1      -7.162   2.084 -30.126  1.00  0.00    -0.343 N 
HETATM    9  C   UNL     1      -5.916   2.698 -30.170  1.00  0.00     0.271 A 
HETATM   10  O   UNL     1      -5.542   3.662 -29.531  1.00  0.00    -0.266 OA
HETATM   11  H   UNL     1      -7.901   2.439 -29.537  1.00  0.00     0.163 HD
ENDROOT
BRANCH   7  12
HETATM   12  C   UNL     1      -8.352   1.239 -32.127  1.00  0.00    -0.028 A 
HETATM   13  C   UNL     1      -8.371   2.446 -32.863  1.00  0.00     0.049 A 
HETATM   14  C   UNL     1      -9.364   2.693 -33.813  1.00  0.00     0.101 A 
HETATM   15  C   UNL     1     -10.348   1.722 -34.026  1.00  0.00     0.099 A 
HETATM   16  C   UNL     1     -10.355   0.529 -33.319  1.00  0.00     0.040 A 
HETATM   17  C   UNL     1      -9.361   0.290 -32.370  1.00  0.00     0.012 A 
BRANCH  14  18
HETATM   18  O   UNL     1      -9.492   3.824 -34.578  1.00  0.00    -0.353 OA
HETATM   19  C   UNL     1      -8.954   5.025 -34.036  1.00  0.00     0.210 C 
ENDBRANCH  14  18
BRANCH  15  20
HETATM   20  O   UNL     1     -11.340   1.936 -34.943  1.00  0.00    -0.358 OA
HETATM   21  H   UNL     1     -11.244   2.872 -35.203  1.00  0.00     0.218 HD
ENDBRANCH  15  20
ENDBRANCH   7  12
BRANCH   1  22
HETATM   22  C   UNL     1      -5.370  -0.923 -33.393  1.00  0.00    -0.002 A 
HETATM   23  C   UNL     1      -4.392  -1.932 -33.477  1.00  0.00     0.050 A 
HETATM   24  C   UNL     1      -4.612  -3.087 -34.232  1.00  0.00     0.069 A 
HETATM   25  C   UNL     1      -5.814  -3.231 -34.925  1.00  0.00     0.037 A 
HETATM   26  C   UNL     1      -6.797  -2.247 -34.847  1.00  0.00     0.004 A 
HETATM   27  C   UNL     1      -6.580  -1.103 -34.077  1.00  0.00     0.014 A 
BRANCH  24  28
HETATM   28  O   UNL     1      -3.741  -4.132 -34.375  1.00  0.00    -0.356 OA
HETATM   29  C   UNL     1      -3.352  -4.806 -33.183  1.00  0.00     0.210 C 
ENDBRANCH  24  28
ENDBRANCH   1  22
TORSDOF 5
ENDMDL
MODEL 3
REMARK VINA RESULT:      -8.2      2.776      4.838
REMARK  5 active torsions:
REMARK  status: ('A' for Active; 'I' for Inactive)
REMARK    1  A    between atoms: O_2  and  C_3 
REMARK    2  A    between atoms: C_5  and  C_6 
REMARK    3  A    between atoms: C_12  and  C_13 
REMARK    4  A    between atoms: C_15  and  O_16 
REMARK    5  A    between atoms: C_18  and  O_19 
ROOT
HETATM    1  C   UNL     1      -3.532   1.546 -32.219  1.00  0.00     0.098 A 
HETATM    2  N   UNL     1      -2.852   1.395 -31.053  1.00  0.00    -0.173 NA
HETATM    3  N   UNL     1      -2.757   0.059 -30.855  1.00  0.00    -0.272 N 
HETATM    4  H   UNL     1      -2.261  -0.287 -30.039  1.00  0.00     0.189 HD
HETATM    5  C   UNL     1      -3.363  -0.624 -31.835  1.00  0.00     0.128 A 
HETATM    6  C   UNL     1      -3.896   0.278 -32.712  1.00  0.00     0.034 A 
HETATM    7  C   UNL     1      -4.571  -0.444 -33.814  1.00  0.00     0.156 A 
HETATM    8  N   UNL     1      -4.309  -1.836 -33.405  1.00  0.00    -0.343 N 
HETATM    9  C   UNL     1      -3.603  -1.962 -32.215  1.00  0.00     0.271 A 
HETATM   10  O   UNL     1      -3.288  -2.989 -31.644  1.00  0.00    -0.266 OA
HETATM   11  H   UNL     1      -4.656  -2.646 -33.898  1.00  0.00     0.163 HD
ENDROOT
BRANCH   7  12
HETATM   12  C   UNL     1      -6.044  -0.114 -33.800  1.00  0.00    -0.028 A 
HETATM   13  C   UNL     1      -6.755   0.134 -32.604  1.00  0.00     0.049 A 
HETATM   14  C   UNL     1      -8.126   0.396 -32.623  1.00  0.00     0.101 A 
HETATM   15  C   UNL     1      -8.791   0.410 -33.852  1.00  0.00     0.099 A 
HETATM   16  C   UNL     1      -8.121   0.170 -35.043  1.00  0.00     0.040 A 
HETATM   17  C   UNL     1      -6.752  -0.095 -35.016  1.00  0.00     0.012 A 
BRANCH  14  18
HETATM   18  O   UNL     1      -8.921   0.642 -31.532  1.00  0.00    -0.353 OA
HETATM   19  C   UNL     1      -8.919   1.973 -31.028  1.00  0.00     0.210 C 
ENDBRANCH  14  18
BRANCH  15  20
HETATM   20  O   UNL     1     -10.136   0.656 -33.906  1.00  0.00    -0.358 OA
HETATM   21  H   UNL     1     -10.355   0.643 -34.858  1.00  0.00     0.218 HD
ENDBRANCH  15  20
ENDBRANCH   7  12
BRANCH   1  22
HETATM   22  C   UNL     1      -3.774   2.880 -32.779  1.00  0.00    -0.002 A 
HETATM   23  C   UNL     1      -5.075   3.255 -33.165  1.00  0.00     0.050 A 
HETATM   24  C   UNL     1      -5.334   4.526 -33.682  1.00  0.00     0.069 A 
HETATM   25  C   UNL     1      -4.283   5.430 -33.832  1.00  0.00     0.037 A 
HETATM   26  C   UNL     1      -2.990   5.081 -33.449  1.00  0.00     0.004 A 
HETATM   27  C   UNL     1      -2.739   3.815 -32.916  1.00  0.00     0.014 A 
BRANCH  24  28
HETATM   28  O   UNL     1      -6.556   5.000 -34.076  1.00  0.00    -0.356 OA
HETATM   29  C   UNL     1      -7.678   4.160 -33.825  1.00  0.00     0.210 C 
ENDBRANCH  24  28
ENDBRANCH   1  22
TORSDOF 5
ENDMDL
MODEL 4
REMARK VINA RESULT:      -8.1      2.848      6.660
REMARK  5 active torsions:
REMARK  status: ('A' for Active; 'I' for Inactive)
REMARK    1  A    between atoms: O_2  and  C_3 
REMARK    2  A    between atoms: C_5  and  C_6 
REMARK    3  A    between atoms: C_12  and  C_13 
REMARK    4  A    between atoms: C_15  and  O_16 
REMARK    5  A    between atoms: C_18  and  O_19 
ROOT
HETATM    1  C   UNL     1      -7.775   0.614 -32.410  1.00  0.00     0.098 A 
HETATM    2  N   UNL     1      -8.764   0.197 -31.578  1.00  0.00    -0.173 NA
HETATM    3  N   UNL     1      -9.450   1.313 -31.236  1.00  0.00    -0.272 N 
HETATM    4  H   UNL     1     -10.258   1.232 -30.626  1.00  0.00     0.189 HD
HETATM    5  C   UNL     1      -8.920   2.405 -31.803  1.00  0.00     0.128 A 
HETATM    6  C   UNL     1      -7.836   2.015 -32.537  1.00  0.00     0.034 A 
HETATM    7  C   UNL     1      -7.226   3.199 -33.184  1.00  0.00     0.156 A 
HETATM    8  N   UNL     1      -8.142   4.251 -32.705  1.00  0.00    -0.343 N 
HETATM    9  C   UNL     1      -9.150   3.796 -31.864  1.00  0.00     0.271 A 
HETATM   10  O   UNL     1     -10.007   4.456 -31.310  1.00  0.00    -0.266 OA
HETATM   11  H   UNL     1      -8.029   5.235 -32.905  1.00  0.00     0.163 HD
ENDROOT
BRANCH   7  12
HETATM   12  C   UNL     1      -5.821   3.386 -32.665  1.00  0.00    -0.028 A 
HETATM   13  C   UNL     1      -4.787   3.933 -33.458  1.00  0.00     0.049 A 
HETATM   14  C   UNL     1      -3.488   4.056 -32.960  1.00  0.00     0.101 A 
HETATM   15  C   UNL     1      -3.224   3.625 -31.657  1.00  0.00     0.099 A 
HETATM   16  C   UNL     1      -4.218   3.084 -30.855  1.00  0.00     0.040 A 
HETATM   17  C   UNL     1      -5.512   2.962 -31.360  1.00  0.00     0.012 A 
BRANCH  14  18
HETATM   18  O   UNL     1      -2.405   4.560 -33.634  1.00  0.00    -0.353 OA
HETATM   19  C   UNL     1      -2.677   5.291 -34.824  1.00  0.00     0.210 C 
ENDBRANCH  14  18
BRANCH  15  20
HETATM   20  O   UNL     1      -1.960   3.723 -31.141  1.00  0.00    -0.358 OA
HETATM   21  H   UNL     1      -1.559   2.845 -31.290  1.00  0.00     0.218 HD
ENDBRANCH  15  20
ENDBRANCH   7  12
BRANCH   1  22
HETATM   22  C   UNL     1      -6.858  -0.350 -33.028  1.00  0.00    -0.002 A 
HETATM   23  C   UNL     1      -5.607  -0.608 -32.435  1.00  0.00     0.050 A 
HETATM   24  C   UNL     1      -4.725  -1.537 -32.992  1.00  0.00     0.069 A 
HETATM   25  C   UNL     1      -5.085  -2.204 -34.163  1.00  0.00     0.037 A 
HETATM   26  C   UNL     1      -6.321  -1.968 -34.759  1.00  0.00     0.004 A 
HETATM   27  C   UNL     1      -7.207  -1.052 -34.189  1.00  0.00     0.014 A 
BRANCH  24  28
HETATM   28  O   UNL     1      -3.495  -1.874 -32.497  1.00  0.00    -0.356 OA
HETATM   29  C   UNL     1      -2.794  -0.861 -31.784  1.00  0.00     0.210 C 
ENDBRANCH  24  28
ENDBRANCH   1  22
TORSDOF 5
ENDMDL
MODEL 5
REMARK VINA RESULT:      -8.1      2.813      6.597
REMARK  5 active torsions:
REMARK  status: ('A' for Active; 'I' for Inactive)
REMARK    1  A    between atoms: O_2  and  C_3 
REMARK    2  A    between atoms: C_5  and  C_6 
REMARK    3  A    between atoms: C_12  and  C_13 
REMARK    4  A    between atoms: C_15  and  O_16 
REMARK    5  A    between atoms: C_18  and  O_19 
ROOT
HETATM    1  C   UNL     1      -7.725   0.701 -32.412  1.00  0.00     0.098 A 
HETATM    2  N   UNL     1      -8.728   0.304 -31.585  1.00  0.00    -0.173 NA
HETATM    3  N   UNL     1      -9.401   1.433 -31.260  1.00  0.00    -0.272 N 
HETATM    4  H   UNL     1     -10.215   1.368 -30.656  1.00  0.00     0.189 HD
HETATM    5  C   UNL     1      -8.851   2.512 -31.831  1.00  0.00     0.128 A 
HETATM    6  C   UNL     1      -7.765   2.102 -32.551  1.00  0.00     0.034 A 
HETATM    7  C   UNL     1      -7.133   3.271 -33.202  1.00  0.00     0.156 A 
HETATM    8  N   UNL     1      -8.038   4.340 -32.741  1.00  0.00    -0.343 N 
HETATM    9  C   UNL     1      -9.060   3.906 -31.906  1.00  0.00     0.271 A 
HETATM   10  O   UNL     1      -9.914   4.583 -31.365  1.00  0.00    -0.266 OA
HETATM   11  H   UNL     1      -7.910   5.320 -32.948  1.00  0.00     0.163 HD
ENDROOT
BRANCH   7  12
HETATM   12  C   UNL     1      -5.731   3.444 -32.672  1.00  0.00    -0.028 A 
HETATM   13  C   UNL     1      -4.668   3.914 -33.476  1.00  0.00     0.049 A 
HETATM   14  C   UNL     1      -3.373   4.024 -32.965  1.00  0.00     0.101 A 
HETATM   15  C   UNL     1      -3.141   3.658 -31.636  1.00  0.00     0.099 A 
HETATM   16  C   UNL     1      -4.164   3.192 -30.822  1.00  0.00     0.040 A 
HETATM   17  C   UNL     1      -5.454   3.082 -31.340  1.00  0.00     0.012 A 
BRANCH  14  18
HETATM   18  O   UNL     1      -2.265   4.457 -33.647  1.00  0.00    -0.353 OA
HETATM   19  C   UNL     1      -2.499   5.190 -34.845  1.00  0.00     0.210 C 
ENDBRANCH  14  18
BRANCH  15  20
HETATM   20  O   UNL     1      -1.883   3.745 -31.106  1.00  0.00    -0.358 OA
HETATM   21  H   UNL     1      -1.982   4.317 -30.320  1.00  0.00     0.218 HD
ENDBRANCH  15  20
ENDBRANCH   7  12
BRANCH   1  22
HETATM   22  C   UNL     1      -6.816  -0.281 -33.012  1.00  0.00    -0.002 A 
HETATM   23  C   UNL     1      -7.337  -1.362 -33.748  1.00  0.00     0.050 A 
HETATM   24  C   UNL     1      -6.491  -2.300 -34.347  1.00  0.00     0.069 A 
HETATM   25  C   UNL     1      -5.110  -2.167 -34.197  1.00  0.00     0.037 A 
HETATM   26  C   UNL     1      -4.576  -1.100 -33.479  1.00  0.00     0.004 A 
HETATM   27  C   UNL     1      -5.425  -0.156 -32.897  1.00  0.00     0.014 A 
BRANCH  24  28
HETATM   28  O   UNL     1      -6.884  -3.378 -35.091  1.00  0.00    -0.356 OA
HETATM   29  C   UNL     1      -6.096  -4.557 -34.973  1.00  0.00     0.210 C 
ENDBRANCH  24  28
ENDBRANCH   1  22
TORSDOF 5
ENDMDL
MODEL 6
REMARK VINA RESULT:      -8.0      2.787      6.919
REMARK  5 active torsions:
REMARK  status: ('A' for Active; 'I' for Inactive)
REMARK    1  A    between atoms: O_2  and  C_3 
REMARK    2  A    between atoms: C_5  and  C_6 
REMARK    3  A    between atoms: C_12  and  C_13 
REMARK    4  A    between atoms: C_15  and  O_16 
REMARK    5  A    between atoms: C_18  and  O_19 
ROOT
HETATM    1  C   UNL     1      -8.692   0.233 -33.105  1.00  0.00     0.098 A 
HETATM    2  N   UNL     1      -9.841  -0.471 -32.934  1.00  0.00    -0.173 NA
HETATM    3  N   UNL     1     -10.836   0.448 -32.932  1.00  0.00    -0.272 N 
HETATM    4  H   UNL     1     -11.798   0.137 -32.836  1.00  0.00     0.189 HD
HETATM    5  C   UNL     1     -10.354   1.690 -33.076  1.00  0.00     0.128 A 
HETATM    6  C   UNL     1      -8.993   1.608 -33.161  1.00  0.00     0.034 A 
HETATM    7  C   UNL     1      -8.425   2.965 -33.326  1.00  0.00     0.156 A 
HETATM    8  N   UNL     1      -9.667   3.762 -33.330  1.00  0.00    -0.343 N 
HETATM    9  C   UNL     1     -10.827   3.017 -33.164  1.00  0.00     0.271 A 
HETATM   10  O   UNL     1     -11.970   3.428 -33.097  1.00  0.00    -0.266 OA
HETATM   11  H   UNL     1      -9.693   4.769 -33.384  1.00  0.00     0.163 HD
ENDROOT
BRANCH   7  12
HETATM   12  C   UNL     1      -7.545   3.287 -32.143  1.00  0.00    -0.028 A 
HETATM   13  C   UNL     1      -6.184   3.640 -32.284  1.00  0.00     0.049 A 
HETATM   14  C   UNL     1      -5.387   3.893 -31.166  1.00  0.00     0.101 A 
HETATM   15  C   UNL     1      -5.959   3.791 -29.895  1.00  0.00     0.099 A 
HETATM   16  C   UNL     1      -7.292   3.447 -29.725  1.00  0.00     0.040 A 
HETATM   17  C   UNL     1      -8.082   3.193 -30.846  1.00  0.00     0.012 A 
BRANCH  14  18
HETATM   18  O   UNL     1      -4.058   4.233 -31.177  1.00  0.00    -0.353 OA
HETATM   19  C   UNL     1      -3.143   3.216 -31.570  1.00  0.00     0.210 C 
ENDBRANCH  14  18
BRANCH  15  20
HETATM   20  O   UNL     1      -5.204   4.025 -28.778  1.00  0.00    -0.358 OA
HETATM   21  H   UNL     1      -4.764   3.173 -28.590  1.00  0.00     0.218 HD
ENDBRANCH  15  20
ENDBRANCH   7  12
BRANCH   1  22
HETATM   22  C   UNL     1      -7.400  -0.454 -33.213  1.00  0.00    -0.002 A 
HETATM   23  C   UNL     1      -7.211  -1.443 -34.197  1.00  0.00     0.050 A 
HETATM   24  C   UNL     1      -5.985  -2.098 -34.333  1.00  0.00     0.069 A 
HETATM   25  C   UNL     1      -4.939  -1.776 -33.468  1.00  0.00     0.037 A 
HETATM   26  C   UNL     1      -5.105  -0.795 -32.493  1.00  0.00     0.004 A 
HETATM   27  C   UNL     1      -6.327  -0.131 -32.372  1.00  0.00     0.014 A 
BRANCH  24  28
HETATM   28  O   UNL     1      -5.685  -3.062 -35.257  1.00  0.00    -0.356 OA
HETATM   29  C   UNL     1      -6.409  -4.284 -35.161  1.00  0.00     0.210 C 
ENDBRANCH  24  28
ENDBRANCH   1  22
TORSDOF 5
ENDMDL
MODEL 7
REMARK VINA RESULT:      -8.0      1.671      6.170
REMARK  5 active torsions:
REMARK  status: ('A' for Active; 'I' for Inactive)
REMARK    1  A    between atoms: O_2  and  C_3 
REMARK    2  A    between atoms: C_5  and  C_6 
REMARK    3  A    between atoms: C_12  and  C_13 
REMARK    4  A    between atoms: C_15  and  O_16 
REMARK    5  A    between atoms: C_18  and  O_19 
ROOT
HETATM    1  C   UNL     1      -5.144   0.464 -32.416  1.00  0.00     0.098 A 
HETATM    2  N   UNL     1      -3.893   0.988 -32.355  1.00  0.00    -0.173 NA
HETATM    3  N   UNL     1      -3.960   1.987 -31.443  1.00  0.00    -0.272 N 
HETATM    4  H   UNL     1      -3.120   2.513 -31.220  1.00  0.00     0.189 HD
HETATM    5  C   UNL     1      -5.199   2.117 -30.951  1.00  0.00     0.128 A 
HETATM    6  C   UNL     1      -5.995   1.189 -31.560  1.00  0.00     0.034 A 
HETATM    7  C   UNL     1      -7.375   1.300 -31.035  1.00  0.00     0.156 A 
HETATM    8  N   UNL     1      -7.191   2.396 -30.065  1.00  0.00    -0.343 N 
HETATM    9  C   UNL     1      -5.900   2.907 -30.014  1.00  0.00     0.271 A 
HETATM   10  O   UNL     1      -5.493   3.827 -29.331  1.00  0.00    -0.266 OA
HETATM   11  H   UNL     1      -7.937   2.799 -29.518  1.00  0.00     0.163 HD
ENDROOT
BRANCH   7  12
HETATM   12  C   UNL     1      -8.308   1.684 -32.157  1.00  0.00    -0.028 A 
HETATM   13  C   UNL     1      -9.497   0.971 -32.433  1.00  0.00     0.049 A 
HETATM   14  C   UNL     1     -10.318   1.328 -33.504  1.00  0.00     0.101 A 
HETATM   15  C   UNL     1      -9.944   2.409 -34.307  1.00  0.00     0.099 A 
HETATM   16  C   UNL     1      -8.785   3.129 -34.061  1.00  0.00     0.040 A 
HETATM   17  C   UNL     1      -7.967   2.765 -32.991  1.00  0.00     0.012 A 
BRANCH  14  18
HETATM   18  O   UNL     1     -11.484   0.709 -33.874  1.00  0.00    -0.353 OA
HETATM   19  C   UNL     1     -12.693   1.282 -33.387  1.00  0.00     0.210 C 
ENDBRANCH  14  18
BRANCH  15  20
HETATM   20  O   UNL     1     -10.723   2.781 -35.369  1.00  0.00    -0.358 OA
HETATM   21  H   UNL     1     -10.219   3.490 -35.813  1.00  0.00     0.218 HD
ENDBRANCH  15  20
ENDBRANCH   7  12
BRANCH   1  22
HETATM   22  C   UNL     1      -5.432  -0.691 -33.274  1.00  0.00    -0.002 A 
HETATM   23  C   UNL     1      -4.474  -1.713 -33.421  1.00  0.00     0.050 A 
HETATM   24  C   UNL     1      -4.731  -2.832 -34.216  1.00  0.00     0.069 A 
HETATM   25  C   UNL     1      -5.951  -2.928 -34.886  1.00  0.00     0.037 A 
HETATM   26  C   UNL     1      -6.914  -1.931 -34.748  1.00  0.00     0.004 A 
HETATM   27  C   UNL     1      -6.659  -0.822 -33.938  1.00  0.00     0.014 A 
BRANCH  24  28
HETATM   28  O   UNL     1      -3.883  -3.886 -34.419  1.00  0.00    -0.356 OA
HETATM   29  C   UNL     1      -3.426  -4.571 -33.258  1.00  0.00     0.210 C 
ENDBRANCH  24  28
ENDBRANCH   1  22
TORSDOF 5
ENDMDL
MODEL 8
REMARK VINA RESULT:      -7.7      2.320      6.217
REMARK  5 active torsions:
REMARK  status: ('A' for Active; 'I' for Inactive)
REMARK    1  A    between atoms: O_2  and  C_3 
REMARK    2  A    between atoms: C_5  and  C_6 
REMARK    3  A    between atoms: C_12  and  C_13 
REMARK    4  A    between atoms: C_15  and  O_16 
REMARK    5  A    between atoms: C_18  and  O_19 
ROOT
HETATM    1  C   UNL     1      -4.768   0.275 -32.495  1.00  0.00     0.098 A 
HETATM    2  N   UNL     1      -4.128  -0.741 -31.861  1.00  0.00    -0.173 NA
HETATM    3  N   UNL     1      -4.469  -1.865 -32.535  1.00  0.00    -0.272 N 
HETATM    4  H   UNL     1      -4.082  -2.757 -32.240  1.00  0.00     0.189 HD
HETATM    5  C   UNL     1      -5.306  -1.594 -33.545  1.00  0.00     0.128 A 
HETATM    6  C   UNL     1      -5.548  -0.250 -33.543  1.00  0.00     0.034 A 
HETATM    7  C   UNL     1      -6.468   0.087 -34.654  1.00  0.00     0.156 A 
HETATM    8  N   UNL     1      -6.660  -1.251 -35.241  1.00  0.00    -0.343 N 
HETATM    9  C   UNL     1      -5.986  -2.271 -34.580  1.00  0.00     0.271 A 
HETATM   10  O   UNL     1      -6.003  -3.459 -34.837  1.00  0.00    -0.266 OA
HETATM   11  H   UNL     1      -7.274  -1.446 -36.019  1.00  0.00     0.163 HD
ENDROOT
BRANCH   7  12
HETATM   12  C   UNL     1      -7.749   0.652 -34.089  1.00  0.00    -0.028 A 
HETATM   13  C   UNL     1      -8.172   1.976 -34.344  1.00  0.00     0.049 A 
HETATM   14  C   UNL     1      -9.342   2.480 -33.774  1.00  0.00     0.101 A 
HETATM   15  C   UNL     1     -10.096   1.648 -32.940  1.00  0.00     0.099 A 
HETATM   16  C   UNL     1      -9.707   0.345 -32.671  1.00  0.00     0.040 A 
HETATM   17  C   UNL     1      -8.535  -0.151 -33.242  1.00  0.00     0.012 A 
BRANCH  14  18
HETATM   18  O   UNL     1      -9.847   3.744 -33.939  1.00  0.00    -0.353 OA
HETATM   19  C   UNL     1     -10.516   4.009 -35.167  1.00  0.00     0.210 C 
ENDBRANCH  14  18
BRANCH  15  20
HETATM   20  O   UNL     1     -11.244   2.113 -32.358  1.00  0.00    -0.358 OA
HETATM   21  H   UNL     1     -11.940   1.971 -33.029  1.00  0.00     0.218 HD
ENDBRANCH  15  20
ENDBRANCH   7  12
BRANCH   1  22
HETATM   22  C   UNL     1      -4.581   1.665 -32.063  1.00  0.00    -0.002 A 
HETATM   23  C   UNL     1      -3.283   2.202 -31.970  1.00  0.00     0.050 A 
HETATM   24  C   UNL     1      -3.080   3.529 -31.581  1.00  0.00     0.069 A 
HETATM   25  C   UNL     1      -4.181   4.324 -31.265  1.00  0.00     0.037 A 
HETATM   26  C   UNL     1      -5.473   3.812 -31.359  1.00  0.00     0.004 A 
HETATM   27  C   UNL     1      -5.673   2.491 -31.766  1.00  0.00     0.014 A 
BRANCH  24  28
HETATM   28  O   UNL     1      -1.870   4.157 -31.468  1.00  0.00    -0.356 OA
HETATM   29  C   UNL     1      -1.500   5.025 -32.534  1.00  0.00     0.210 C 
ENDBRANCH  24  28
ENDBRANCH   1  22
TORSDOF 5
ENDMDL
MODEL 9
REMARK VINA RESULT:      -7.6      2.903      7.044
REMARK  5 active torsions:
REMARK  status: ('A' for Active; 'I' for Inactive)
REMARK    1  A    between atoms: O_2  and  C_3 
REMARK    2  A    between atoms: C_5  and  C_6 
REMARK    3  A    between atoms: C_12  and  C_13 
REMARK    4  A    between atoms: C_15  and  O_16 
REMARK    5  A    between atoms: C_18  and  O_19 
ROOT
HETATM    1  C   UNL     1      -8.397   0.180 -33.220  1.00  0.00     0.098 A 
HETATM    2  N   UNL     1      -9.529  -0.409 -32.756  1.00  0.00    -0.173 NA
HETATM    3  N   UNL     1     -10.458   0.575 -32.702  1.00  0.00    -0.272 N 
HETATM    4  H   UNL     1     -11.401   0.351 -32.396  1.00  0.00     0.189 HD
HETATM    5  C   UNL     1      -9.948   1.750 -33.094  1.00  0.00     0.128 A 
HETATM    6  C   UNL     1      -8.633   1.556 -33.406  1.00  0.00     0.034 A 
HETATM    7  C   UNL     1      -8.037   2.836 -33.850  1.00  0.00     0.156 A 
HETATM    8  N   UNL     1      -9.214   3.717 -33.742  1.00  0.00    -0.343 N 
HETATM    9  C   UNL     1     -10.361   3.087 -33.274  1.00  0.00     0.271 A 
HETATM   10  O   UNL     1     -11.449   3.589 -33.063  1.00  0.00    -0.266 OA
HETATM   11  H   UNL     1      -9.198   4.710 -33.925  1.00  0.00     0.163 HD
ENDROOT
BRANCH   7  12
HETATM   12  C   UNL     1      -6.937   3.235 -32.895  1.00  0.00    -0.028 A 
HETATM   13  C   UNL     1      -7.200   3.689 -31.583  1.00  0.00     0.049 A 
HETATM   14  C   UNL     1      -6.163   4.087 -30.738  1.00  0.00     0.101 A 
HETATM   15  C   UNL     1      -4.849   4.032 -31.214  1.00  0.00     0.099 A 
HETATM   16  C   UNL     1      -4.560   3.592 -32.497  1.00  0.00     0.040 A 
HETATM   17  C   UNL     1      -5.602   3.198 -33.336  1.00  0.00     0.012 A 
BRANCH  14  18
HETATM   18  O   UNL     1      -6.294   4.552 -29.455  1.00  0.00    -0.353 OA
HETATM   19  C   UNL     1      -7.540   5.151 -29.117  1.00  0.00     0.210 C 
ENDBRANCH  14  18
BRANCH  15  20
HETATM   20  O   UNL     1      -3.810   4.423 -30.415  1.00  0.00    -0.358 OA
HETATM   21  H   UNL     1      -4.166   4.391 -29.506  1.00  0.00     0.218 HD
ENDBRANCH  15  20
ENDBRANCH   7  12
BRANCH   1  22
HETATM   22  C   UNL     1      -7.185  -0.610 -33.461  1.00  0.00    -0.002 A 
HETATM   23  C   UNL     1      -6.100  -0.521 -32.568  1.00  0.00     0.050 A 
HETATM   24  C   UNL     1      -4.942  -1.278 -32.764  1.00  0.00     0.069 A 
HETATM   25  C   UNL     1      -4.858  -2.123 -33.871  1.00  0.00     0.037 A 
HETATM   26  C   UNL     1      -5.925  -2.230 -34.761  1.00  0.00     0.004 A 
HETATM   27  C   UNL     1      -7.086  -1.485 -34.551  1.00  0.00     0.014 A 
BRANCH  24  28
HETATM   28  O   UNL     1      -3.837  -1.281 -31.958  1.00  0.00    -0.356 OA
HETATM   29  C   UNL     1      -3.629  -0.123 -31.156  1.00  0.00     0.210 C 
ENDBRANCH  24  28
ENDBRANCH   1  22
TORSDOF 5
ENDMDL
MODEL 10
REMARK VINA RESULT:      -7.6      3.244      5.304
REMARK  5 active torsions:
REMARK  status: ('A' for Active; 'I' for Inactive)
REMARK    1  A    between atoms: O_2  and  C_3 
REMARK    2  A    between atoms: C_5  and  C_6 
REMARK    3  A    between atoms: C_12  and  C_13 
REMARK    4  A    between atoms: C_15  and  O_16 
REMARK    5  A    between atoms: C_18  and  O_19 
ROOT
HETATM    1  C   UNL     1      -8.744   3.053 -33.905  1.00  0.00     0.098 A 
HETATM    2  N   UNL     1      -9.683   3.410 -34.820  1.00  0.00    -0.173 NA
HETATM    3  N   UNL     1     -10.671   2.490 -34.708  1.00  0.00    -0.272 N 
HETATM    4  H   UNL     1     -11.496   2.575 -35.294  1.00  0.00     0.189 HD
HETATM    5  C   UNL     1     -10.378   1.570 -33.780  1.00  0.00     0.128 A 
HETATM    6  C   UNL     1      -9.150   1.869 -33.261  1.00  0.00     0.034 A 
HETATM    7  C   UNL     1      -8.797   0.872 -32.224  1.00  0.00     0.156 A 
HETATM    8  N   UNL     1     -10.004   0.026 -32.261  1.00  0.00    -0.343 N 
HETATM    9  C   UNL     1     -10.952   0.419 -33.198  1.00  0.00     0.271 A 
HETATM   10  O   UNL     1     -12.011  -0.122 -33.452  1.00  0.00    -0.266 OA
HETATM   11  H   UNL     1     -10.127  -0.809 -31.708  1.00  0.00     0.163 HD
ENDROOT
BRANCH   7  12
HETATM   12  C   UNL     1      -7.560   0.121 -32.653  1.00  0.00    -0.028 A 
HETATM   13  C   UNL     1      -7.572  -0.816 -33.712  1.00  0.00     0.049 A 
HETATM   14  C   UNL     1      -6.419  -1.524 -34.058  1.00  0.00     0.101 A 
HETATM   15  C   UNL     1      -5.245  -1.293 -33.335  1.00  0.00     0.099 A 
HETATM   16  C   UNL     1      -5.203  -0.380 -32.292  1.00  0.00     0.040 A 
HETATM   17  C   UNL     1      -6.359   0.322 -31.950  1.00  0.00     0.012 A 
BRANCH  14  18
HETATM   18  O   UNL     1      -6.310  -2.460 -35.054  1.00  0.00    -0.353 OA
HETATM   19  C   UNL     1      -6.826  -3.757 -34.771  1.00  0.00     0.210 C 
ENDBRANCH  14  18
BRANCH  15  20
HETATM   20  O   UNL     1      -4.100  -1.976 -33.643  1.00  0.00    -0.358 OA
HETATM   21  H   UNL     1      -4.401  -2.751 -34.155  1.00  0.00     0.218 HD
ENDBRANCH  15  20
ENDBRANCH   7  12
BRANCH   1  22
HETATM   22  C   UNL     1      -7.542   3.869 -33.707  1.00  0.00    -0.002 A 
HETATM   23  C   UNL     1      -7.651   5.154 -33.141  1.00  0.00     0.050 A 
HETATM   24  C   UNL     1      -6.518   5.943 -32.924  1.00  0.00     0.069 A 
HETATM   25  C   UNL     1      -5.264   5.454 -33.289  1.00  0.00     0.037 A 
HETATM   26  C   UNL     1      -5.136   4.182 -33.843  1.00  0.00     0.004 A 
HETATM   27  C   UNL     1      -6.269   3.390 -34.042  1.00  0.00     0.014 A 
BRANCH  24  28
HETATM   28  O   UNL     1      -6.505   7.195 -32.373  1.00  0.00    -0.356 OA
HETATM   29  C   UNL     1      -5.450   7.478 -31.459  1.00  0.00     0.210 C 
ENDBRANCH  24  28
ENDBRANCH   1  22
TORSDOF 5
ENDMDL
