MODEL 1
REMARK VINA RESULT:      -8.7      0.000      0.000
REMARK  1 active torsions:
REMARK  status: ('A' for Active; 'I' for Inactive)
REMARK    1  A    between atoms: C_8  and  C_9 
ROOT
HETATM    1  C   UNL     1      -8.720   0.326 -34.305  1.00  0.00     0.073 C 
HETATM    2  C   UNL     1      -8.514   0.843 -32.928  1.00  0.00     0.062 C 
HETATM    3  N   UNL     1      -9.458   0.609 -32.009  1.00  0.00    -0.178 NA
HETATM    4  N   UNL     1      -8.970   1.162 -30.896  1.00  0.00    -0.262 N 
HETATM    5  H   UNL     1      -9.523   1.097 -30.050  1.00  0.00     0.191 HD
HETATM    6  C   UNL     1      -7.821   1.872 -31.102  1.00  0.00     0.134 C 
HETATM    7  C   UNL     1      -7.405   1.578 -32.388  1.00  0.00     0.032 C 
HETATM    8  C   UNL     1      -6.104   1.872 -33.071  1.00  0.00     0.120 C 
HETATM    9  S   UNL     1      -5.355   3.523 -32.902  1.00  0.00    -0.141 SA
HETATM   10  C   UNL     1      -6.396   4.396 -31.700  1.00  0.00     0.136 C 
HETATM   11  C   UNL     1      -7.733   4.871 -32.260  1.00  0.00     0.031 C 
HETATM   12  C   UNL     1      -6.478   3.734 -30.327  1.00  0.00     0.236 C 
HETATM   13  O   UNL     1      -5.899   4.221 -29.350  1.00  0.00    -0.272 OA
HETATM   14  N   UNL     1      -7.285   2.653 -30.115  1.00  0.00    -0.311 N 
HETATM   15  H   UNL     1      -7.488   2.465 -29.139  1.00  0.00     0.170 HD
ENDROOT
BRANCH   8  16
HETATM   16  C   UNL     1      -5.145   0.746 -32.646  1.00  0.00    -0.029 A 
HETATM   17  C   UNL     1      -5.104  -0.530 -33.304  1.00  0.00    -0.018 A 
HETATM   18  C   UNL     1      -4.234  -1.534 -32.794  1.00  0.00    -0.025 A 
HETATM   19  C   UNL     1      -5.868  -0.885 -34.444  1.00  0.00     0.013 A 
HETATM   20  C   UNL     1      -4.183  -2.808 -33.385  1.00  0.00     0.012 A 
HETATM   21  C   UNL     1      -3.407  -1.269 -31.697  1.00  0.00     0.012 A 
HETATM   22  C   UNL     1      -4.972  -3.122 -34.486  1.00  0.00     0.001 A 
HETATM   23  C   UNL     1      -5.809  -2.158 -35.021  1.00  0.00     0.001 A 
HETATM   24  C   UNL     1      -3.421  -0.026 -31.081  1.00  0.00     0.002 A 
HETATM   25  C   UNL     1      -4.280   0.962 -31.545  1.00  0.00     0.009 A 
ENDBRANCH   8  16
TORSDOF 1
ENDMDL
MODEL 2
REMARK VINA RESULT:      -8.7      1.735      2.375
REMARK  1 active torsions:
REMARK  status: ('A' for Active; 'I' for Inactive)
REMARK    1  A    between atoms: C_8  and  C_9 
ROOT
HETATM    1  C   UNL     1      -8.900   2.336 -31.722  1.00  0.00     0.073 C 
HETATM    2  C   UNL     1      -7.697   2.865 -31.029  1.00  0.00     0.062 C 
HETATM    3  N   UNL     1      -7.748   3.040 -29.704  1.00  0.00    -0.178 NA
HETATM    4  N   UNL     1      -6.529   3.487 -29.390  1.00  0.00    -0.262 N 
HETATM    5  H   UNL     1      -6.330   3.682 -28.416  1.00  0.00     0.191 HD
HETATM    6  C   UNL     1      -5.750   3.748 -30.481  1.00  0.00     0.134 C 
HETATM    7  C   UNL     1      -6.418   3.226 -31.573  1.00  0.00     0.032 C 
HETATM    8  C   UNL     1      -5.945   3.007 -32.978  1.00  0.00     0.120 C 
HETATM    9  S   UNL     1      -5.003   4.316 -33.823  1.00  0.00    -0.141 SA
HETATM   10  C   UNL     1      -4.717   5.585 -32.558  1.00  0.00     0.136 C 
HETATM   11  C   UNL     1      -5.942   6.435 -32.237  1.00  0.00     0.031 C 
HETATM   12  C   UNL     1      -3.935   5.106 -31.338  1.00  0.00     0.236 C 
HETATM   13  O   UNL     1      -2.762   5.449 -31.159  1.00  0.00    -0.272 OA
HETATM   14  N   UNL     1      -4.544   4.382 -30.353  1.00  0.00    -0.311 N 
HETATM   15  H   UNL     1      -4.035   4.354 -29.476  1.00  0.00     0.170 HD
ENDROOT
BRANCH   8  16
HETATM   16  C   UNL     1      -5.195   1.662 -32.961  1.00  0.00    -0.029 A 
HETATM   17  C   UNL     1      -5.714   0.476 -33.583  1.00  0.00    -0.018 A 
HETATM   18  C   UNL     1      -4.982  -0.739 -33.454  1.00  0.00    -0.025 A 
HETATM   19  C   UNL     1      -6.914   0.405 -34.334  1.00  0.00     0.013 A 
HETATM   20  C   UNL     1      -5.465  -1.931 -34.017  1.00  0.00     0.012 A 
HETATM   21  C   UNL     1      -3.763  -0.765 -32.767  1.00  0.00     0.012 A 
HETATM   22  C   UNL     1      -6.663  -1.961 -34.722  1.00  0.00     0.001 A 
HETATM   23  C   UNL     1      -7.384  -0.790 -34.887  1.00  0.00     0.001 A 
HETATM   24  C   UNL     1      -3.245   0.387 -32.195  1.00  0.00     0.002 A 
HETATM   25  C   UNL     1      -3.953   1.579 -32.286  1.00  0.00     0.009 A 
ENDBRANCH   8  16
TORSDOF 1
ENDMDL
MODEL 3
REMARK VINA RESULT:      -8.7      2.497      3.908
REMARK  1 active torsions:
REMARK  status: ('A' for Active; 'I' for Inactive)
REMARK    1  A    between atoms: C_8  and  C_9 
ROOT
HETATM    1  C   UNL     1      -3.364   2.610 -31.743  1.00  0.00     0.073 C 
HETATM    2  C   UNL     1      -4.398   3.250 -32.595  1.00  0.00     0.062 C 
HETATM    3  N   UNL     1      -4.025   4.228 -33.427  1.00  0.00    -0.178 NA
HETATM    4  N   UNL     1      -5.154   4.563 -34.058  1.00  0.00    -0.262 N 
HETATM    5  H   UNL     1      -5.109   5.294 -34.759  1.00  0.00     0.191 HD
HETATM    6  C   UNL     1      -6.262   3.943 -33.554  1.00  0.00     0.134 C 
HETATM    7  C   UNL     1      -5.803   2.967 -32.688  1.00  0.00     0.032 C 
HETATM    8  C   UNL     1      -6.537   1.835 -32.036  1.00  0.00     0.120 C 
HETATM    9  S   UNL     1      -8.168   2.137 -31.285  1.00  0.00    -0.141 SA
HETATM   10  C   UNL     1      -8.581   3.849 -31.718  1.00  0.00     0.136 C 
HETATM   11  C   UNL     1      -7.823   4.898 -30.910  1.00  0.00     0.031 C 
HETATM   12  C   UNL     1      -8.654   4.129 -33.217  1.00  0.00     0.236 C 
HETATM   13  O   UNL     1      -9.740   4.307 -33.778  1.00  0.00    -0.272 OA
HETATM   14  N   UNL     1      -7.519   4.303 -33.956  1.00  0.00    -0.311 N 
HETATM   15  H   UNL     1      -7.667   4.753 -34.853  1.00  0.00     0.170 HD
ENDROOT
BRANCH   8  16
HETATM   16  C   UNL     1      -6.572   0.704 -33.079  1.00  0.00    -0.029 A 
HETATM   17  C   UNL     1      -5.665  -0.408 -33.050  1.00  0.00    -0.018 A 
HETATM   18  C   UNL     1      -5.727  -1.369 -34.099  1.00  0.00    -0.025 A 
HETATM   19  C   UNL     1      -4.693  -0.643 -32.044  1.00  0.00     0.013 A 
HETATM   20  C   UNL     1      -4.838  -2.457 -34.130  1.00  0.00     0.012 A 
HETATM   21  C   UNL     1      -6.679  -1.250 -35.116  1.00  0.00     0.012 A 
HETATM   22  C   UNL     1      -3.881  -2.633 -33.137  1.00  0.00     0.001 A 
HETATM   23  C   UNL     1      -3.813  -1.730 -32.090  1.00  0.00     0.001 A 
HETATM   24  C   UNL     1      -7.578  -0.195 -35.128  1.00  0.00     0.002 A 
HETATM   25  C   UNL     1      -7.521   0.769 -34.129  1.00  0.00     0.009 A 
ENDBRANCH   8  16
TORSDOF 1
ENDMDL
MODEL 4
REMARK VINA RESULT:      -8.0      3.630      5.165
REMARK  1 active torsions:
REMARK  status: ('A' for Active; 'I' for Inactive)
REMARK    1  A    between atoms: C_8  and  C_9 
ROOT
HETATM    1  C   UNL     1      -8.239   4.121 -31.212  1.00  0.00     0.073 C 
HETATM    2  C   UNL     1      -8.838   4.143 -32.571  1.00  0.00     0.062 C 
HETATM    3  N   UNL     1      -8.697   5.247 -33.314  1.00  0.00    -0.178 NA
HETATM    4  N   UNL     1      -9.306   4.942 -34.463  1.00  0.00    -0.262 N 
HETATM    5  H   UNL     1      -9.315   5.641 -35.197  1.00  0.00     0.191 HD
HETATM    6  C   UNL     1      -9.962   3.745 -34.428  1.00  0.00     0.134 C 
HETATM    7  C   UNL     1      -9.571   3.118 -33.260  1.00  0.00     0.032 C 
HETATM    8  C   UNL     1      -9.776   1.704 -32.809  1.00  0.00     0.120 C 
HETATM    9  S   UNL     1     -11.409   0.924 -33.014  1.00  0.00    -0.141 SA
HETATM   10  C   UNL     1     -12.393   2.125 -33.953  1.00  0.00     0.136 C 
HETATM   11  C   UNL     1     -12.874   3.317 -33.132  1.00  0.00     0.031 C 
HETATM   12  C   UNL     1     -11.826   2.482 -35.324  1.00  0.00     0.236 C 
HETATM   13  O   UNL     1     -12.358   2.068 -36.360  1.00  0.00    -0.272 OA
HETATM   14  N   UNL     1     -10.788   3.361 -35.450  1.00  0.00    -0.311 N 
HETATM   15  H   UNL     1     -10.672   3.744 -36.381  1.00  0.00     0.170 HD
ENDROOT
BRANCH   8  16
HETATM   16  C   UNL     1      -8.650   0.887 -33.467  1.00  0.00    -0.029 A 
HETATM   17  C   UNL     1      -7.523   0.384 -32.732  1.00  0.00    -0.018 A 
HETATM   18  C   UNL     1      -6.495  -0.300 -33.441  1.00  0.00    -0.025 A 
HETATM   19  C   UNL     1      -7.342   0.505 -31.332  1.00  0.00     0.013 A 
HETATM   20  C   UNL     1      -5.359  -0.782 -32.770  1.00  0.00     0.012 A 
HETATM   21  C   UNL     1      -6.600  -0.509 -34.820  1.00  0.00     0.012 A 
HETATM   22  C   UNL     1      -5.209  -0.615 -31.398  1.00  0.00     0.001 A 
HETATM   23  C   UNL     1      -6.205   0.022 -30.677  1.00  0.00     0.001 A 
HETATM   24  C   UNL     1      -7.703  -0.052 -35.526  1.00  0.00     0.002 A 
HETATM   25  C   UNL     1      -8.707   0.639 -34.861  1.00  0.00     0.009 A 
ENDBRANCH   8  16
TORSDOF 1
ENDMDL
MODEL 5
REMARK VINA RESULT:      -7.9      2.581      4.262
REMARK  1 active torsions:
REMARK  status: ('A' for Active; 'I' for Inactive)
REMARK    1  A    between atoms: C_8  and  C_9 
ROOT
HETATM    1  C   UNL     1      -8.662   4.817 -30.469  1.00  0.00     0.073 C 
HETATM    2  C   UNL     1      -7.229   4.493 -30.258  1.00  0.00     0.062 C 
HETATM    3  N   UNL     1      -6.757   4.464 -29.007  1.00  0.00    -0.178 NA
HETATM    4  N   UNL     1      -5.475   4.120 -29.153  1.00  0.00    -0.262 N 
HETATM    5  H   UNL     1      -4.909   4.024 -28.317  1.00  0.00     0.191 HD
HETATM    6  C   UNL     1      -5.070   4.076 -30.456  1.00  0.00     0.134 C 
HETATM    7  C   UNL     1      -6.215   4.175 -31.225  1.00  0.00     0.032 C 
HETATM    8  C   UNL     1      -6.413   3.950 -32.693  1.00  0.00     0.120 C 
HETATM    9  S   UNL     1      -5.217   4.644 -33.877  1.00  0.00    -0.141 SA
HETATM   10  C   UNL     1      -3.889   5.343 -32.856  1.00  0.00     0.136 C 
HETATM   11  C   UNL     1      -4.249   6.662 -32.181  1.00  0.00     0.031 C 
HETATM   12  C   UNL     1      -3.182   4.336 -31.953  1.00  0.00     0.236 C 
HETATM   13  O   UNL     1      -2.035   3.951 -32.205  1.00  0.00    -0.272 OA
HETATM   14  N   UNL     1      -3.750   3.921 -30.783  1.00  0.00    -0.311 N 
HETATM   15  H   UNL     1      -3.104   3.488 -30.132  1.00  0.00     0.170 HD
ENDROOT
BRANCH   8  16
HETATM   16  C   UNL     1      -6.592   2.431 -32.862  1.00  0.00    -0.029 A 
HETATM   17  C   UNL     1      -7.880   1.808 -32.977  1.00  0.00    -0.018 A 
HETATM   18  C   UNL     1      -7.948   0.388 -33.059  1.00  0.00    -0.025 A 
HETATM   19  C   UNL     1      -9.119   2.496 -33.022  1.00  0.00     0.013 A 
HETATM   20  C   UNL     1      -9.188  -0.268 -33.140  1.00  0.00     0.012 A 
HETATM   21  C   UNL     1      -6.780  -0.381 -33.065  1.00  0.00     0.012 A 
HETATM   22  C   UNL     1     -10.381   0.446 -33.152  1.00  0.00     0.001 A 
HETATM   23  C   UNL     1     -10.346   1.830 -33.101  1.00  0.00     0.001 A 
HETATM   24  C   UNL     1      -5.533   0.221 -32.988  1.00  0.00     0.002 A 
HETATM   25  C   UNL     1      -5.442   1.603 -32.883  1.00  0.00     0.009 A 
ENDBRANCH   8  16
TORSDOF 1
ENDMDL
MODEL 6
REMARK VINA RESULT:      -7.8      2.835      5.864
REMARK  1 active torsions:
REMARK  status: ('A' for Active; 'I' for Inactive)
REMARK    1  A    between atoms: C_8  and  C_9 
ROOT
HETATM    1  C   UNL     1      -8.557   5.582 -32.040  1.00  0.00     0.073 C 
HETATM    2  C   UNL     1      -8.201   4.316 -31.351  1.00  0.00     0.062 C 
HETATM    3  N   UNL     1      -8.186   4.298 -30.013  1.00  0.00    -0.178 NA
HETATM    4  N   UNL     1      -7.866   3.037 -29.710  1.00  0.00    -0.262 N 
HETATM    5  H   UNL     1      -7.805   2.783 -28.731  1.00  0.00     0.191 HD
HETATM    6  C   UNL     1      -7.527   2.287 -30.800  1.00  0.00     0.134 C 
HETATM    7  C   UNL     1      -7.865   3.037 -31.912  1.00  0.00     0.032 C 
HETATM    8  C   UNL     1      -7.943   2.641 -33.355  1.00  0.00     0.120 C 
HETATM    9  S   UNL     1      -6.608   1.640 -34.084  1.00  0.00    -0.141 SA
HETATM   10  C   UNL     1      -5.525   1.208 -32.694  1.00  0.00     0.136 C 
HETATM   11  C   UNL     1      -4.639   2.352 -32.213  1.00  0.00     0.031 C 
HETATM   12  C   UNL     1      -6.203   0.414 -31.580  1.00  0.00     0.236 C 
HETATM   13  O   UNL     1      -5.966  -0.789 -31.422  1.00  0.00    -0.272 OA
HETATM   14  N   UNL     1      -6.999   1.032 -30.659  1.00  0.00    -0.311 N 
HETATM   15  H   UNL     1      -7.167   0.491 -29.818  1.00  0.00     0.170 HD
ENDROOT
BRANCH   8  16
HETATM   16  C   UNL     1      -9.327   1.993 -33.536  1.00  0.00    -0.029 A 
HETATM   17  C   UNL     1     -10.415   2.656 -34.199  1.00  0.00    -0.018 A 
HETATM   18  C   UNL     1     -11.679   2.006 -34.256  1.00  0.00    -0.025 A 
HETATM   19  C   UNL     1     -10.338   3.928 -34.821  1.00  0.00     0.013 A 
HETATM   20  C   UNL     1     -12.781   2.629 -34.866  1.00  0.00     0.012 A 
HETATM   21  C   UNL     1     -11.848   0.729 -33.709  1.00  0.00     0.012 A 
HETATM   22  C   UNL     1     -12.668   3.891 -35.439  1.00  0.00     0.001 A 
HETATM   23  C   UNL     1     -11.443   4.538 -35.423  1.00  0.00     0.001 A 
HETATM   24  C   UNL     1     -10.790   0.073 -33.098  1.00  0.00     0.002 A 
HETATM   25  C   UNL     1      -9.553   0.698 -33.008  1.00  0.00     0.009 A 
ENDBRANCH   8  16
TORSDOF 1
ENDMDL
MODEL 7
REMARK VINA RESULT:      -7.7      7.331      8.722
REMARK  1 active torsions:
REMARK  status: ('A' for Active; 'I' for Inactive)
REMARK    1  A    between atoms: C_8  and  C_9 
ROOT
HETATM    1  C   UNL     1      -5.564   6.743 -30.108  1.00  0.00     0.073 C 
HETATM    2  C   UNL     1      -5.075   6.537 -28.721  1.00  0.00     0.062 C 
HETATM    3  N   UNL     1      -5.501   5.464 -28.046  1.00  0.00    -0.178 NA
HETATM    4  N   UNL     1      -4.869   5.550 -26.872  1.00  0.00    -0.262 N 
HETATM    5  H   UNL     1      -5.035   4.821 -26.188  1.00  0.00     0.191 HD
HETATM    6  C   UNL     1      -4.174   6.714 -26.714  1.00  0.00     0.134 C 
HETATM    7  C   UNL     1      -4.161   7.333 -27.950  1.00  0.00     0.032 C 
HETATM    8  C   UNL     1      -3.360   8.503 -28.434  1.00  0.00     0.120 C 
HETATM    9  S   UNL     1      -3.197   9.978 -27.379  1.00  0.00    -0.141 SA
HETATM   10  C   UNL     1      -3.979   9.524 -25.806  1.00  0.00     0.136 C 
HETATM   11  C   UNL     1      -5.504   9.511 -25.848  1.00  0.00     0.031 C 
HETATM   12  C   UNL     1      -3.350   8.325 -25.102  1.00  0.00     0.236 C 
HETATM   13  O   UNL     1      -2.664   8.473 -24.085  1.00  0.00    -0.272 OA
HETATM   14  N   UNL     1      -3.620   7.050 -25.508  1.00  0.00    -0.311 N 
HETATM   15  H   UNL     1      -3.393   6.334 -24.826  1.00  0.00     0.170 HD
ENDROOT
BRANCH   8  16
HETATM   16  C   UNL     1      -1.995   7.930 -28.856  1.00  0.00    -0.029 A 
HETATM   17  C   UNL     1      -1.639   7.700 -30.228  1.00  0.00    -0.018 A 
HETATM   18  C   UNL     1      -0.381   7.099 -30.516  1.00  0.00    -0.025 A 
HETATM   19  C   UNL     1      -2.445   8.029 -31.347  1.00  0.00     0.013 A 
HETATM   20  C   UNL     1      -0.003   6.825 -31.841  1.00  0.00     0.012 A 
HETATM   21  C   UNL     1       0.506   6.775 -29.484  1.00  0.00     0.012 A 
HETATM   22  C   UNL     1      -0.838   7.139 -32.908  1.00  0.00     0.001 A 
HETATM   23  C   UNL     1      -2.057   7.748 -32.661  1.00  0.00     0.001 A 
HETATM   24  C   UNL     1       0.177   7.027 -28.160  1.00  0.00     0.002 A 
HETATM   25  C   UNL     1      -1.055   7.590 -27.853  1.00  0.00     0.009 A 
ENDBRANCH   8  16
TORSDOF 1
ENDMDL
MODEL 8
REMARK VINA RESULT:      -7.6      2.588      5.525
REMARK  1 active torsions:
REMARK  status: ('A' for Active; 'I' for Inactive)
REMARK    1  A    between atoms: C_8  and  C_9 
ROOT
HETATM    1  C   UNL     1      -3.492   0.707 -31.249  1.00  0.00     0.073 C 
HETATM    2  C   UNL     1      -4.968   0.728 -31.092  1.00  0.00     0.062 C 
HETATM    3  N   UNL     1      -5.489   0.421 -29.898  1.00  0.00    -0.178 NA
HETATM    4  N   UNL     1      -6.806   0.560 -30.076  1.00  0.00    -0.262 N 
HETATM    5  H   UNL     1      -7.414   0.386 -29.284  1.00  0.00     0.191 HD
HETATM    6  C   UNL     1      -7.157   0.796 -31.374  1.00  0.00     0.134 C 
HETATM    7  C   UNL     1      -5.982   1.054 -32.056  1.00  0.00     0.032 C 
HETATM    8  C   UNL     1      -5.767   1.602 -33.434  1.00  0.00     0.120 C 
HETATM    9  S   UNL     1      -6.763   0.964 -34.819  1.00  0.00    -0.141 SA
HETATM   10  C   UNL     1      -7.980  -0.145 -34.057  1.00  0.00     0.136 C 
HETATM   11  C   UNL     1      -7.410  -1.491 -33.621  1.00  0.00     0.031 C 
HETATM   12  C   UNL     1      -8.899   0.520 -33.036  1.00  0.00     0.236 C 
HETATM   13  O   UNL     1     -10.086   0.743 -33.298  1.00  0.00    -0.272 OA
HETATM   14  N   UNL     1      -8.468   0.782 -31.767  1.00  0.00    -0.311 N 
HETATM   15  H   UNL     1      -9.210   0.956 -31.098  1.00  0.00     0.170 HD
ENDROOT
BRANCH   8  16
HETATM   16  C   UNL     1      -5.867   3.132 -33.296  1.00  0.00    -0.029 A 
HETATM   17  C   UNL     1      -4.721   3.968 -33.072  1.00  0.00    -0.018 A 
HETATM   18  C   UNL     1      -4.920   5.365 -32.886  1.00  0.00    -0.025 A 
HETATM   19  C   UNL     1      -3.378   3.516 -33.025  1.00  0.00     0.013 A 
HETATM   20  C   UNL     1      -3.833   6.218 -32.633  1.00  0.00     0.012 A 
HETATM   21  C   UNL     1      -6.204   5.916 -32.957  1.00  0.00     0.012 A 
HETATM   22  C   UNL     1      -2.533   5.727 -32.565  1.00  0.00     0.001 A 
HETATM   23  C   UNL     1      -2.305   4.377 -32.769  1.00  0.00     0.001 A 
HETATM   24  C   UNL     1      -7.308   5.115 -33.206  1.00  0.00     0.002 A 
HETATM   25  C   UNL     1      -7.141   3.745 -33.367  1.00  0.00     0.009 A 
ENDBRANCH   8  16
TORSDOF 1
ENDMDL
MODEL 9
REMARK VINA RESULT:      -7.4      3.784      6.236
REMARK  1 active torsions:
REMARK  status: ('A' for Active; 'I' for Inactive)
REMARK    1  A    between atoms: C_8  and  C_9 
ROOT
HETATM    1  C   UNL     1      -5.577   5.190 -29.252  1.00  0.00     0.073 C 
HETATM    2  C   UNL     1      -6.166   4.471 -30.410  1.00  0.00     0.062 C 
HETATM    3  N   UNL     1      -7.461   4.659 -30.688  1.00  0.00    -0.178 NA
HETATM    4  N   UNL     1      -7.668   3.915 -31.778  1.00  0.00    -0.262 N 
HETATM    5  H   UNL     1      -8.597   3.912 -32.183  1.00  0.00     0.191 HD
HETATM    6  C   UNL     1      -6.596   3.139 -32.117  1.00  0.00     0.134 C 
HETATM    7  C   UNL     1      -5.539   3.570 -31.336  1.00  0.00     0.032 C 
HETATM    8  C   UNL     1      -4.077   3.257 -31.435  1.00  0.00     0.120 C 
HETATM    9  S   UNL     1      -3.544   1.538 -31.709  1.00  0.00    -0.141 SA
HETATM   10  C   UNL     1      -5.075   0.604 -31.985  1.00  0.00     0.136 C 
HETATM   11  C   UNL     1      -5.879   0.335 -30.717  1.00  0.00     0.031 C 
HETATM   12  C   UNL     1      -5.903   1.074 -33.178  1.00  0.00     0.236 C 
HETATM   13  O   UNL     1      -5.960   0.405 -34.216  1.00  0.00    -0.272 OA
HETATM   14  N   UNL     1      -6.694   2.184 -33.092  1.00  0.00    -0.311 N 
HETATM   15  H   UNL     1      -7.403   2.252 -33.814  1.00  0.00     0.170 HD
ENDROOT
BRANCH   8  16
HETATM   16  C   UNL     1      -3.514   4.222 -32.494  1.00  0.00    -0.029 A 
HETATM   17  C   UNL     1      -2.371   5.057 -32.255  1.00  0.00    -0.018 A 
HETATM   18  C   UNL     1      -1.967   5.969 -33.270  1.00  0.00    -0.025 A 
HETATM   19  C   UNL     1      -1.588   5.050 -31.073  1.00  0.00     0.013 A 
HETATM   20  C   UNL     1      -0.874   6.829 -33.069  1.00  0.00     0.012 A 
HETATM   21  C   UNL     1      -2.648   6.023 -34.491  1.00  0.00     0.012 A 
HETATM   22  C   UNL     1      -0.151   6.809 -31.882  1.00  0.00     0.001 A 
HETATM   23  C   UNL     1      -0.504   5.913 -30.886  1.00  0.00     0.001 A 
HETATM   24  C   UNL     1      -3.732   5.194 -34.736  1.00  0.00     0.002 A 
HETATM   25  C   UNL     1      -4.160   4.312 -33.752  1.00  0.00     0.009 A 
ENDBRANCH   8  16
TORSDOF 1
ENDMDL
MODEL 10
REMARK VINA RESULT:      -7.4      2.162      2.696
REMARK  1 active torsions:
REMARK  status: ('A' for Active; 'I' for Inactive)
REMARK    1  A    between atoms: C_8  and  C_9 
ROOT
HETATM    1  C   UNL     1      -9.185   4.067 -33.983  1.00  0.00     0.073 C 
HETATM    2  C   UNL     1      -8.953   4.239 -32.526  1.00  0.00     0.062 C 
HETATM    3  N   UNL     1     -10.005   4.482 -31.736  1.00  0.00    -0.178 NA
HETATM    4  N   UNL     1      -9.478   4.553 -30.511  1.00  0.00    -0.262 N 
HETATM    5  H   UNL     1     -10.104   4.723 -29.732  1.00  0.00     0.191 HD
HETATM    6  C   UNL     1      -8.113   4.516 -30.504  1.00  0.00     0.134 C 
HETATM    7  C   UNL     1      -7.725   4.170 -31.786  1.00  0.00     0.032 C 
HETATM    8  C   UNL     1      -6.383   3.754 -32.307  1.00  0.00     0.120 C 
HETATM    9  S   UNL     1      -4.897   4.678 -31.802  1.00  0.00    -0.141 SA
HETATM   10  C   UNL     1      -5.475   5.858 -30.551  1.00  0.00     0.136 C 
HETATM   11  C   UNL     1      -6.233   7.052 -31.121  1.00  0.00     0.031 C 
HETATM   12  C   UNL     1      -6.119   5.221 -29.322  1.00  0.00     0.236 C 
HETATM   13  O   UNL     1      -5.531   5.201 -28.234  1.00  0.00    -0.272 OA
HETATM   14  N   UNL     1      -7.403   4.760 -29.359  1.00  0.00    -0.311 N 
HETATM   15  H   UNL     1      -7.827   4.621 -28.449  1.00  0.00     0.170 HD
ENDROOT
BRANCH   8  16
HETATM   16  C   UNL     1      -6.267   2.249 -32.010  1.00  0.00    -0.029 A 
HETATM   17  C   UNL     1      -6.511   1.240 -33.002  1.00  0.00    -0.018 A 
HETATM   18  C   UNL     1      -6.450  -0.129 -32.614  1.00  0.00    -0.025 A 
HETATM   19  C   UNL     1      -6.810   1.490 -34.365  1.00  0.00     0.013 A 
HETATM   20  C   UNL     1      -6.712  -1.150 -33.542  1.00  0.00     0.012 A 
HETATM   21  C   UNL     1      -6.121  -0.482 -31.301  1.00  0.00     0.012 A 
HETATM   22  C   UNL     1      -7.030  -0.858 -34.864  1.00  0.00     0.001 A 
HETATM   23  C   UNL     1      -7.071   0.463 -35.278  1.00  0.00     0.001 A 
HETATM   24  C   UNL     1      -5.853   0.490 -30.350  1.00  0.00     0.002 A 
HETATM   25  C   UNL     1      -5.930   1.833 -30.698  1.00  0.00     0.009 A 
ENDBRANCH   8  16
TORSDOF 1
ENDMDL
