MODEL 1
REMARK VINA RESULT:     -10.5      0.000      0.000
REMARK  7 active torsions:
REMARK  status: ('A' for Active; 'I' for Inactive)
REMARK    1  A    between atoms: N_1  and  C_2 
REMARK    2  A    between atoms: C_2  and  C_3 
REMARK    3  A    between atoms: C_6  and  C_24 
REMARK    4  A    between atoms: C_8  and  C_9 
REMARK    5  A    between atoms: C_13  and  C_15 
REMARK       I    between atoms: C_15  and  N_17 
REMARK    6  A    between atoms: N_17  and  C_18 
REMARK       I    between atoms: C_24  and  N_26 
REMARK    7  A    between atoms: N_26  and  C_27 
ROOT
HETATM    1  C   UNL     1      -5.679   4.016 -32.621  1.00  0.00    -0.020 A 
HETATM    2  C   UNL     1      -6.856   3.260 -32.464  1.00  0.00     0.011 A 
HETATM    3  C   UNL     1      -6.818   1.866 -32.450  1.00  0.00     0.017 A 
HETATM    4  C   UNL     1      -5.601   1.192 -32.581  1.00  0.00     0.033 A 
HETATM    5  C   UNL     1      -4.419   1.932 -32.725  1.00  0.00     0.030 A 
HETATM    6  C   UNL     1      -4.434   3.344 -32.733  1.00  0.00    -0.017 A 
ENDROOT
BRANCH   6   7
HETATM    7  C   UNL     1      -3.158   4.071 -32.867  1.00  0.00    -0.024 A 
HETATM    8  C   UNL     1      -2.790   4.688 -34.072  1.00  0.00     0.012 A 
HETATM    9  C   UNL     1      -1.600   5.414 -34.172  1.00  0.00     0.002 A 
HETATM   10  C   UNL     1      -0.778   5.562 -33.056  1.00  0.00     0.017 A 
HETATM   11  C   UNL     1      -1.134   4.967 -31.841  1.00  0.00     0.033 A 
HETATM   12  C   UNL     1      -2.289   4.181 -31.771  1.00  0.00     0.029 A 
BRANCH  11  13
HETATM   13  C   UNL     1      -0.291   5.228 -30.638  1.00  0.00     0.256 C 
HETATM   14  O   UNL     1       0.693   4.521 -30.457  1.00  0.00    -0.267 OA
HETATM   15  N   UNL     1      -0.698   6.305 -29.867  1.00  0.00    -0.323 N 
HETATM   16  H   UNL     1      -1.512   6.822 -30.182  1.00  0.00     0.169 HD
BRANCH  15  17
HETATM   17  C   UNL     1      -0.066   6.828 -28.720  1.00  0.00     0.035 A 
HETATM   18  C   UNL     1      -0.268   6.347 -27.425  1.00  0.00     0.029 A 
HETATM   19  C   UNL     1       0.418   6.913 -26.344  1.00  0.00     0.002 A 
HETATM   20  C   UNL     1       1.306   7.966 -26.547  1.00  0.00     0.000 A 
HETATM   21  C   UNL     1       1.509   8.457 -27.833  1.00  0.00     0.002 A 
HETATM   22  C   UNL     1       0.827   7.891 -28.914  1.00  0.00     0.029 A 
ENDBRANCH  15  17
ENDBRANCH  11  13
ENDBRANCH   6   7
BRANCH   1  23
HETATM   23  C   UNL     1      -5.814   5.524 -32.694  1.00  0.00     0.306 C 
BRANCH  23  24
HETATM   24  N   UNL     1      -6.984   5.939 -33.470  1.00  0.00     0.082 N 
HETATM   25  H   UNL     1      -6.846   6.911 -33.750  1.00  0.00     0.313 HD
HETATM   26  H   UNL     1      -6.995   5.406 -34.340  1.00  0.00     0.313 HD
ENDBRANCH  23  24
ENDBRANCH   1  23
BRANCH   4  27
HETATM   27  C   UNL     1      -5.628  -0.301 -32.614  1.00  0.00     0.256 C 
HETATM   28  O   UNL     1      -5.993  -0.895 -31.605  1.00  0.00    -0.267 OA
HETATM   29  N   UNL     1      -5.214  -0.890 -33.793  1.00  0.00    -0.320 N 
HETATM   30  H   UNL     1      -4.827  -0.297 -34.519  1.00  0.00     0.169 HD
BRANCH  29  31
HETATM   31  C   UNL     1      -5.204  -2.273 -34.098  1.00  0.00     0.076 A 
HETATM   32  C   UNL     1      -4.119  -3.119 -33.885  1.00  0.00     0.052 A 
HETATM   33  C   UNL     1      -4.248  -4.461 -34.223  1.00  0.00     0.118 A 
HETATM   34  N   UNL     1      -5.368  -5.007 -34.748  1.00  0.00    -0.270 NA
HETATM   35  C   UNL     1      -6.410  -4.167 -34.943  1.00  0.00     0.160 A 
HETATM   36  C   UNL     1      -6.369  -2.819 -34.637  1.00  0.00     0.160 A 
HETATM   37  F   UNL     1      -7.443  -2.044 -34.852  1.00  0.00    -0.202 F 
ENDBRANCH  29  31
ENDBRANCH   4  27
TORSDOF 7
ENDMDL
MODEL 2
REMARK VINA RESULT:      -9.6      2.835     10.561
REMARK  7 active torsions:
REMARK  status: ('A' for Active; 'I' for Inactive)
REMARK    1  A    between atoms: N_1  and  C_2 
REMARK    2  A    between atoms: C_2  and  C_3 
REMARK    3  A    between atoms: C_6  and  C_24 
REMARK    4  A    between atoms: C_8  and  C_9 
REMARK    5  A    between atoms: C_13  and  C_15 
REMARK       I    between atoms: C_15  and  N_17 
REMARK    6  A    between atoms: N_17  and  C_18 
REMARK       I    between atoms: C_24  and  N_26 
REMARK    7  A    between atoms: N_26  and  C_27 
ROOT
HETATM    1  C   UNL     1      -1.825   5.046 -33.422  1.00  0.00    -0.020 A 
HETATM    2  C   UNL     1      -0.701   5.883 -33.304  1.00  0.00     0.011 A 
HETATM    3  C   UNL     1      -0.151   6.177 -32.056  1.00  0.00     0.017 A 
HETATM    4  C   UNL     1      -0.704   5.630 -30.895  1.00  0.00     0.033 A 
HETATM    5  C   UNL     1      -1.816   4.784 -30.999  1.00  0.00     0.030 A 
HETATM    6  C   UNL     1      -2.383   4.467 -32.252  1.00  0.00    -0.017 A 
ENDROOT
BRANCH   6   7
HETATM    7  C   UNL     1      -3.541   3.555 -32.303  1.00  0.00    -0.024 A 
HETATM    8  C   UNL     1      -4.857   4.040 -32.273  1.00  0.00     0.012 A 
HETATM    9  C   UNL     1      -5.945   3.168 -32.369  1.00  0.00     0.002 A 
HETATM   10  C   UNL     1      -5.730   1.800 -32.532  1.00  0.00     0.017 A 
HETATM   11  C   UNL     1      -4.426   1.298 -32.580  1.00  0.00     0.033 A 
HETATM   12  C   UNL     1      -3.345   2.170 -32.408  1.00  0.00     0.029 A 
BRANCH  11  13
HETATM   13  C   UNL     1      -4.223  -0.154 -32.860  1.00  0.00     0.256 C 
HETATM   14  O   UNL     1      -3.270  -0.716 -32.335  1.00  0.00    -0.267 OA
HETATM   15  N   UNL     1      -5.193  -0.730 -33.664  1.00  0.00    -0.323 N 
HETATM   16  H   UNL     1      -5.950  -0.134 -33.980  1.00  0.00     0.169 HD
BRANCH  15  17
HETATM   17  C   UNL     1      -5.303  -2.086 -34.040  1.00  0.00     0.035 A 
HETATM   18  C   UNL     1      -4.266  -3.014 -33.937  1.00  0.00     0.029 A 
HETATM   19  C   UNL     1      -4.467  -4.347 -34.315  1.00  0.00     0.002 A 
HETATM   20  C   UNL     1      -5.705  -4.760 -34.802  1.00  0.00     0.000 A 
HETATM   21  C   UNL     1      -6.743  -3.841 -34.914  1.00  0.00     0.002 A 
HETATM   22  C   UNL     1      -6.543  -2.511 -34.535  1.00  0.00     0.029 A 
ENDBRANCH  15  17
ENDBRANCH  11  13
ENDBRANCH   6   7
BRANCH   1  23
HETATM   23  C   UNL     1      -2.403   4.832 -34.807  1.00  0.00     0.306 C 
BRANCH  23  24
HETATM   24  N   UNL     1      -3.464   5.792 -35.119  1.00  0.00     0.082 N 
HETATM   25  H   UNL     1      -3.285   6.163 -36.053  1.00  0.00     0.313 HD
HETATM   26  H   UNL     1      -4.344   5.280 -35.195  1.00  0.00     0.313 HD
ENDBRANCH  23  24
ENDBRANCH   1  23
BRANCH   4  27
HETATM   27  C   UNL     1      -0.107   6.023 -29.584  1.00  0.00     0.256 C 
HETATM   28  O   UNL     1       0.562   5.190 -28.980  1.00  0.00    -0.267 OA
HETATM   29  N   UNL     1      -0.382   7.306 -29.151  1.00  0.00    -0.320 N 
HETATM   30  H   UNL     1      -1.041   7.864 -29.682  1.00  0.00     0.169 HD
BRANCH  29  31
HETATM   31  C   UNL     1       0.109   7.935 -27.981  1.00  0.00     0.076 A 
HETATM   32  C   UNL     1       1.404   8.428 -27.836  1.00  0.00     0.052 A 
HETATM   33  C   UNL     1       1.753   9.032 -26.634  1.00  0.00     0.118 A 
HETATM   34  N   UNL     1       0.911   9.178 -25.586  1.00  0.00    -0.270 NA
HETATM   35  C   UNL     1      -0.342   8.697 -25.751  1.00  0.00     0.160 A 
HETATM   36  C   UNL     1      -0.774   8.080 -26.911  1.00  0.00     0.160 A 
HETATM   37  F   UNL     1      -2.034   7.629 -27.008  1.00  0.00    -0.202 F 
ENDBRANCH  29  31
ENDBRANCH   4  27
TORSDOF 7
ENDMDL
MODEL 3
REMARK VINA RESULT:      -9.4      3.534     10.457
REMARK  7 active torsions:
REMARK  status: ('A' for Active; 'I' for Inactive)
REMARK    1  A    between atoms: N_1  and  C_2 
REMARK    2  A    between atoms: C_2  and  C_3 
REMARK    3  A    between atoms: C_6  and  C_24 
REMARK    4  A    between atoms: C_8  and  C_9 
REMARK    5  A    between atoms: C_13  and  C_15 
REMARK       I    between atoms: C_15  and  N_17 
REMARK    6  A    between atoms: N_17  and  C_18 
REMARK       I    between atoms: C_24  and  N_26 
REMARK    7  A    between atoms: N_26  and  C_27 
ROOT
HETATM    1  C   UNL     1      -1.958   5.704 -33.252  1.00  0.00    -0.020 A 
HETATM    2  C   UNL     1      -1.042   6.772 -33.247  1.00  0.00     0.011 A 
HETATM    3  C   UNL     1      -0.843   7.543 -32.102  1.00  0.00     0.017 A 
HETATM    4  C   UNL     1      -1.544   7.257 -30.928  1.00  0.00     0.033 A 
HETATM    5  C   UNL     1      -2.450   6.187 -30.914  1.00  0.00     0.030 A 
HETATM    6  C   UNL     1      -2.661   5.389 -32.060  1.00  0.00    -0.017 A 
ENDROOT
BRANCH   6   7
HETATM    7  C   UNL     1      -3.610   4.264 -31.982  1.00  0.00    -0.024 A 
HETATM    8  C   UNL     1      -4.996   4.467 -32.071  1.00  0.00     0.012 A 
HETATM    9  C   UNL     1      -5.882   3.388 -32.042  1.00  0.00     0.002 A 
HETATM   10  C   UNL     1      -5.393   2.085 -31.961  1.00  0.00     0.017 A 
HETATM   11  C   UNL     1      -4.015   1.859 -31.886  1.00  0.00     0.033 A 
HETATM   12  C   UNL     1      -3.139   2.950 -31.840  1.00  0.00     0.029 A 
BRANCH  11  13
HETATM   13  C   UNL     1      -3.513   0.454 -31.906  1.00  0.00     0.256 C 
HETATM   14  O   UNL     1      -2.606   0.154 -31.139  1.00  0.00    -0.267 OA
HETATM   15  N   UNL     1      -4.184  -0.390 -32.775  1.00  0.00    -0.323 N 
HETATM   16  H   UNL     1      -4.951   0.006 -33.309  1.00  0.00     0.169 HD
BRANCH  15  17
HETATM   17  C   UNL     1      -3.981  -1.774 -32.958  1.00  0.00     0.035 A 
HETATM   18  C   UNL     1      -4.440  -2.494 -34.062  1.00  0.00     0.029 A 
HETATM   19  C   UNL     1      -4.176  -3.864 -34.175  1.00  0.00     0.002 A 
HETATM   20  C   UNL     1      -3.456  -4.525 -33.183  1.00  0.00     0.000 A 
HETATM   21  C   UNL     1      -3.000  -3.818 -32.075  1.00  0.00     0.002 A 
HETATM   22  C   UNL     1      -3.261  -2.449 -31.964  1.00  0.00     0.029 A 
ENDBRANCH  15  17
ENDBRANCH  11  13
ENDBRANCH   6   7
BRANCH   1  23
HETATM   23  C   UNL     1      -2.166   4.959 -34.556  1.00  0.00     0.306 C 
BRANCH  23  24
HETATM   24  N   UNL     1      -3.306   5.479 -35.315  1.00  0.00     0.082 N 
HETATM   25  H   UNL     1      -3.055   5.467 -36.304  1.00  0.00     0.313 HD
HETATM   26  H   UNL     1      -4.078   4.817 -35.223  1.00  0.00     0.313 HD
ENDBRANCH  23  24
ENDBRANCH   1  23
BRANCH   4  27
HETATM   27  C   UNL     1      -1.331   8.149 -29.750  1.00  0.00     0.256 C 
HETATM   28  O   UNL     1      -1.852   9.260 -29.763  1.00  0.00    -0.267 OA
HETATM   29  N   UNL     1      -0.534   7.643 -28.741  1.00  0.00    -0.320 N 
HETATM   30  H   UNL     1      -0.066   6.756 -28.894  1.00  0.00     0.169 HD
BRANCH  29  31
HETATM   31  C   UNL     1      -0.230   8.260 -27.503  1.00  0.00     0.076 A 
HETATM   32  C   UNL     1      -1.122   8.377 -26.440  1.00  0.00     0.052 A 
HETATM   33  C   UNL     1      -0.689   9.002 -25.276  1.00  0.00     0.118 A 
HETATM   34  N   UNL     1       0.554   9.505 -25.103  1.00  0.00    -0.270 NA
HETATM   35  C   UNL     1       1.404   9.377 -26.147  1.00  0.00     0.160 A 
HETATM   36  C   UNL     1       1.057   8.773 -27.342  1.00  0.00     0.160 A 
HETATM   37  F   UNL     1       1.954   8.675 -28.335  1.00  0.00    -0.202 F 
ENDBRANCH  29  31
ENDBRANCH   4  27
TORSDOF 7
ENDMDL
MODEL 4
REMARK VINA RESULT:      -9.2      3.063      4.684
REMARK  7 active torsions:
REMARK  status: ('A' for Active; 'I' for Inactive)
REMARK    1  A    between atoms: N_1  and  C_2 
REMARK    2  A    between atoms: C_2  and  C_3 
REMARK    3  A    between atoms: C_6  and  C_24 
REMARK    4  A    between atoms: C_8  and  C_9 
REMARK    5  A    between atoms: C_13  and  C_15 
REMARK       I    between atoms: C_15  and  N_17 
REMARK    6  A    between atoms: N_17  and  C_18 
REMARK       I    between atoms: C_24  and  N_26 
REMARK    7  A    between atoms: N_26  and  C_27 
ROOT
HETATM    1  C   UNL     1      -4.648   1.132 -31.633  1.00  0.00    -0.020 A 
HETATM    2  C   UNL     1      -5.624   0.144 -31.407  1.00  0.00     0.011 A 
HETATM    3  C   UNL     1      -6.972   0.395 -31.660  1.00  0.00     0.017 A 
HETATM    4  C   UNL     1      -7.378   1.637 -32.157  1.00  0.00     0.033 A 
HETATM    5  C   UNL     1      -6.414   2.626 -32.399  1.00  0.00     0.030 A 
HETATM    6  C   UNL     1      -5.043   2.390 -32.157  1.00  0.00    -0.017 A 
ENDROOT
BRANCH   6   7
HETATM    7  C   UNL     1      -4.072   3.460 -32.449  1.00  0.00    -0.024 A 
HETATM    8  C   UNL     1      -4.231   4.312 -33.554  1.00  0.00     0.012 A 
HETATM    9  C   UNL     1      -3.330   5.352 -33.792  1.00  0.00     0.002 A 
HETATM   10  C   UNL     1      -2.276   5.578 -32.908  1.00  0.00     0.017 A 
HETATM   11  C   UNL     1      -2.109   4.751 -31.793  1.00  0.00     0.033 A 
HETATM   12  C   UNL     1      -2.972   3.666 -31.604  1.00  0.00     0.029 A 
BRANCH  11  13
HETATM   13  C   UNL     1      -1.037   5.078 -30.807  1.00  0.00     0.256 C 
HETATM   14  O   UNL     1       0.019   4.461 -30.876  1.00  0.00    -0.267 OA
HETATM   15  N   UNL     1      -1.346   6.108 -29.934  1.00  0.00    -0.323 N 
HETATM   16  H   UNL     1      -2.252   6.552 -30.041  1.00  0.00     0.169 HD
BRANCH  15  17
HETATM   17  C   UNL     1      -0.514   6.678 -28.948  1.00  0.00     0.035 A 
HETATM   18  C   UNL     1       0.472   7.631 -29.210  1.00  0.00     0.029 A 
HETATM   19  C   UNL     1       1.241   8.161 -28.168  1.00  0.00     0.002 A 
HETATM   20  C   UNL     1       1.034   7.739 -26.857  1.00  0.00     0.000 A 
HETATM   21  C   UNL     1       0.058   6.785 -26.586  1.00  0.00     0.002 A 
HETATM   22  C   UNL     1      -0.712   6.258 -27.626  1.00  0.00     0.029 A 
ENDBRANCH  15  17
ENDBRANCH  11  13
ENDBRANCH   6   7
BRANCH   1  23
HETATM   23  C   UNL     1      -3.214   0.803 -31.268  1.00  0.00     0.306 C 
BRANCH  23  24
HETATM   24  N   UNL     1      -2.984  -0.640 -31.171  1.00  0.00     0.082 N 
HETATM   25  H   UNL     1      -1.999  -0.786 -30.945  1.00  0.00     0.313 HD
HETATM   26  H   UNL     1      -3.502  -0.992 -30.365  1.00  0.00     0.313 HD
ENDBRANCH  23  24
ENDBRANCH   1  23
BRANCH   4  27
HETATM   27  C   UNL     1      -8.840   1.866 -32.357  1.00  0.00     0.256 C 
HETATM   28  O   UNL     1      -9.495   2.281 -31.407  1.00  0.00    -0.267 OA
HETATM   29  N   UNL     1      -9.336   1.568 -33.612  1.00  0.00    -0.320 N 
HETATM   30  H   UNL     1      -8.718   1.124 -34.282  1.00  0.00     0.169 HD
BRANCH  29  31
HETATM   31  C   UNL     1     -10.663   1.753 -34.070  1.00  0.00     0.076 A 
HETATM   32  C   UNL     1     -11.085   2.828 -34.847  1.00  0.00     0.052 A 
HETATM   33  C   UNL     1     -12.419   2.883 -35.236  1.00  0.00     0.118 A 
HETATM   34  N   UNL     1     -13.342   1.950 -34.911  1.00  0.00    -0.270 NA
HETATM   35  C   UNL     1     -12.908   0.912 -34.160  1.00  0.00     0.160 A 
HETATM   36  C   UNL     1     -11.601   0.779 -33.727  1.00  0.00     0.160 A 
HETATM   37  F   UNL     1     -11.238  -0.280 -32.988  1.00  0.00    -0.202 F 
ENDBRANCH  29  31
ENDBRANCH   4  27
TORSDOF 7
ENDMDL
MODEL 5
REMARK VINA RESULT:      -9.1      1.915      2.185
REMARK  7 active torsions:
REMARK  status: ('A' for Active; 'I' for Inactive)
REMARK    1  A    between atoms: N_1  and  C_2 
REMARK    2  A    between atoms: C_2  and  C_3 
REMARK    3  A    between atoms: C_6  and  C_24 
REMARK    4  A    between atoms: C_8  and  C_9 
REMARK    5  A    between atoms: C_13  and  C_15 
REMARK       I    between atoms: C_15  and  N_17 
REMARK    6  A    between atoms: N_17  and  C_18 
REMARK       I    between atoms: C_24  and  N_26 
REMARK    7  A    between atoms: N_26  and  C_27 
ROOT
HETATM    1  C   UNL     1      -5.659   4.017 -33.021  1.00  0.00    -0.020 A 
HETATM    2  C   UNL     1      -6.750   3.147 -33.211  1.00  0.00     0.011 A 
HETATM    3  C   UNL     1      -6.597   1.766 -33.090  1.00  0.00     0.017 A 
HETATM    4  C   UNL     1      -5.353   1.220 -32.765  1.00  0.00     0.033 A 
HETATM    5  C   UNL     1      -4.261   2.075 -32.561  1.00  0.00     0.030 A 
HETATM    6  C   UNL     1      -4.395   3.476 -32.670  1.00  0.00    -0.017 A 
ENDROOT
BRANCH   6   7
HETATM    7  C   UNL     1      -3.217   4.328 -32.424  1.00  0.00    -0.024 A 
HETATM    8  C   UNL     1      -2.231   4.514 -33.406  1.00  0.00     0.012 A 
HETATM    9  C   UNL     1      -1.144   5.362 -33.177  1.00  0.00     0.002 A 
HETATM   10  C   UNL     1      -1.046   6.063 -31.976  1.00  0.00     0.017 A 
HETATM   11  C   UNL     1      -2.026   5.903 -30.991  1.00  0.00     0.033 A 
HETATM   12  C   UNL     1      -3.070   4.995 -31.199  1.00  0.00     0.029 A 
BRANCH  11  13
HETATM   13  C   UNL     1      -1.953   6.743 -29.760  1.00  0.00     0.256 C 
HETATM   14  O   UNL     1      -1.048   7.564 -29.673  1.00  0.00    -0.267 OA
HETATM   15  N   UNL     1      -2.976   6.530 -28.851  1.00  0.00    -0.323 N 
HETATM   16  H   UNL     1      -3.682   5.843 -29.096  1.00  0.00     0.169 HD
BRANCH  15  17
HETATM   17  C   UNL     1      -3.208   7.217 -27.641  1.00  0.00     0.035 A 
HETATM   18  C   UNL     1      -4.257   8.116 -27.437  1.00  0.00     0.029 A 
HETATM   19  C   UNL     1      -4.426   8.739 -26.196  1.00  0.00     0.002 A 
HETATM   20  C   UNL     1      -3.545   8.474 -25.150  1.00  0.00     0.000 A 
HETATM   21  C   UNL     1      -2.492   7.585 -25.345  1.00  0.00     0.002 A 
HETATM   22  C   UNL     1      -2.325   6.959 -26.583  1.00  0.00     0.029 A 
ENDBRANCH  15  17
ENDBRANCH  11  13
ENDBRANCH   6   7
BRANCH   1  23
HETATM   23  C   UNL     1      -5.894   5.499 -33.238  1.00  0.00     0.306 C 
BRANCH  23  24
HETATM   24  N   UNL     1      -7.300   5.804 -33.509  1.00  0.00     0.082 N 
HETATM   25  H   UNL     1      -7.656   6.359 -32.730  1.00  0.00     0.313 HD
HETATM   26  H   UNL     1      -7.341   6.420 -34.322  1.00  0.00     0.313 HD
ENDBRANCH  23  24
ENDBRANCH   1  23
BRANCH   4  27
HETATM   27  C   UNL     1      -5.236  -0.268 -32.703  1.00  0.00     0.256 C 
HETATM   28  O   UNL     1      -5.170  -0.798 -31.598  1.00  0.00    -0.267 OA
HETATM   29  N   UNL     1      -5.194  -0.925 -33.917  1.00  0.00    -0.320 N 
HETATM   30  H   UNL     1      -5.142  -0.371 -34.765  1.00  0.00     0.169 HD
BRANCH  29  31
HETATM   31  C   UNL     1      -5.147  -2.325 -34.129  1.00  0.00     0.076 A 
HETATM   32  C   UNL     1      -4.061  -3.135 -33.808  1.00  0.00     0.052 A 
HETATM   33  C   UNL     1      -4.152  -4.498 -34.062  1.00  0.00     0.118 A 
HETATM   34  N   UNL     1      -5.237  -5.098 -34.603  1.00  0.00    -0.270 NA
HETATM   35  C   UNL     1      -6.281  -4.293 -34.902  1.00  0.00     0.160 A 
HETATM   36  C   UNL     1      -6.275  -2.927 -34.686  1.00  0.00     0.160 A 
HETATM   37  F   UNL     1      -7.350  -2.188 -35.003  1.00  0.00    -0.202 F 
ENDBRANCH  29  31
ENDBRANCH   4  27
TORSDOF 7
ENDMDL
MODEL 6
REMARK VINA RESULT:      -8.7      3.220     10.544
REMARK  7 active torsions:
REMARK  status: ('A' for Active; 'I' for Inactive)
REMARK    1  A    between atoms: N_1  and  C_2 
REMARK    2  A    between atoms: C_2  and  C_3 
REMARK    3  A    between atoms: C_6  and  C_24 
REMARK    4  A    between atoms: C_8  and  C_9 
REMARK    5  A    between atoms: C_13  and  C_15 
REMARK       I    between atoms: C_15  and  N_17 
REMARK    6  A    between atoms: N_17  and  C_18 
REMARK       I    between atoms: C_24  and  N_26 
REMARK    7  A    between atoms: N_26  and  C_27 
ROOT
HETATM    1  C   UNL     1      -4.129   5.599 -33.017  1.00  0.00    -0.020 A 
HETATM    2  C   UNL     1      -3.081   6.538 -33.023  1.00  0.00     0.011 A 
HETATM    3  C   UNL     1      -2.571   7.053 -31.832  1.00  0.00     0.017 A 
HETATM    4  C   UNL     1      -3.086   6.633 -30.603  1.00  0.00     0.033 A 
HETATM    5  C   UNL     1      -4.122   5.688 -30.582  1.00  0.00     0.030 A 
HETATM    6  C   UNL     1      -4.647   5.148 -31.776  1.00  0.00    -0.017 A 
ENDROOT
BRANCH   6   7
HETATM    7  C   UNL     1      -5.722   4.142 -31.692  1.00  0.00    -0.024 A 
HETATM    8  C   UNL     1      -7.071   4.518 -31.593  1.00  0.00     0.012 A 
HETATM    9  C   UNL     1      -8.083   3.555 -31.562  1.00  0.00     0.002 A 
HETATM   10  C   UNL     1      -7.762   2.202 -31.666  1.00  0.00     0.017 A 
HETATM   11  C   UNL     1      -6.425   1.807 -31.780  1.00  0.00     0.033 A 
HETATM   12  C   UNL     1      -5.415   2.774 -31.735  1.00  0.00     0.029 A 
BRANCH  11  13
HETATM   13  C   UNL     1      -6.117   0.363 -31.995  1.00  0.00     0.256 C 
HETATM   14  O   UNL     1      -6.033  -0.362 -31.012  1.00  0.00    -0.267 OA
HETATM   15  N   UNL     1      -6.010  -0.016 -33.323  1.00  0.00    -0.323 N 
HETATM   16  H   UNL     1      -6.156   0.702 -34.025  1.00  0.00     0.169 HD
BRANCH  15  17
HETATM   17  C   UNL     1      -5.795  -1.314 -33.832  1.00  0.00     0.035 A 
HETATM   18  C   UNL     1      -4.544  -1.931 -33.903  1.00  0.00     0.029 A 
HETATM   19  C   UNL     1      -4.423  -3.232 -34.404  1.00  0.00     0.002 A 
HETATM   20  C   UNL     1      -5.550  -3.925 -34.842  1.00  0.00     0.000 A 
HETATM   21  C   UNL     1      -6.799  -3.316 -34.781  1.00  0.00     0.002 A 
HETATM   22  C   UNL     1      -6.921  -2.018 -34.278  1.00  0.00     0.029 A 
ENDBRANCH  15  17
ENDBRANCH  11  13
ENDBRANCH   6   7
BRANCH   1  23
HETATM   23  C   UNL     1      -4.673   5.141 -34.356  1.00  0.00     0.306 C 
BRANCH  23  24
HETATM   24  N   UNL     1      -3.694   5.295 -35.434  1.00  0.00     0.082 N 
HETATM   25  H   UNL     1      -3.941   4.640 -36.177  1.00  0.00     0.313 HD
HETATM   26  H   UNL     1      -3.812   6.224 -35.841  1.00  0.00     0.313 HD
ENDBRANCH  23  24
ENDBRANCH   1  23
BRANCH   4  27
HETATM   27  C   UNL     1      -2.538   7.259 -29.363  1.00  0.00     0.256 C 
HETATM   28  O   UNL     1      -3.137   7.075 -28.309  1.00  0.00    -0.267 OA
HETATM   29  N   UNL     1      -1.395   8.019 -29.521  1.00  0.00    -0.320 N 
HETATM   30  H   UNL     1      -1.055   8.191 -30.460  1.00  0.00     0.169 HD
BRANCH  29  31
HETATM   31  C   UNL     1      -0.651   8.662 -28.502  1.00  0.00     0.076 A 
HETATM   32  C   UNL     1      -1.089   9.775 -27.789  1.00  0.00     0.052 A 
HETATM   33  C   UNL     1      -0.259  10.303 -26.807  1.00  0.00     0.118 A 
HETATM   34  N   UNL     1       0.956   9.801 -26.491  1.00  0.00    -0.270 NA
HETATM   35  C   UNL     1       1.359   8.718 -27.193  1.00  0.00     0.160 A 
HETATM   36  C   UNL     1       0.599   8.130 -28.188  1.00  0.00     0.160 A 
HETATM   37  F   UNL     1       1.060   7.052 -28.842  1.00  0.00    -0.202 F 
ENDBRANCH  29  31
ENDBRANCH   4  27
TORSDOF 7
ENDMDL
MODEL 7
REMARK VINA RESULT:      -8.7      3.243      9.927
REMARK  7 active torsions:
REMARK  status: ('A' for Active; 'I' for Inactive)
REMARK    1  A    between atoms: N_1  and  C_2 
REMARK    2  A    between atoms: C_2  and  C_3 
REMARK    3  A    between atoms: C_6  and  C_24 
REMARK    4  A    between atoms: C_8  and  C_9 
REMARK    5  A    between atoms: C_13  and  C_15 
REMARK       I    between atoms: C_15  and  N_17 
REMARK    6  A    between atoms: N_17  and  C_18 
REMARK       I    between atoms: C_24  and  N_26 
REMARK    7  A    between atoms: N_26  and  C_27 
ROOT
HETATM    1  C   UNL     1      -2.144   5.343 -33.063  1.00  0.00    -0.020 A 
HETATM    2  C   UNL     1      -1.069   6.200 -32.764  1.00  0.00     0.011 A 
HETATM    3  C   UNL     1      -0.970   6.821 -31.519  1.00  0.00     0.017 A 
HETATM    4  C   UNL     1      -1.938   6.591 -30.536  1.00  0.00     0.033 A 
HETATM    5  C   UNL     1      -3.007   5.729 -30.817  1.00  0.00     0.030 A 
HETATM    6  C   UNL     1      -3.121   5.084 -32.067  1.00  0.00    -0.017 A 
ENDROOT
BRANCH   6   7
HETATM    7  C   UNL     1      -4.257   4.172 -32.299  1.00  0.00    -0.024 A 
HETATM    8  C   UNL     1      -5.433   4.611 -32.925  1.00  0.00     0.012 A 
HETATM    9  C   UNL     1      -6.483   3.725 -33.181  1.00  0.00     0.002 A 
HETATM   10  C   UNL     1      -6.356   2.378 -32.847  1.00  0.00     0.017 A 
HETATM   11  C   UNL     1      -5.186   1.916 -32.236  1.00  0.00     0.033 A 
HETATM   12  C   UNL     1      -4.171   2.825 -31.916  1.00  0.00     0.029 A 
BRANCH  11  13
HETATM   13  C   UNL     1      -5.034   0.453 -31.984  1.00  0.00     0.256 C 
HETATM   14  O   UNL     1      -5.655  -0.040 -31.051  1.00  0.00    -0.267 OA
HETATM   15  N   UNL     1      -4.225  -0.211 -32.892  1.00  0.00    -0.323 N 
HETATM   16  H   UNL     1      -3.819   0.338 -33.643  1.00  0.00     0.169 HD
BRANCH  15  17
HETATM   17  C   UNL     1      -3.952  -1.594 -32.949  1.00  0.00     0.035 A 
HETATM   18  C   UNL     1      -3.260  -2.298 -31.962  1.00  0.00     0.029 A 
HETATM   19  C   UNL     1      -3.051  -3.675 -32.089  1.00  0.00     0.002 A 
HETATM   20  C   UNL     1      -3.527  -4.359 -33.205  1.00  0.00     0.000 A 
HETATM   21  C   UNL     1      -4.212  -3.666 -34.198  1.00  0.00     0.002 A 
HETATM   22  C   UNL     1      -4.424  -2.290 -34.070  1.00  0.00     0.029 A 
ENDBRANCH  15  17
ENDBRANCH  11  13
ENDBRANCH   6   7
BRANCH   1  23
HETATM   23  C   UNL     1      -2.214   4.762 -34.462  1.00  0.00     0.306 C 
BRANCH  23  24
HETATM   24  N   UNL     1      -3.063   5.558 -35.350  1.00  0.00     0.082 N 
HETATM   25  H   UNL     1      -4.034   5.296 -35.173  1.00  0.00     0.313 HD
HETATM   26  H   UNL     1      -2.991   6.536 -35.069  1.00  0.00     0.313 HD
ENDBRANCH  23  24
ENDBRANCH   1  23
BRANCH   4  27
HETATM   27  C   UNL     1      -1.809   7.325 -29.242  1.00  0.00     0.256 C 
HETATM   28  O   UNL     1      -0.946   8.192 -29.153  1.00  0.00    -0.267 OA
HETATM   29  N   UNL     1      -2.677   6.941 -28.238  1.00  0.00    -0.320 N 
HETATM   30  H   UNL     1      -3.270   6.134 -28.394  1.00  0.00     0.169 HD
BRANCH  29  31
HETATM   31  C   UNL     1      -2.798   7.517 -26.949  1.00  0.00     0.076 A 
HETATM   32  C   UNL     1      -1.726   7.969 -26.184  1.00  0.00     0.052 A 
HETATM   33  C   UNL     1      -1.988   8.521 -24.936  1.00  0.00     0.118 A 
HETATM   34  N   UNL     1      -3.226   8.655 -24.411  1.00  0.00    -0.270 NA
HETATM   35  C   UNL     1      -4.252   8.213 -25.173  1.00  0.00     0.160 A 
HETATM   36  C   UNL     1      -4.083   7.648 -26.424  1.00  0.00     0.160 A 
HETATM   37  F   UNL     1      -5.148   7.235 -27.129  1.00  0.00    -0.202 F 
ENDBRANCH  29  31
ENDBRANCH   4  27
TORSDOF 7
ENDMDL
MODEL 8
REMARK VINA RESULT:      -8.5      3.490     10.044
REMARK  7 active torsions:
REMARK  status: ('A' for Active; 'I' for Inactive)
REMARK    1  A    between atoms: N_1  and  C_2 
REMARK    2  A    between atoms: C_2  and  C_3 
REMARK    3  A    between atoms: C_6  and  C_24 
REMARK    4  A    between atoms: C_8  and  C_9 
REMARK    5  A    between atoms: C_13  and  C_15 
REMARK       I    between atoms: C_15  and  N_17 
REMARK    6  A    between atoms: N_17  and  C_18 
REMARK       I    between atoms: C_24  and  N_26 
REMARK    7  A    between atoms: N_26  and  C_27 
ROOT
HETATM    1  C   UNL     1      -7.243   5.394 -29.471  1.00  0.00    -0.020 A 
HETATM    2  C   UNL     1      -7.161   6.187 -28.311  1.00  0.00     0.011 A 
HETATM    3  C   UNL     1      -5.973   6.830 -27.963  1.00  0.00     0.017 A 
HETATM    4  C   UNL     1      -4.841   6.706 -28.772  1.00  0.00     0.033 A 
HETATM    5  C   UNL     1      -4.912   5.929 -29.937  1.00  0.00     0.030 A 
HETATM    6  C   UNL     1      -6.107   5.277 -30.312  1.00  0.00    -0.017 A 
ENDROOT
BRANCH   6   7
HETATM    7  C   UNL     1      -6.129   4.490 -31.559  1.00  0.00    -0.024 A 
HETATM    8  C   UNL     1      -6.121   5.111 -32.817  1.00  0.00     0.012 A 
HETATM    9  C   UNL     1      -6.095   4.353 -33.990  1.00  0.00     0.002 A 
HETATM   10  C   UNL     1      -6.039   2.961 -33.921  1.00  0.00     0.017 A 
HETATM   11  C   UNL     1      -6.031   2.324 -32.677  1.00  0.00     0.033 A 
HETATM   12  C   UNL     1      -6.134   3.088 -31.509  1.00  0.00     0.029 A 
BRANCH  11  13
HETATM   13  C   UNL     1      -5.866   0.841 -32.629  1.00  0.00     0.256 C 
HETATM   14  O   UNL     1      -5.795   0.303 -31.531  1.00  0.00    -0.267 OA
HETATM   15  N   UNL     1      -5.864   0.218 -33.866  1.00  0.00    -0.323 N 
HETATM   16  H   UNL     1      -5.982   0.806 -34.684  1.00  0.00     0.169 HD
BRANCH  15  17
HETATM   17  C   UNL     1      -5.794  -1.167 -34.130  1.00  0.00     0.035 A 
HETATM   18  C   UNL     1      -6.881  -1.943 -34.535  1.00  0.00     0.029 A 
HETATM   19  C   UNL     1      -6.719  -3.308 -34.797  1.00  0.00     0.002 A 
HETATM   20  C   UNL     1      -5.471  -3.908 -34.651  1.00  0.00     0.000 A 
HETATM   21  C   UNL     1      -4.383  -3.145 -34.242  1.00  0.00     0.002 A 
HETATM   22  C   UNL     1      -4.543  -1.781 -33.983  1.00  0.00     0.029 A 
ENDBRANCH  15  17
ENDBRANCH  11  13
ENDBRANCH   6   7
BRANCH   1  23
HETATM   23  C   UNL     1      -8.550   4.674 -29.741  1.00  0.00     0.306 C 
BRANCH  23  24
HETATM   24  N   UNL     1      -9.701   5.579 -29.697  1.00  0.00     0.082 N 
HETATM   25  H   UNL     1      -9.363   6.524 -29.880  1.00  0.00     0.313 HD
HETATM   26  H   UNL     1     -10.313   5.353 -30.481  1.00  0.00     0.313 HD
ENDBRANCH  23  24
ENDBRANCH   1  23
BRANCH   4  27
HETATM   27  C   UNL     1      -3.582   7.372 -28.321  1.00  0.00     0.256 C 
HETATM   28  O   UNL     1      -3.664   8.499 -27.842  1.00  0.00    -0.267 OA
HETATM   29  N   UNL     1      -2.416   6.655 -28.504  1.00  0.00    -0.320 N 
HETATM   30  H   UNL     1      -2.462   5.780 -29.015  1.00  0.00     0.169 HD
BRANCH  29  31
HETATM   31  C   UNL     1      -1.110   7.035 -28.110  1.00  0.00     0.076 A 
HETATM   32  C   UNL     1      -0.220   7.745 -28.910  1.00  0.00     0.052 A 
HETATM   33  C   UNL     1       1.032   8.060 -28.394  1.00  0.00     0.118 A 
HETATM   34  N   UNL     1       1.446   7.723 -27.151  1.00  0.00    -0.270 NA
HETATM   35  C   UNL     1       0.563   7.038 -26.390  1.00  0.00     0.160 A 
HETATM   36  C   UNL     1      -0.700   6.680 -26.824  1.00  0.00     0.160 A 
HETATM   37  F   UNL     1      -1.528   6.003 -26.013  1.00  0.00    -0.202 F 
ENDBRANCH  29  31
ENDBRANCH   4  27
TORSDOF 7
ENDMDL
MODEL 9
REMARK VINA RESULT:      -8.5      3.895      8.451
REMARK  7 active torsions:
REMARK  status: ('A' for Active; 'I' for Inactive)
REMARK    1  A    between atoms: N_1  and  C_2 
REMARK    2  A    between atoms: C_2  and  C_3 
REMARK    3  A    between atoms: C_6  and  C_24 
REMARK    4  A    between atoms: C_8  and  C_9 
REMARK    5  A    between atoms: C_13  and  C_15 
REMARK       I    between atoms: C_15  and  N_17 
REMARK    6  A    between atoms: N_17  and  C_18 
REMARK       I    between atoms: C_24  and  N_26 
REMARK    7  A    between atoms: N_26  and  C_27 
ROOT
HETATM    1  C   UNL     1      -4.647   3.379 -31.477  1.00  0.00    -0.020 A 
HETATM    2  C   UNL     1      -3.498   2.631 -31.160  1.00  0.00     0.011 A 
HETATM    3  C   UNL     1      -3.343   1.324 -31.621  1.00  0.00     0.017 A 
HETATM    4  C   UNL     1      -4.326   0.735 -32.420  1.00  0.00     0.033 A 
HETATM    5  C   UNL     1      -5.470   1.474 -32.754  1.00  0.00     0.030 A 
HETATM    6  C   UNL     1      -5.644   2.801 -32.306  1.00  0.00    -0.017 A 
ENDROOT
BRANCH   6   7
HETATM    7  C   UNL     1      -6.857   3.537 -32.705  1.00  0.00    -0.024 A 
HETATM    8  C   UNL     1      -6.825   4.507 -33.719  1.00  0.00     0.012 A 
HETATM    9  C   UNL     1      -7.992   5.162 -34.121  1.00  0.00     0.002 A 
HETATM   10  C   UNL     1      -9.215   4.831 -33.538  1.00  0.00     0.017 A 
HETATM   11  C   UNL     1      -9.270   3.857 -32.537  1.00  0.00     0.033 A 
HETATM   12  C   UNL     1      -8.087   3.259 -32.089  1.00  0.00     0.029 A 
BRANCH  11  13
HETATM   13  C   UNL     1     -10.603   3.447 -32.005  1.00  0.00     0.256 C 
HETATM   14  O   UNL     1     -10.758   3.425 -30.790  1.00  0.00    -0.267 OA
HETATM   15  N   UNL     1     -11.557   3.181 -32.972  1.00  0.00    -0.323 N 
HETATM   16  H   UNL     1     -11.281   3.294 -33.942  1.00  0.00     0.169 HD
BRANCH  15  17
HETATM   17  C   UNL     1     -12.912   2.842 -32.773  1.00  0.00     0.035 A 
HETATM   18  C   UNL     1     -13.808   3.602 -32.019  1.00  0.00     0.029 A 
HETATM   19  C   UNL     1     -15.143   3.203 -31.889  1.00  0.00     0.002 A 
HETATM   20  C   UNL     1     -15.592   2.039 -32.508  1.00  0.00     0.000 A 
HETATM   21  C   UNL     1     -14.706   1.271 -33.257  1.00  0.00     0.002 A 
HETATM   22  C   UNL     1     -13.373   1.671 -33.390  1.00  0.00     0.029 A 
ENDBRANCH  15  17
ENDBRANCH  11  13
ENDBRANCH   6   7
BRANCH   1  23
HETATM   23  C   UNL     1      -4.771   4.767 -30.881  1.00  0.00     0.306 C 
BRANCH  23  24
HETATM   24  N   UNL     1      -5.082   4.731 -29.450  1.00  0.00     0.082 N 
HETATM   25  H   UNL     1      -4.204   4.819 -28.937  1.00  0.00     0.313 HD
HETATM   26  H   UNL     1      -5.616   5.569 -29.219  1.00  0.00     0.313 HD
ENDBRANCH  23  24
ENDBRANCH   1  23
BRANCH   4  27
HETATM   27  C   UNL     1      -4.131  -0.685 -32.838  1.00  0.00     0.256 C 
HETATM   28  O   UNL     1      -3.084  -1.242 -32.523  1.00  0.00    -0.267 OA
HETATM   29  N   UNL     1      -5.156  -1.249 -33.573  1.00  0.00    -0.320 N 
HETATM   30  H   UNL     1      -5.922  -0.654 -33.869  1.00  0.00     0.169 HD
BRANCH  29  31
HETATM   31  C   UNL     1      -5.241  -2.585 -34.033  1.00  0.00     0.076 A 
HETATM   32  C   UNL     1      -4.257  -3.551 -33.836  1.00  0.00     0.052 A 
HETATM   33  C   UNL     1      -4.473  -4.830 -34.336  1.00  0.00     0.118 A 
HETATM   34  N   UNL     1      -5.587  -5.205 -35.004  1.00  0.00    -0.270 NA
HETATM   35  C   UNL     1      -6.530  -4.253 -35.180  1.00  0.00     0.160 A 
HETATM   36  C   UNL     1      -6.398  -2.955 -34.719  1.00  0.00     0.160 A 
HETATM   37  F   UNL     1      -7.377  -2.061 -34.926  1.00  0.00    -0.202 F 
ENDBRANCH  29  31
ENDBRANCH   4  27
TORSDOF 7
ENDMDL
MODEL 10
REMARK VINA RESULT:      -8.5      2.715      4.236
REMARK  7 active torsions:
REMARK  status: ('A' for Active; 'I' for Inactive)
REMARK    1  A    between atoms: N_1  and  C_2 
REMARK    2  A    between atoms: C_2  and  C_3 
REMARK    3  A    between atoms: C_6  and  C_24 
REMARK    4  A    between atoms: C_8  and  C_9 
REMARK    5  A    between atoms: C_13  and  C_15 
REMARK       I    between atoms: C_15  and  N_17 
REMARK    6  A    between atoms: N_17  and  C_18 
REMARK       I    between atoms: C_24  and  N_26 
REMARK    7  A    between atoms: N_26  and  C_27 
ROOT
HETATM    1  C   UNL     1      -9.868   3.058 -32.508  1.00  0.00    -0.020 A 
HETATM    2  C   UNL     1     -10.503   2.161 -33.388  1.00  0.00     0.011 A 
HETATM    3  C   UNL     1      -9.794   1.124 -33.992  1.00  0.00     0.017 A 
HETATM    4  C   UNL     1      -8.434   0.948 -33.723  1.00  0.00     0.033 A 
HETATM    5  C   UNL     1      -7.792   1.826 -32.838  1.00  0.00     0.030 A 
HETATM    6  C   UNL     1      -8.493   2.877 -32.209  1.00  0.00    -0.017 A 
ENDROOT
BRANCH   6   7
HETATM    7  C   UNL     1      -7.770   3.758 -31.273  1.00  0.00    -0.024 A 
HETATM    8  C   UNL     1      -8.160   3.875 -29.929  1.00  0.00     0.012 A 
HETATM    9  C   UNL     1      -7.438   4.676 -29.041  1.00  0.00     0.002 A 
HETATM   10  C   UNL     1      -6.293   5.343 -29.476  1.00  0.00     0.017 A 
HETATM   11  C   UNL     1      -5.879   5.227 -30.806  1.00  0.00     0.033 A 
HETATM   12  C   UNL     1      -6.650   4.483 -31.706  1.00  0.00     0.029 A 
BRANCH  11  13
HETATM   13  C   UNL     1      -4.594   5.865 -31.218  1.00  0.00     0.256 C 
HETATM   14  O   UNL     1      -4.636   6.764 -32.050  1.00  0.00    -0.267 OA
HETATM   15  N   UNL     1      -3.473   5.392 -30.558  1.00  0.00    -0.323 N 
HETATM   16  H   UNL     1      -3.615   4.673 -29.856  1.00  0.00     0.169 HD
BRANCH  15  17
HETATM   17  C   UNL     1      -2.144   5.847 -30.685  1.00  0.00     0.035 A 
HETATM   18  C   UNL     1      -1.654   7.012 -30.094  1.00  0.00     0.029 A 
HETATM   19  C   UNL     1      -0.314   7.380 -30.255  1.00  0.00     0.002 A 
HETATM   20  C   UNL     1       0.546   6.589 -31.013  1.00  0.00     0.000 A 
HETATM   21  C   UNL     1       0.067   5.429 -31.613  1.00  0.00     0.002 A 
HETATM   22  C   UNL     1      -1.271   5.059 -31.449  1.00  0.00     0.029 A 
ENDBRANCH  15  17
ENDBRANCH  11  13
ENDBRANCH   6   7
BRANCH   1  23
HETATM   23  C   UNL     1     -10.694   4.199 -31.947  1.00  0.00     0.306 C 
BRANCH  23  24
HETATM   24  N   UNL     1     -11.696   3.737 -30.984  1.00  0.00     0.082 N 
HETATM   25  H   UNL     1     -11.343   3.933 -30.047  1.00  0.00     0.313 HD
HETATM   26  H   UNL     1     -12.529   4.317 -31.088  1.00  0.00     0.313 HD
ENDBRANCH  23  24
ENDBRANCH   1  23
BRANCH   4  27
HETATM   27  C   UNL     1      -7.714  -0.146 -34.440  1.00  0.00     0.256 C 
HETATM   28  O   UNL     1      -7.585  -0.053 -35.657  1.00  0.00    -0.267 OA
HETATM   29  N   UNL     1      -7.267  -1.194 -33.659  1.00  0.00    -0.320 N 
HETATM   30  H   UNL     1      -7.533  -1.215 -32.681  1.00  0.00     0.169 HD
BRANCH  29  31
HETATM   31  C   UNL     1      -6.512  -2.314 -34.084  1.00  0.00     0.076 A 
HETATM   32  C   UNL     1      -7.062  -3.512 -34.533  1.00  0.00     0.052 A 
HETATM   33  C   UNL     1      -6.202  -4.530 -34.929  1.00  0.00     0.118 A 
HETATM   34  N   UNL     1      -4.854  -4.433 -34.912  1.00  0.00    -0.270 NA
HETATM   35  C   UNL     1      -4.342  -3.260 -34.477  1.00  0.00     0.160 A 
HETATM   36  C   UNL     1      -5.122  -2.196 -34.062  1.00  0.00     0.160 A 
HETATM   37  F   UNL     1      -4.546  -1.057 -33.646  1.00  0.00    -0.202 F 
ENDBRANCH  29  31
ENDBRANCH   4  27
TORSDOF 7
ENDMDL
