MODEL 1
REMARK VINA RESULT:      -9.0      0.000      0.000
REMARK  6 active torsions:
REMARK  status: ('A' for Active; 'I' for Inactive)
REMARK    1  A    between atoms: O_2  and  C_3 
REMARK    2  A    between atoms: C_6  and  C_7 
REMARK    3  A    between atoms: C_11  and  C_12 
REMARK       I    between atoms: C_12  and  N_13 
REMARK    4  A    between atoms: N_13  and  N_14 
REMARK       I    between atoms: N_14  and  C_15 
REMARK    5  A    between atoms: C_15  and  C_16 
REMARK    6  A    between atoms: C_16  and  C_17 
ROOT
HETATM    1  C   UNL     1      -4.123   4.292 -31.205  1.00  0.00     0.288 C 
HETATM    2  N   UNL     1      -2.746   4.286 -31.111  1.00  0.00    -0.262 N 
HETATM    3  O   UNL     1      -4.800   5.232 -30.792  1.00  0.00    -0.264 OA
HETATM    4  H   UNL     1      -2.178   3.592 -31.591  1.00  0.00     0.190 HD
ENDROOT
BRANCH   1   5
HETATM    5  C   UNL     1      -4.696   3.135 -31.836  1.00  0.00     0.121 A 
HETATM    6  N   UNL     1      -5.958   3.141 -32.361  1.00  0.00    -0.272 N 
HETATM    7  N   UNL     1      -6.328   1.977 -32.917  1.00  0.00    -0.174 NA
HETATM    8  H   UNL     1      -6.614   3.916 -32.366  1.00  0.00     0.189 HD
HETATM    9  C   UNL     1      -5.256   1.180 -32.783  1.00  0.00     0.089 A 
HETATM   10  C   UNL     1      -4.219   1.865 -32.090  1.00  0.00     0.071 A 
BRANCH   9  11
HETATM   11  C   UNL     1      -5.234  -0.191 -33.303  1.00  0.00    -0.005 A 
HETATM   12  C   UNL     1      -6.289  -0.683 -34.081  1.00  0.00     0.016 A 
HETATM   13  C   UNL     1      -6.253  -1.989 -34.580  1.00  0.00     0.037 A 
HETATM   14  C   UNL     1      -5.166  -2.825 -34.317  1.00  0.00     0.068 A 
HETATM   15  C   UNL     1      -4.117  -2.347 -33.535  1.00  0.00     0.037 A 
HETATM   16  C   UNL     1      -4.152  -1.040 -33.030  1.00  0.00     0.016 A 
BRANCH  14  17
HETATM   17  O   UNL     1      -5.260  -4.072 -34.872  1.00  0.00    -0.356 OA
HETATM   18  C   UNL     1      -6.545  -4.476 -35.325  1.00  0.00     0.210 C 
ENDBRANCH  14  17
ENDBRANCH   9  11
ENDBRANCH   1   5
BRANCH   2  19
HETATM   19  N   UNL     1      -2.085   5.483 -30.794  1.00  0.00    -0.267 N 
HETATM   20  C   UNL     1      -0.723   5.399 -30.576  1.00  0.00     0.240 C 
HETATM   21  O   UNL     1      -0.144   4.316 -30.469  1.00  0.00    -0.272 OA
HETATM   22  H   UNL     1      -2.547   6.348 -31.074  1.00  0.00     0.190 HD
BRANCH  20  23
HETATM   23  C   UNL     1      -0.009   6.729 -30.464  1.00  0.00     0.143 C 
BRANCH  23  24
HETATM   24  C   UNL     1       0.395   7.117 -29.060  1.00  0.00    -0.049 A 
HETATM   25  C   UNL     1       0.079   6.320 -27.948  1.00  0.00     0.009 A 
HETATM   26  C   UNL     1       0.509   6.682 -26.669  1.00  0.00     0.024 A 
HETATM   27  C   UNL     1       1.276   7.830 -26.493  1.00  0.00     0.034 A 
HETATM   28 CL   UNL     1       1.814   8.269 -24.919  1.00  0.00    -0.084 Cl
HETATM   29  C   UNL     1       1.618   8.620 -27.587  1.00  0.00     0.024 A 
HETATM   30  C   UNL     1       1.183   8.262 -28.865  1.00  0.00     0.009 A 
ENDBRANCH  23  24
ENDBRANCH  20  23
ENDBRANCH   2  19
TORSDOF 6
ENDMDL
MODEL 2
REMARK VINA RESULT:      -8.4      3.903     11.027
REMARK  6 active torsions:
REMARK  status: ('A' for Active; 'I' for Inactive)
REMARK    1  A    between atoms: O_2  and  C_3 
REMARK    2  A    between atoms: C_6  and  C_7 
REMARK    3  A    between atoms: C_11  and  C_12 
REMARK       I    between atoms: C_12  and  N_13 
REMARK    4  A    between atoms: N_13  and  N_14 
REMARK       I    between atoms: N_14  and  C_15 
REMARK    5  A    between atoms: C_15  and  C_16 
REMARK    6  A    between atoms: C_16  and  C_17 
ROOT
HETATM    1  C   UNL     1      -2.548   4.293 -32.319  1.00  0.00     0.288 C 
HETATM    2  N   UNL     1      -3.605   3.488 -31.945  1.00  0.00    -0.262 N 
HETATM    3  O   UNL     1      -2.036   4.218 -33.435  1.00  0.00    -0.264 OA
HETATM    4  H   UNL     1      -4.131   3.655 -31.090  1.00  0.00     0.190 HD
ENDROOT
BRANCH   1   5
HETATM    5  C   UNL     1      -2.112   5.230 -31.321  1.00  0.00     0.121 A 
HETATM    6  N   UNL     1      -2.866   6.309 -30.955  1.00  0.00    -0.272 N 
HETATM    7  N   UNL     1      -2.307   7.074 -30.005  1.00  0.00    -0.174 NA
HETATM    8  H   UNL     1      -3.774   6.573 -31.324  1.00  0.00     0.189 HD
HETATM    9  C   UNL     1      -1.151   6.459 -29.709  1.00  0.00     0.089 A 
HETATM   10  C   UNL     1      -0.984   5.309 -30.530  1.00  0.00     0.071 A 
BRANCH   9  11
HETATM   11  C   UNL     1      -0.244   6.961 -28.673  1.00  0.00    -0.005 A 
HETATM   12  C   UNL     1      -0.273   6.438 -27.374  1.00  0.00     0.016 A 
HETATM   13  C   UNL     1       0.604   6.917 -26.396  1.00  0.00     0.037 A 
HETATM   14  C   UNL     1       1.527   7.922 -26.693  1.00  0.00     0.068 A 
HETATM   15  C   UNL     1       1.556   8.456 -27.980  1.00  0.00     0.037 A 
HETATM   16  C   UNL     1       0.676   7.980 -28.961  1.00  0.00     0.016 A 
BRANCH  14  17
HETATM   17  O   UNL     1       2.325   8.290 -25.646  1.00  0.00    -0.356 OA
HETATM   18  C   UNL     1       1.767   9.196 -24.703  1.00  0.00     0.210 C 
ENDBRANCH  14  17
ENDBRANCH   9  11
ENDBRANCH   1   5
BRANCH   2  19
HETATM   19  N   UNL     1      -4.290   2.766 -32.935  1.00  0.00    -0.267 N 
HETATM   20  C   UNL     1      -5.253   1.878 -32.499  1.00  0.00     0.240 C 
HETATM   21  O   UNL     1      -5.380   1.583 -31.309  1.00  0.00    -0.272 OA
HETATM   22  H   UNL     1      -4.292   3.167 -33.873  1.00  0.00     0.190 HD
BRANCH  20  23
HETATM   23  C   UNL     1      -6.124   1.291 -33.589  1.00  0.00     0.143 C 
BRANCH  23  24
HETATM   24  C   UNL     1      -5.863  -0.166 -33.895  1.00  0.00    -0.049 A 
HETATM   25  C   UNL     1      -4.633  -0.778 -33.605  1.00  0.00     0.009 A 
HETATM   26  C   UNL     1      -4.440  -2.139 -33.855  1.00  0.00     0.024 A 
HETATM   27  C   UNL     1      -5.479  -2.904 -34.377  1.00  0.00     0.034 A 
HETATM   28 CL   UNL     1      -5.242  -4.581 -34.674  1.00  0.00    -0.084 Cl
HETATM   29  C   UNL     1      -6.712  -2.319 -34.650  1.00  0.00     0.024 A 
HETATM   30  C   UNL     1      -6.904  -0.957 -34.406  1.00  0.00     0.009 A 
ENDBRANCH  23  24
ENDBRANCH  20  23
ENDBRANCH   2  19
TORSDOF 6
ENDMDL
MODEL 3
REMARK VINA RESULT:      -8.1      3.392      4.290
REMARK  6 active torsions:
REMARK  status: ('A' for Active; 'I' for Inactive)
REMARK    1  A    between atoms: O_2  and  C_3 
REMARK    2  A    between atoms: C_6  and  C_7 
REMARK    3  A    between atoms: C_11  and  C_12 
REMARK       I    between atoms: C_12  and  N_13 
REMARK    4  A    between atoms: N_13  and  N_14 
REMARK       I    between atoms: N_14  and  C_15 
REMARK    5  A    between atoms: C_15  and  C_16 
REMARK    6  A    between atoms: C_16  and  C_17 
ROOT
HETATM    1  C   UNL     1      -3.231   3.088 -32.292  1.00  0.00     0.288 C 
HETATM    2  N   UNL     1      -2.911   3.867 -33.385  1.00  0.00    -0.262 N 
HETATM    3  O   UNL     1      -2.520   3.048 -31.289  1.00  0.00    -0.264 OA
HETATM    4  H   UNL     1      -3.571   4.027 -34.143  1.00  0.00     0.190 HD
ENDROOT
BRANCH   1   5
HETATM    5  C   UNL     1      -4.459   2.350 -32.408  1.00  0.00     0.121 A 
HETATM    6  N   UNL     1      -4.581   1.064 -31.963  1.00  0.00    -0.272 N 
HETATM    7  N   UNL     1      -5.799   0.531 -32.146  1.00  0.00    -0.174 NA
HETATM    8  H   UNL     1      -3.860   0.498 -31.526  1.00  0.00     0.189 HD
HETATM    9  C   UNL     1      -6.520   1.516 -32.705  1.00  0.00     0.089 A 
HETATM   10  C   UNL     1      -5.707   2.666 -32.905  1.00  0.00     0.071 A 
BRANCH   9  11
HETATM   11  C   UNL     1      -7.939   1.353 -33.035  1.00  0.00    -0.005 A 
HETATM   12  C   UNL     1      -8.675   0.270 -32.535  1.00  0.00     0.016 A 
HETATM   13  C   UNL     1     -10.031   0.129 -32.848  1.00  0.00     0.037 A 
HETATM   14  C   UNL     1     -10.678   1.064 -33.658  1.00  0.00     0.068 A 
HETATM   15  C   UNL     1      -9.952   2.138 -34.168  1.00  0.00     0.037 A 
HETATM   16  C   UNL     1      -8.592   2.280 -33.859  1.00  0.00     0.016 A 
BRANCH  14  17
HETATM   17  O   UNL     1     -12.003   0.806 -33.876  1.00  0.00    -0.356 OA
HETATM   18  C   UNL     1     -12.614   1.478 -34.970  1.00  0.00     0.210 C 
ENDBRANCH  14  17
ENDBRANCH   9  11
ENDBRANCH   1   5
BRANCH   2  19
HETATM   19  N   UNL     1      -1.910   4.843 -33.250  1.00  0.00    -0.267 N 
HETATM   20  C   UNL     1      -2.147   6.060 -33.859  1.00  0.00     0.240 C 
HETATM   21  O   UNL     1      -3.085   6.229 -34.640  1.00  0.00    -0.272 OA
HETATM   22  H   UNL     1      -1.269   4.732 -32.465  1.00  0.00     0.190 HD
BRANCH  20  23
HETATM   23  C   UNL     1      -1.163   7.154 -33.505  1.00  0.00     0.143 C 
BRANCH  23  24
HETATM   24  C   UNL     1      -0.948   7.362 -32.024  1.00  0.00    -0.049 A 
HETATM   25  C   UNL     1      -1.921   7.960 -31.208  1.00  0.00     0.009 A 
HETATM   26  C   UNL     1      -1.713   8.093 -29.833  1.00  0.00     0.024 A 
HETATM   27  C   UNL     1      -0.540   7.611 -29.259  1.00  0.00     0.034 A 
HETATM   28 CL   UNL     1      -0.289   7.766 -27.564  1.00  0.00    -0.084 Cl
HETATM   29  C   UNL     1       0.426   6.995 -30.049  1.00  0.00     0.024 A 
HETATM   30  C   UNL     1       0.221   6.867 -31.424  1.00  0.00     0.009 A 
ENDBRANCH  23  24
ENDBRANCH  20  23
ENDBRANCH   2  19
TORSDOF 6
ENDMDL
MODEL 4
REMARK VINA RESULT:      -8.0      3.722      4.353
REMARK  6 active torsions:
REMARK  status: ('A' for Active; 'I' for Inactive)
REMARK    1  A    between atoms: O_2  and  C_3 
REMARK    2  A    between atoms: C_6  and  C_7 
REMARK    3  A    between atoms: C_11  and  C_12 
REMARK       I    between atoms: C_12  and  N_13 
REMARK    4  A    between atoms: N_13  and  N_14 
REMARK       I    between atoms: N_14  and  C_15 
REMARK    5  A    between atoms: C_15  and  C_16 
REMARK    6  A    between atoms: C_16  and  C_17 
ROOT
HETATM    1  C   UNL     1      -5.204   5.122 -34.005  1.00  0.00     0.288 C 
HETATM    2  N   UNL     1      -4.800   5.938 -32.968  1.00  0.00    -0.262 N 
HETATM    3  O   UNL     1      -4.467   4.865 -34.956  1.00  0.00    -0.264 OA
HETATM    4  H   UNL     1      -5.341   6.022 -32.109  1.00  0.00     0.190 HD
ENDROOT
BRANCH   1   5
HETATM    5  C   UNL     1      -6.531   4.585 -33.879  1.00  0.00     0.121 A 
HETATM    6  N   UNL     1      -7.646   5.371 -33.954  1.00  0.00    -0.272 N 
HETATM    7  N   UNL     1      -8.801   4.702 -33.820  1.00  0.00    -0.174 NA
HETATM    8  H   UNL     1      -7.675   6.376 -34.094  1.00  0.00     0.189 HD
HETATM    9  C   UNL     1      -8.436   3.417 -33.683  1.00  0.00     0.089 A 
HETATM   10  C   UNL     1      -7.018   3.307 -33.693  1.00  0.00     0.071 A 
BRANCH   9  11
HETATM   11  C   UNL     1      -9.419   2.338 -33.547  1.00  0.00    -0.005 A 
HETATM   12  C   UNL     1     -10.732   2.497 -34.010  1.00  0.00     0.016 A 
HETATM   13  C   UNL     1     -11.659   1.457 -33.884  1.00  0.00     0.037 A 
HETATM   14  C   UNL     1     -11.296   0.242 -33.300  1.00  0.00     0.068 A 
HETATM   15  C   UNL     1      -9.995   0.079 -32.828  1.00  0.00     0.037 A 
HETATM   16  C   UNL     1      -9.065   1.121 -32.949  1.00  0.00     0.016 A 
BRANCH  14  17
HETATM   17  O   UNL     1     -12.298  -0.686 -33.248  1.00  0.00    -0.356 OA
HETATM   18  C   UNL     1     -13.587  -0.262 -33.671  1.00  0.00     0.210 C 
ENDBRANCH  14  17
ENDBRANCH   9  11
ENDBRANCH   1   5
BRANCH   2  19
HETATM   19  N   UNL     1      -3.439   6.258 -32.849  1.00  0.00    -0.267 N 
HETATM   20  C   UNL     1      -2.700   5.499 -31.962  1.00  0.00     0.240 C 
HETATM   21  O   UNL     1      -3.230   4.715 -31.173  1.00  0.00    -0.272 OA
HETATM   22  H   UNL     1      -3.018   6.760 -33.631  1.00  0.00     0.190 HD
BRANCH  20  23
HETATM   23  C   UNL     1      -1.203   5.717 -32.027  1.00  0.00     0.143 C 
BRANCH  23  24
HETATM   24  C   UNL     1      -0.556   6.076 -30.709  1.00  0.00    -0.049 A 
HETATM   25  C   UNL     1       0.145   5.131 -29.943  1.00  0.00     0.009 A 
HETATM   26  C   UNL     1       0.774   5.507 -28.753  1.00  0.00     0.024 A 
HETATM   27  C   UNL     1       0.725   6.832 -28.330  1.00  0.00     0.034 A 
HETATM   28 CL   UNL     1       1.509   7.295 -26.870  1.00  0.00    -0.084 Cl
HETATM   29  C   UNL     1       0.054   7.786 -29.088  1.00  0.00     0.024 A 
HETATM   30  C   UNL     1      -0.580   7.411 -30.275  1.00  0.00     0.009 A 
ENDBRANCH  23  24
ENDBRANCH  20  23
ENDBRANCH   2  19
TORSDOF 6
ENDMDL
MODEL 5
REMARK VINA RESULT:      -7.9      2.888      3.309
REMARK  6 active torsions:
REMARK  status: ('A' for Active; 'I' for Inactive)
REMARK    1  A    between atoms: O_2  and  C_3 
REMARK    2  A    between atoms: C_6  and  C_7 
REMARK    3  A    between atoms: C_11  and  C_12 
REMARK       I    between atoms: C_12  and  N_13 
REMARK    4  A    between atoms: N_13  and  N_14 
REMARK       I    between atoms: N_14  and  C_15 
REMARK    5  A    between atoms: C_15  and  C_16 
REMARK    6  A    between atoms: C_16  and  C_17 
ROOT
HETATM    1  C   UNL     1      -2.746   3.850 -32.280  1.00  0.00     0.288 C 
HETATM    2  N   UNL     1      -2.255   4.198 -31.038  1.00  0.00    -0.262 N 
HETATM    3  O   UNL     1      -2.252   4.282 -33.320  1.00  0.00    -0.264 OA
HETATM    4  H   UNL     1      -2.555   3.721 -30.190  1.00  0.00     0.190 HD
ENDROOT
BRANCH   1   5
HETATM    5  C   UNL     1      -3.856   2.937 -32.264  1.00  0.00     0.121 A 
HETATM    6  N   UNL     1      -3.761   1.683 -31.729  1.00  0.00    -0.272 N 
HETATM    7  N   UNL     1      -4.896   0.970 -31.794  1.00  0.00    -0.174 NA
HETATM    8  H   UNL     1      -2.941   1.261 -31.306  1.00  0.00     0.189 HD
HETATM    9  C   UNL     1      -5.785   1.796 -32.366  1.00  0.00     0.089 A 
HETATM   10  C   UNL     1      -5.164   3.033 -32.695  1.00  0.00     0.071 A 
BRANCH   9  11
HETATM   11  C   UNL     1      -7.181   1.407 -32.586  1.00  0.00    -0.005 A 
HETATM   12  C   UNL     1      -7.820   1.674 -33.804  1.00  0.00     0.016 A 
HETATM   13  C   UNL     1      -9.149   1.290 -34.008  1.00  0.00     0.037 A 
HETATM   14  C   UNL     1      -9.864   0.632 -33.006  1.00  0.00     0.068 A 
HETATM   15  C   UNL     1      -9.241   0.371 -31.787  1.00  0.00     0.037 A 
HETATM   16  C   UNL     1      -7.910   0.758 -31.579  1.00  0.00     0.016 A 
BRANCH  14  17
HETATM   17  O   UNL     1     -11.150   0.310 -33.342  1.00  0.00    -0.356 OA
HETATM   18  C   UNL     1     -11.984   1.375 -33.779  1.00  0.00     0.210 C 
ENDBRANCH  14  17
ENDBRANCH   9  11
ENDBRANCH   1   5
BRANCH   2  19
HETATM   19  N   UNL     1      -1.005   4.830 -30.958  1.00  0.00    -0.267 N 
HETATM   20  C   UNL     1      -0.983   6.090 -30.393  1.00  0.00     0.240 C 
HETATM   21  O   UNL     1      -2.017   6.714 -30.149  1.00  0.00    -0.272 OA
HETATM   22  H   UNL     1      -0.185   4.224 -30.989  1.00  0.00     0.190 HD
BRANCH  20  23
HETATM   23  C   UNL     1       0.398   6.643 -30.115  1.00  0.00     0.143 C 
BRANCH  23  24
HETATM   24  C   UNL     1       0.594   7.191 -28.720  1.00  0.00    -0.049 A 
HETATM   25  C   UNL     1       0.195   6.478 -27.578  1.00  0.00     0.009 A 
HETATM   26  C   UNL     1       0.434   6.991 -26.300  1.00  0.00     0.024 A 
HETATM   27  C   UNL     1       1.092   8.209 -26.153  1.00  0.00     0.034 A 
HETATM   28 CL   UNL     1       1.395   8.833 -24.579  1.00  0.00    -0.084 Cl
HETATM   29  C   UNL     1       1.514   8.918 -27.273  1.00  0.00     0.024 A 
HETATM   30  C   UNL     1       1.270   8.410 -28.550  1.00  0.00     0.009 A 
ENDBRANCH  23  24
ENDBRANCH  20  23
ENDBRANCH   2  19
TORSDOF 6
ENDMDL
MODEL 6
REMARK VINA RESULT:      -7.9      8.496     11.915
REMARK  6 active torsions:
REMARK  status: ('A' for Active; 'I' for Inactive)
REMARK    1  A    between atoms: O_2  and  C_3 
REMARK    2  A    between atoms: C_6  and  C_7 
REMARK    3  A    between atoms: C_11  and  C_12 
REMARK       I    between atoms: C_12  and  N_13 
REMARK    4  A    between atoms: N_13  and  N_14 
REMARK       I    between atoms: N_14  and  C_15 
REMARK    5  A    between atoms: C_15  and  C_16 
REMARK    6  A    between atoms: C_16  and  C_17 
ROOT
HETATM    1  C   UNL     1     -10.810   1.972 -33.231  1.00  0.00     0.288 C 
HETATM    2  N   UNL     1     -10.456   1.250 -34.354  1.00  0.00    -0.262 N 
HETATM    3  O   UNL     1      -9.968   2.434 -32.463  1.00  0.00    -0.264 OA
HETATM    4  H   UNL     1     -11.136   1.007 -35.071  1.00  0.00     0.190 HD
ENDROOT
BRANCH   1   5
HETATM    5  C   UNL     1     -12.222   2.157 -33.045  1.00  0.00     0.121 A 
HETATM    6  N   UNL     1     -13.133   1.189 -33.364  1.00  0.00    -0.272 N 
HETATM    7  N   UNL     1     -14.407   1.530 -33.118  1.00  0.00    -0.174 NA
HETATM    8  H   UNL     1     -12.938   0.273 -33.756  1.00  0.00     0.189 HD
HETATM    9  C   UNL     1     -14.334   2.760 -32.586  1.00  0.00     0.089 A 
HETATM   10  C   UNL     1     -12.980   3.196 -32.543  1.00  0.00     0.071 A 
BRANCH   9  11
HETATM   11  C   UNL     1     -15.525   3.486 -32.135  1.00  0.00    -0.005 A 
HETATM   12  C   UNL     1     -16.770   2.850 -32.056  1.00  0.00     0.016 A 
HETATM   13  C   UNL     1     -17.898   3.550 -31.616  1.00  0.00     0.037 A 
HETATM   14  C   UNL     1     -17.806   4.892 -31.243  1.00  0.00     0.068 A 
HETATM   15  C   UNL     1     -16.573   5.537 -31.328  1.00  0.00     0.037 A 
HETATM   16  C   UNL     1     -15.442   4.838 -31.773  1.00  0.00     0.016 A 
BRANCH  14  17
HETATM   17  O   UNL     1     -18.983   5.450 -30.827  1.00  0.00    -0.356 OA
HETATM   18  C   UNL     1     -19.490   6.528 -31.603  1.00  0.00     0.210 C 
ENDBRANCH  14  17
ENDBRANCH   9  11
ENDBRANCH   1   5
BRANCH   2  19
HETATM   19  N   UNL     1      -9.120   1.276 -34.781  1.00  0.00    -0.267 N 
HETATM   20  C   UNL     1      -8.308   0.249 -34.339  1.00  0.00     0.240 C 
HETATM   21  O   UNL     1      -8.671  -0.540 -33.464  1.00  0.00    -0.272 OA
HETATM   22  H   UNL     1      -8.921   1.813 -35.626  1.00  0.00     0.190 HD
BRANCH  20  23
HETATM   23  C   UNL     1      -6.947   0.181 -34.997  1.00  0.00     0.143 C 
BRANCH  23  24
HETATM   24  C   UNL     1      -6.091  -0.988 -34.566  1.00  0.00    -0.049 A 
HETATM   25  C   UNL     1      -6.289  -2.282 -35.072  1.00  0.00     0.009 A 
HETATM   26  C   UNL     1      -5.449  -3.332 -34.690  1.00  0.00     0.024 A 
HETATM   27  C   UNL     1      -4.393  -3.093 -33.816  1.00  0.00     0.034 A 
HETATM   28 CL   UNL     1      -3.354  -4.384 -33.355  1.00  0.00    -0.084 Cl
HETATM   29  C   UNL     1      -4.168  -1.812 -33.321  1.00  0.00     0.024 A 
HETATM   30  C   UNL     1      -5.011  -0.763 -33.698  1.00  0.00     0.009 A 
ENDBRANCH  23  24
ENDBRANCH  20  23
ENDBRANCH   2  19
TORSDOF 6
ENDMDL
MODEL 7
REMARK VINA RESULT:      -7.9      7.070     10.013
REMARK  6 active torsions:
REMARK  status: ('A' for Active; 'I' for Inactive)
REMARK    1  A    between atoms: O_2  and  C_3 
REMARK    2  A    between atoms: C_6  and  C_7 
REMARK    3  A    between atoms: C_11  and  C_12 
REMARK       I    between atoms: C_12  and  N_13 
REMARK    4  A    between atoms: N_13  and  N_14 
REMARK       I    between atoms: N_14  and  C_15 
REMARK    5  A    between atoms: C_15  and  C_16 
REMARK    6  A    between atoms: C_16  and  C_17 
ROOT
HETATM    1  C   UNL     1      -8.343   2.793 -33.693  1.00  0.00     0.288 C 
HETATM    2  N   UNL     1      -7.828   1.558 -33.353  1.00  0.00    -0.262 N 
HETATM    3  O   UNL     1      -7.621   3.773 -33.867  1.00  0.00    -0.264 OA
HETATM    4  H   UNL     1      -8.400   0.716 -33.366  1.00  0.00     0.190 HD
ENDROOT
BRANCH   1   5
HETATM    5  C   UNL     1      -9.771   2.838 -33.846  1.00  0.00     0.121 A 
HETATM    6  N   UNL     1     -10.369   3.034 -35.059  1.00  0.00    -0.272 N 
HETATM    7  N   UNL     1     -11.710   3.041 -35.017  1.00  0.00    -0.174 NA
HETATM    8  H   UNL     1      -9.906   3.171 -35.952  1.00  0.00     0.189 HD
HETATM    9  C   UNL     1     -12.011   2.809 -33.730  1.00  0.00     0.089 A 
HETATM   10  C   UNL     1     -10.820   2.696 -32.960  1.00  0.00     0.071 A 
BRANCH   9  11
HETATM   11  C   UNL     1     -13.396   2.698 -33.261  1.00  0.00    -0.005 A 
HETATM   12  C   UNL     1     -14.188   1.596 -33.606  1.00  0.00     0.016 A 
HETATM   13  C   UNL     1     -15.504   1.496 -33.146  1.00  0.00     0.037 A 
HETATM   14  C   UNL     1     -16.054   2.488 -32.332  1.00  0.00     0.068 A 
HETATM   15  C   UNL     1     -15.277   3.594 -31.991  1.00  0.00     0.037 A 
HETATM   16  C   UNL     1     -13.958   3.698 -32.455  1.00  0.00     0.016 A 
BRANCH  14  17
HETATM   17  O   UNL     1     -17.347   2.259 -31.950  1.00  0.00    -0.356 OA
HETATM   18  C   UNL     1     -18.262   3.334 -32.113  1.00  0.00     0.210 C 
ENDBRANCH  14  17
ENDBRANCH   9  11
ENDBRANCH   1   5
BRANCH   2  19
HETATM   19  N   UNL     1      -6.447   1.343 -33.478  1.00  0.00    -0.267 N 
HETATM   20  C   UNL     1      -5.742   1.153 -32.305  1.00  0.00     0.240 C 
HETATM   21  O   UNL     1      -6.247   1.351 -31.199  1.00  0.00    -0.272 OA
HETATM   22  H   UNL     1      -6.118   1.004 -34.382  1.00  0.00     0.190 HD
BRANCH  20  23
HETATM   23  C   UNL     1      -4.309   0.700 -32.486  1.00  0.00     0.143 C 
BRANCH  23  24
HETATM   24  C   UNL     1      -4.138  -0.780 -32.740  1.00  0.00    -0.049 A 
HETATM   25  C   UNL     1      -4.658  -1.403 -33.886  1.00  0.00     0.009 A 
HETATM   26  C   UNL     1      -4.440  -2.764 -34.116  1.00  0.00     0.024 A 
HETATM   27  C   UNL     1      -3.684  -3.509 -33.215  1.00  0.00     0.034 A 
HETATM   28 CL   UNL     1      -3.409  -5.182 -33.505  1.00  0.00    -0.084 Cl
HETATM   29  C   UNL     1      -3.143  -2.903 -32.086  1.00  0.00     0.024 A 
HETATM   30  C   UNL     1      -3.365  -1.544 -31.852  1.00  0.00     0.009 A 
ENDBRANCH  23  24
ENDBRANCH  20  23
ENDBRANCH   2  19
TORSDOF 6
ENDMDL
MODEL 8
REMARK VINA RESULT:      -7.8      2.495      3.271
REMARK  6 active torsions:
REMARK  status: ('A' for Active; 'I' for Inactive)
REMARK    1  A    between atoms: O_2  and  C_3 
REMARK    2  A    between atoms: C_6  and  C_7 
REMARK    3  A    between atoms: C_11  and  C_12 
REMARK       I    between atoms: C_12  and  N_13 
REMARK    4  A    between atoms: N_13  and  N_14 
REMARK       I    between atoms: N_14  and  C_15 
REMARK    5  A    between atoms: C_15  and  C_16 
REMARK    6  A    between atoms: C_16  and  C_17 
ROOT
HETATM    1  C   UNL     1      -5.717   4.262 -30.381  1.00  0.00     0.288 C 
HETATM    2  N   UNL     1      -5.465   4.271 -29.024  1.00  0.00    -0.262 N 
HETATM    3  O   UNL     1      -5.624   5.278 -31.067  1.00  0.00    -0.264 OA
HETATM    4  H   UNL     1      -5.384   3.409 -28.487  1.00  0.00     0.190 HD
ENDROOT
BRANCH   1   5
HETATM    5  C   UNL     1      -6.072   2.981 -30.927  1.00  0.00     0.121 A 
HETATM    6  N   UNL     1      -7.256   2.366 -30.634  1.00  0.00    -0.272 N 
HETATM    7  N   UNL     1      -7.424   1.179 -31.237  1.00  0.00    -0.174 NA
HETATM    8  H   UNL     1      -7.990   2.713 -30.024  1.00  0.00     0.189 HD
HETATM    9  C   UNL     1      -6.320   1.017 -31.983  1.00  0.00     0.089 A 
HETATM   10  C   UNL     1      -5.438   2.119 -31.799  1.00  0.00     0.071 A 
BRANCH   9  11
HETATM   11  C   UNL     1      -6.125  -0.154 -32.842  1.00  0.00    -0.005 A 
HETATM   12  C   UNL     1      -4.852  -0.710 -33.023  1.00  0.00     0.016 A 
HETATM   13  C   UNL     1      -4.677  -1.834 -33.838  1.00  0.00     0.037 A 
HETATM   14  C   UNL     1      -5.765  -2.426 -34.481  1.00  0.00     0.068 A 
HETATM   15  C   UNL     1      -7.034  -1.874 -34.315  1.00  0.00     0.037 A 
HETATM   16  C   UNL     1      -7.211  -0.745 -33.503  1.00  0.00     0.016 A 
BRANCH  14  17
HETATM   17  O   UNL     1      -5.452  -3.520 -35.240  1.00  0.00    -0.356 OA
HETATM   18  C   UNL     1      -6.447  -4.528 -35.350  1.00  0.00     0.210 C 
ENDBRANCH  14  17
ENDBRANCH   9  11
ENDBRANCH   1   5
BRANCH   2  19
HETATM   19  N   UNL     1      -4.826   5.386 -28.461  1.00  0.00    -0.267 N 
HETATM   20  C   UNL     1      -5.606   6.219 -27.682  1.00  0.00     0.240 C 
HETATM   21  O   UNL     1      -6.833   6.109 -27.634  1.00  0.00    -0.272 OA
HETATM   22  H   UNL     1      -3.812   5.333 -28.369  1.00  0.00     0.190 HD
BRANCH  20  23
HETATM   23  C   UNL     1      -4.843   7.275 -26.911  1.00  0.00     0.143 C 
BRANCH  23  24
HETATM   24  C   UNL     1      -3.398   7.440 -27.321  1.00  0.00    -0.049 A 
HETATM   25  C   UNL     1      -3.026   8.180 -28.454  1.00  0.00     0.009 A 
HETATM   26  C   UNL     1      -1.677   8.354 -28.778  1.00  0.00     0.024 A 
HETATM   27  C   UNL     1      -0.691   7.809 -27.962  1.00  0.00     0.034 A 
HETATM   28 CL   UNL     1       0.968   8.034 -28.357  1.00  0.00    -0.084 Cl
HETATM   29  C   UNL     1      -1.041   7.091 -26.822  1.00  0.00     0.024 A 
HETATM   30  C   UNL     1      -2.388   6.911 -26.501  1.00  0.00     0.009 A 
ENDBRANCH  23  24
ENDBRANCH  20  23
ENDBRANCH   2  19
TORSDOF 6
ENDMDL
MODEL 9
REMARK VINA RESULT:      -7.8      4.559     11.069
REMARK  6 active torsions:
REMARK  status: ('A' for Active; 'I' for Inactive)
REMARK    1  A    between atoms: O_2  and  C_3 
REMARK    2  A    between atoms: C_6  and  C_7 
REMARK    3  A    between atoms: C_11  and  C_12 
REMARK       I    between atoms: C_12  and  N_13 
REMARK    4  A    between atoms: N_13  and  N_14 
REMARK       I    between atoms: N_14  and  C_15 
REMARK    5  A    between atoms: C_15  and  C_16 
REMARK    6  A    between atoms: C_16  and  C_17 
ROOT
HETATM    1  C   UNL     1      -3.736   5.398 -34.034  1.00  0.00     0.288 C 
HETATM    2  N   UNL     1      -4.241   4.363 -33.272  1.00  0.00    -0.262 N 
HETATM    3  O   UNL     1      -3.842   5.417 -35.259  1.00  0.00    -0.264 OA
HETATM    4  H   UNL     1      -4.298   4.422 -32.257  1.00  0.00     0.190 HD
ENDROOT
BRANCH   1   5
HETATM    5  C   UNL     1      -3.101   6.450 -33.289  1.00  0.00     0.121 A 
HETATM    6  N   UNL     1      -2.181   7.290 -33.851  1.00  0.00    -0.272 N 
HETATM    7  N   UNL     1      -1.696   8.217 -33.012  1.00  0.00    -0.174 NA
HETATM    8  H   UNL     1      -1.845   7.272 -34.809  1.00  0.00     0.189 HD
HETATM    9  C   UNL     1      -2.344   8.002 -31.856  1.00  0.00     0.089 A 
HETATM   10  C   UNL     1      -3.220   6.888 -31.985  1.00  0.00     0.071 A 
BRANCH   9  11
HETATM   11  C   UNL     1      -2.128   8.841 -30.674  1.00  0.00    -0.005 A 
HETATM   12  C   UNL     1      -1.465   8.339 -29.546  1.00  0.00     0.016 A 
HETATM   13  C   UNL     1      -1.256   9.151 -28.427  1.00  0.00     0.037 A 
HETATM   14  C   UNL     1      -1.698  10.474 -28.411  1.00  0.00     0.068 A 
HETATM   15  C   UNL     1      -2.368  10.979 -29.524  1.00  0.00     0.037 A 
HETATM   16  C   UNL     1      -2.583  10.167 -30.645  1.00  0.00     0.016 A 
BRANCH  14  17
HETATM   17  O   UNL     1      -1.421  11.153 -27.256  1.00  0.00    -0.356 OA
HETATM   18  C   UNL     1      -1.977  10.631 -26.057  1.00  0.00     0.210 C 
ENDBRANCH  14  17
ENDBRANCH   9  11
ENDBRANCH   1   5
BRANCH   2  19
HETATM   19  N   UNL     1      -5.131   3.456 -33.868  1.00  0.00    -0.267 N 
HETATM   20  C   UNL     1      -5.651   2.472 -33.051  1.00  0.00     0.240 C 
HETATM   21  O   UNL     1      -5.219   2.270 -31.914  1.00  0.00    -0.272 OA
HETATM   22  H   UNL     1      -5.592   3.766 -34.724  1.00  0.00     0.190 HD
BRANCH  20  23
HETATM   23  C   UNL     1      -6.772   1.658 -33.662  1.00  0.00     0.143 C 
BRANCH  23  24
HETATM   24  C   UNL     1      -6.451   0.198 -33.880  1.00  0.00    -0.049 A 
HETATM   25  C   UNL     1      -7.382  -0.692 -34.438  1.00  0.00     0.009 A 
HETATM   26  C   UNL     1      -7.037  -2.027 -34.673  1.00  0.00     0.024 A 
HETATM   27  C   UNL     1      -5.755  -2.476 -34.370  1.00  0.00     0.034 A 
HETATM   28 CL   UNL     1      -5.330  -4.116 -34.669  1.00  0.00    -0.084 Cl
HETATM   29  C   UNL     1      -4.813  -1.602 -33.837  1.00  0.00     0.024 A 
HETATM   30  C   UNL     1      -5.158  -0.270 -33.597  1.00  0.00     0.009 A 
ENDBRANCH  23  24
ENDBRANCH  20  23
ENDBRANCH   2  19
TORSDOF 6
ENDMDL
MODEL 10
REMARK VINA RESULT:      -7.6      2.097      2.710
REMARK  6 active torsions:
REMARK  status: ('A' for Active; 'I' for Inactive)
REMARK    1  A    between atoms: O_2  and  C_3 
REMARK    2  A    between atoms: C_6  and  C_7 
REMARK    3  A    between atoms: C_11  and  C_12 
REMARK       I    between atoms: C_12  and  N_13 
REMARK    4  A    between atoms: N_13  and  N_14 
REMARK       I    between atoms: N_14  and  C_15 
REMARK    5  A    between atoms: C_15  and  C_16 
REMARK    6  A    between atoms: C_16  and  C_17 
ROOT
HETATM    1  C   UNL     1      -3.749   4.633 -31.274  1.00  0.00     0.288 C 
HETATM    2  N   UNL     1      -4.513   5.024 -30.194  1.00  0.00    -0.262 N 
HETATM    3  O   UNL     1      -3.011   5.418 -31.868  1.00  0.00    -0.264 OA
HETATM    4  H   UNL     1      -4.997   4.349 -29.605  1.00  0.00     0.190 HD
ENDROOT
BRANCH   1   5
HETATM    5  C   UNL     1      -3.865   3.247 -31.634  1.00  0.00     0.121 A 
HETATM    6  N   UNL     1      -3.045   2.286 -31.111  1.00  0.00    -0.272 N 
HETATM    7  N   UNL     1      -3.299   1.046 -31.554  1.00  0.00    -0.174 NA
HETATM    8  H   UNL     1      -2.290   2.424 -30.446  1.00  0.00     0.189 HD
HETATM    9  C   UNL     1      -4.349   1.186 -32.378  1.00  0.00     0.089 A 
HETATM   10  C   UNL     1      -4.719   2.557 -32.470  1.00  0.00     0.071 A 
BRANCH   9  11
HETATM   11  C   UNL     1      -4.972   0.042 -33.050  1.00  0.00    -0.005 A 
HETATM   12  C   UNL     1      -4.260  -1.146 -33.259  1.00  0.00     0.016 A 
HETATM   13  C   UNL     1      -4.866  -2.235 -33.893  1.00  0.00     0.037 A 
HETATM   14  C   UNL     1      -6.191  -2.163 -34.326  1.00  0.00     0.068 A 
HETATM   15  C   UNL     1      -6.905  -0.981 -34.132  1.00  0.00     0.037 A 
HETATM   16  C   UNL     1      -6.298   0.113 -33.500  1.00  0.00     0.016 A 
BRANCH  14  17
HETATM   17  O   UNL     1      -6.658  -3.301 -34.923  1.00  0.00    -0.356 OA
HETATM   18  C   UNL     1      -5.762  -4.402 -34.991  1.00  0.00     0.210 C 
ENDBRANCH  14  17
ENDBRANCH   9  11
ENDBRANCH   1   5
BRANCH   2  19
HETATM   19  N   UNL     1      -4.243   6.260 -29.585  1.00  0.00    -0.267 N 
HETATM   20  C   UNL     1      -4.709   6.430 -28.296  1.00  0.00     0.240 C 
HETATM   21  O   UNL     1      -5.484   5.629 -27.770  1.00  0.00    -0.272 OA
HETATM   22  H   UNL     1      -3.463   6.795 -29.967  1.00  0.00     0.190 HD
BRANCH  20  23
HETATM   23  C   UNL     1      -4.207   7.673 -27.593  1.00  0.00     0.143 C 
BRANCH  23  24
HETATM   24  C   UNL     1      -2.724   7.685 -27.305  1.00  0.00    -0.049 A 
HETATM   25  C   UNL     1      -2.120   6.731 -26.471  1.00  0.00     0.009 A 
HETATM   26  C   UNL     1      -0.738   6.740 -26.264  1.00  0.00     0.024 A 
HETATM   27  C   UNL     1       0.054   7.690 -26.904  1.00  0.00     0.034 A 
HETATM   28 CL   UNL     1       1.756   7.693 -26.656  1.00  0.00    -0.084 Cl
HETATM   29  C   UNL     1      -0.525   8.630 -27.751  1.00  0.00     0.024 A 
HETATM   30  C   UNL     1      -1.907   8.625 -27.954  1.00  0.00     0.009 A 
ENDBRANCH  23  24
ENDBRANCH  20  23
ENDBRANCH   2  19
TORSDOF 6
ENDMDL
