MODEL 1
REMARK VINA RESULT:      -8.9      0.000      0.000
REMARK  5 active torsions:
REMARK  status: ('A' for Active; 'I' for Inactive)
REMARK    1  A    between atoms: O_2  and  C_3 
REMARK    2  A    between atoms: C_4  and  N_5 
REMARK       I    between atoms: N_5  and  C_6 
REMARK    3  A    between atoms: C_6  and  C_7 
REMARK    4  A    between atoms: C_7  and  N_8 
REMARK    5  A    between atoms: N_8  and  C_9 
ROOT
HETATM    1  C   UNL     1      -3.971   1.640 -31.468  1.00  0.00     0.195 C 
ENDROOT
BRANCH   1   2
HETATM    2  C   UNL     1      -3.836   3.136 -31.786  1.00  0.00     0.235 C 
HETATM    3  N   UNL     1      -2.651   3.443 -32.423  1.00  0.00    -0.324 N 
HETATM    4  H   UNL     1      -2.033   2.654 -32.612  1.00  0.00     0.169 HD
HETATM    5  O   UNL     1      -4.745   3.919 -31.523  1.00  0.00    -0.272 OA
BRANCH   3   6
HETATM    6  C   UNL     1      -2.136   4.710 -32.757  1.00  0.00     0.068 A 
HETATM    7  C   UNL     1      -1.160   5.261 -31.906  1.00  0.00     0.095 A 
HETATM    8  C   UNL     1      -0.668   6.549 -32.140  1.00  0.00     0.039 A 
HETATM    9  C   UNL     1      -1.121   7.279 -33.239  1.00  0.00     0.003 A 
HETATM   10  C   UNL     1      -2.063   6.725 -34.102  1.00  0.00     0.002 A 
HETATM   11  C   UNL     1      -2.569   5.444 -33.864  1.00  0.00     0.032 A 
BRANCH   7  12
HETATM   12  O   UNL     1      -0.751   4.487 -30.844  1.00  0.00    -0.354 OA
HETATM   13  C   UNL     1       0.327   5.056 -30.103  1.00  0.00     0.210 C 
ENDBRANCH   7  12
ENDBRANCH   3   6
ENDBRANCH   1   2
BRANCH   1  14
HETATM   14  N   UNL     1      -3.461   0.770 -32.546  1.00  0.00    -0.284 NA
HETATM   15  H   UNL     1      -3.098   1.321 -33.323  1.00  0.00     0.128 HD
BRANCH  14  16
HETATM   16  C   UNL     1      -4.297  -0.253 -33.035  1.00  0.00     0.009 A 
HETATM   17  C   UNL     1      -3.863  -1.561 -33.292  1.00  0.00     0.035 A 
HETATM   18  C   UNL     1      -4.712  -2.534 -33.855  1.00  0.00    -0.024 A 
HETATM   19  C   UNL     1      -6.035  -2.185 -34.194  1.00  0.00    -0.026 A 
HETATM   20  C   UNL     1      -4.266  -3.845 -34.090  1.00  0.00     0.012 A 
HETATM   21  C   UNL     1      -6.464  -0.869 -33.979  1.00  0.00     0.014 A 
HETATM   22  C   UNL     1      -6.882  -3.158 -34.752  1.00  0.00     0.012 A 
HETATM   23  C   UNL     1      -5.599   0.083 -33.425  1.00  0.00     0.024 A 
HETATM   24  C   UNL     1      -6.426  -4.458 -34.975  1.00  0.00     0.001 A 
HETATM   25  C   UNL     1      -5.117  -4.800 -34.646  1.00  0.00     0.001 A 
ENDBRANCH  14  16
ENDBRANCH   1  14
TORSDOF 5
ENDMDL
MODEL 2
REMARK VINA RESULT:      -8.7      5.499      8.342
REMARK  5 active torsions:
REMARK  status: ('A' for Active; 'I' for Inactive)
REMARK    1  A    between atoms: O_2  and  C_3 
REMARK    2  A    between atoms: C_4  and  N_5 
REMARK       I    between atoms: N_5  and  C_6 
REMARK    3  A    between atoms: C_6  and  C_7 
REMARK    4  A    between atoms: C_7  and  N_8 
REMARK    5  A    between atoms: N_8  and  C_9 
ROOT
HETATM    1  C   UNL     1      -8.618   1.249 -34.096  1.00  0.00     0.195 C 
ENDROOT
BRANCH   1   2
HETATM    2  C   UNL     1     -10.007   0.845 -33.584  1.00  0.00     0.235 C 
HETATM    3  N   UNL     1     -11.027   1.559 -34.180  1.00  0.00    -0.324 N 
HETATM    4  H   UNL     1     -10.738   2.240 -34.882  1.00  0.00     0.169 HD
HETATM    5  O   UNL     1     -10.136  -0.062 -32.766  1.00  0.00    -0.272 OA
BRANCH   3   6
HETATM    6  C   UNL     1     -12.403   1.543 -33.880  1.00  0.00     0.068 A 
HETATM    7  C   UNL     1     -12.911   2.602 -33.104  1.00  0.00     0.095 A 
HETATM    8  C   UNL     1     -14.251   2.602 -32.705  1.00  0.00     0.039 A 
HETATM    9  C   UNL     1     -15.097   1.568 -33.105  1.00  0.00     0.003 A 
HETATM   10  C   UNL     1     -14.606   0.534 -33.899  1.00  0.00     0.002 A 
HETATM   11  C   UNL     1     -13.263   0.522 -34.287  1.00  0.00     0.032 A 
BRANCH   7  12
HETATM   12  O   UNL     1     -12.027   3.595 -32.748  1.00  0.00    -0.354 OA
HETATM   13  C   UNL     1     -12.321   4.199 -31.491  1.00  0.00     0.210 C 
ENDBRANCH   7  12
ENDBRANCH   3   6
ENDBRANCH   1   2
BRANCH   1  14
HETATM   14  N   UNL     1      -8.100   0.345 -35.143  1.00  0.00    -0.284 NA
HETATM   15  H   UNL     1      -8.856  -0.175 -35.586  1.00  0.00     0.128 HD
BRANCH  14  16
HETATM   16  C   UNL     1      -7.047  -0.528 -34.812  1.00  0.00     0.009 A 
HETATM   17  C   UNL     1      -7.075  -1.910 -35.047  1.00  0.00     0.035 A 
HETATM   18  C   UNL     1      -6.034  -2.762 -34.629  1.00  0.00    -0.024 A 
HETATM   19  C   UNL     1      -4.933  -2.220 -33.933  1.00  0.00    -0.026 A 
HETATM   20  C   UNL     1      -6.070  -4.142 -34.887  1.00  0.00     0.012 A 
HETATM   21  C   UNL     1      -4.917  -0.847 -33.659  1.00  0.00     0.014 A 
HETATM   22  C   UNL     1      -3.894  -3.070 -33.521  1.00  0.00     0.012 A 
HETATM   23  C   UNL     1      -5.968  -0.022 -34.078  1.00  0.00     0.024 A 
HETATM   24  C   UNL     1      -3.941  -4.439 -33.790  1.00  0.00     0.001 A 
HETATM   25  C   UNL     1      -5.031  -4.975 -34.470  1.00  0.00     0.001 A 
ENDBRANCH  14  16
ENDBRANCH   1  14
TORSDOF 5
ENDMDL
MODEL 3
REMARK VINA RESULT:      -8.5      1.172      2.107
REMARK  5 active torsions:
REMARK  status: ('A' for Active; 'I' for Inactive)
REMARK    1  A    between atoms: O_2  and  C_3 
REMARK    2  A    between atoms: C_4  and  N_5 
REMARK       I    between atoms: N_5  and  C_6 
REMARK    3  A    between atoms: C_6  and  C_7 
REMARK    4  A    between atoms: C_7  and  N_8 
REMARK    5  A    between atoms: N_8  and  C_9 
ROOT
HETATM    1  C   UNL     1      -4.303   1.682 -31.883  1.00  0.00     0.195 C 
ENDROOT
BRANCH   1   2
HETATM    2  C   UNL     1      -3.924   3.148 -31.626  1.00  0.00     0.235 C 
HETATM    3  N   UNL     1      -2.923   3.596 -32.462  1.00  0.00    -0.324 N 
HETATM    4  H   UNL     1      -2.577   2.919 -33.142  1.00  0.00     0.169 HD
HETATM    5  O   UNL     1      -4.523   3.813 -30.785  1.00  0.00    -0.272 OA
BRANCH   3   6
HETATM    6  C   UNL     1      -2.246   4.831 -32.438  1.00  0.00     0.068 A 
HETATM    7  C   UNL     1      -2.774   5.877 -33.219  1.00  0.00     0.095 A 
HETATM    8  C   UNL     1      -2.104   7.102 -33.301  1.00  0.00     0.039 A 
HETATM    9  C   UNL     1      -0.927   7.301 -32.579  1.00  0.00     0.003 A 
HETATM   10  C   UNL     1      -0.419   6.279 -31.780  1.00  0.00     0.002 A 
HETATM   11  C   UNL     1      -1.076   5.049 -31.708  1.00  0.00     0.032 A 
BRANCH   7  12
HETATM   12  O   UNL     1      -3.941   5.619 -33.901  1.00  0.00    -0.354 OA
HETATM   13  C   UNL     1      -3.739   5.269 -35.269  1.00  0.00     0.210 C 
ENDBRANCH   7  12
ENDBRANCH   3   6
ENDBRANCH   1   2
BRANCH   1  14
HETATM   14  N   UNL     1      -5.267   1.518 -32.990  1.00  0.00    -0.284 NA
HETATM   15  H   UNL     1      -6.125   2.037 -32.810  1.00  0.00     0.128 HD
BRANCH  14  16
HETATM   16  C   UNL     1      -5.576   0.214 -33.421  1.00  0.00     0.009 A 
HETATM   17  C   UNL     1      -4.695  -0.871 -33.322  1.00  0.00     0.035 A 
HETATM   18  C   UNL     1      -5.012  -2.143 -33.837  1.00  0.00    -0.024 A 
HETATM   19  C   UNL     1      -6.245  -2.336 -34.494  1.00  0.00    -0.026 A 
HETATM   20  C   UNL     1      -4.124  -3.225 -33.715  1.00  0.00     0.012 A 
HETATM   21  C   UNL     1      -7.115  -1.246 -34.634  1.00  0.00     0.014 A 
HETATM   22  C   UNL     1      -6.562  -3.606 -35.003  1.00  0.00     0.012 A 
HETATM   23  C   UNL     1      -6.772   0.011 -34.120  1.00  0.00     0.024 A 
HETATM   24  C   UNL     1      -5.672  -4.672 -34.869  1.00  0.00     0.001 A 
HETATM   25  C   UNL     1      -4.452  -4.480 -34.227  1.00  0.00     0.001 A 
ENDBRANCH  14  16
ENDBRANCH   1  14
TORSDOF 5
ENDMDL
MODEL 4
REMARK VINA RESULT:      -8.4      1.573      2.140
REMARK  5 active torsions:
REMARK  status: ('A' for Active; 'I' for Inactive)
REMARK    1  A    between atoms: O_2  and  C_3 
REMARK    2  A    between atoms: C_4  and  N_5 
REMARK       I    between atoms: N_5  and  C_6 
REMARK    3  A    between atoms: C_6  and  C_7 
REMARK    4  A    between atoms: C_7  and  N_8 
REMARK    5  A    between atoms: N_8  and  C_9 
ROOT
HETATM    1  C   UNL     1      -5.762   2.338 -32.528  1.00  0.00     0.195 C 
ENDROOT
BRANCH   1   2
HETATM    2  C   UNL     1      -5.048   3.507 -33.222  1.00  0.00     0.235 C 
HETATM    3  N   UNL     1      -3.786   3.740 -32.714  1.00  0.00    -0.324 N 
HETATM    4  H   UNL     1      -3.486   3.112 -31.969  1.00  0.00     0.169 HD
HETATM    5  O   UNL     1      -5.576   4.099 -34.159  1.00  0.00    -0.272 OA
BRANCH   3   6
HETATM    6  C   UNL     1      -2.897   4.789 -33.019  1.00  0.00     0.068 A 
HETATM    7  C   UNL     1      -2.835   5.870 -32.120  1.00  0.00     0.095 A 
HETATM    8  C   UNL     1      -2.032   6.978 -32.406  1.00  0.00     0.039 A 
HETATM    9  C   UNL     1      -1.262   6.999 -33.569  1.00  0.00     0.003 A 
HETATM   10  C   UNL     1      -1.295   5.916 -34.445  1.00  0.00     0.002 A 
HETATM   11  C   UNL     1      -2.109   4.813 -34.171  1.00  0.00     0.032 A 
BRANCH   7  12
HETATM   12  O   UNL     1      -3.614   5.786 -30.988  1.00  0.00    -0.354 OA
HETATM   13  C   UNL     1      -3.312   6.779 -30.010  1.00  0.00     0.210 C 
ENDBRANCH   7  12
ENDBRANCH   3   6
ENDBRANCH   1   2
BRANCH   1  14
HETATM   14  N   UNL     1      -6.448   1.434 -33.474  1.00  0.00    -0.284 NA
HETATM   15  H   UNL     1      -7.442   1.364 -33.259  1.00  0.00     0.128 HD
BRANCH  14  16
HETATM   16  C   UNL     1      -5.911   0.149 -33.682  1.00  0.00     0.009 A 
HETATM   17  C   UNL     1      -6.648  -0.934 -34.179  1.00  0.00     0.035 A 
HETATM   18  C   UNL     1      -6.095  -2.224 -34.298  1.00  0.00    -0.024 A 
HETATM   19  C   UNL     1      -4.765  -2.448 -33.887  1.00  0.00    -0.026 A 
HETATM   20  C   UNL     1      -6.843  -3.296 -34.814  1.00  0.00     0.012 A 
HETATM   21  C   UNL     1      -4.034  -1.379 -33.351  1.00  0.00     0.014 A 
HETATM   22  C   UNL     1      -4.214  -3.734 -34.011  1.00  0.00     0.012 A 
HETATM   23  C   UNL     1      -4.609  -0.108 -33.235  1.00  0.00     0.024 A 
HETATM   24  C   UNL     1      -4.968  -4.787 -34.531  1.00  0.00     0.001 A 
HETATM   25  C   UNL     1      -6.283  -4.568 -34.929  1.00  0.00     0.001 A 
ENDBRANCH  14  16
ENDBRANCH   1  14
TORSDOF 5
ENDMDL
MODEL 5
REMARK VINA RESULT:      -8.2      1.257      2.443
REMARK  5 active torsions:
REMARK  status: ('A' for Active; 'I' for Inactive)
REMARK    1  A    between atoms: O_2  and  C_3 
REMARK    2  A    between atoms: C_4  and  N_5 
REMARK       I    between atoms: N_5  and  C_6 
REMARK    3  A    between atoms: C_6  and  C_7 
REMARK    4  A    between atoms: C_7  and  N_8 
REMARK    5  A    between atoms: N_8  and  C_9 
ROOT
HETATM    1  C   UNL     1      -3.485   1.605 -31.927  1.00  0.00     0.195 C 
ENDROOT
BRANCH   1   2
HETATM    2  C   UNL     1      -3.595   3.136 -31.895  1.00  0.00     0.235 C 
HETATM    3  N   UNL     1      -2.457   3.764 -32.358  1.00  0.00    -0.324 N 
HETATM    4  H   UNL     1      -1.707   3.147 -32.670  1.00  0.00     0.169 HD
HETATM    5  O   UNL     1      -4.632   3.684 -31.533  1.00  0.00    -0.272 OA
BRANCH   3   6
HETATM    6  C   UNL     1      -2.153   5.139 -32.364  1.00  0.00     0.068 A 
HETATM    7  C   UNL     1      -2.119   5.792 -33.611  1.00  0.00     0.095 A 
HETATM    8  C   UNL     1      -1.745   7.137 -33.691  1.00  0.00     0.039 A 
HETATM    9  C   UNL     1      -1.439   7.846 -32.529  1.00  0.00     0.003 A 
HETATM   10  C   UNL     1      -1.504   7.212 -31.290  1.00  0.00     0.002 A 
HETATM   11  C   UNL     1      -1.861   5.864 -31.207  1.00  0.00     0.032 A 
BRANCH   7  12
HETATM   12  O   UNL     1      -2.437   5.039 -34.718  1.00  0.00    -0.354 OA
HETATM   13  C   UNL     1      -3.756   5.270 -35.207  1.00  0.00     0.210 C 
ENDBRANCH   7  12
ENDBRANCH   3   6
ENDBRANCH   1   2
BRANCH   1  14
HETATM   14  N   UNL     1      -4.617   0.957 -32.620  1.00  0.00    -0.284 NA
HETATM   15  H   UNL     1      -5.490   1.105 -32.116  1.00  0.00     0.128 HD
BRANCH  14  16
HETATM   16  C   UNL     1      -4.495  -0.399 -32.979  1.00  0.00     0.009 A 
HETATM   17  C   UNL     1      -5.393  -1.068 -33.823  1.00  0.00     0.035 A 
HETATM   18  C   UNL     1      -5.281  -2.445 -34.094  1.00  0.00    -0.024 A 
HETATM   19  C   UNL     1      -4.249  -3.189 -33.485  1.00  0.00    -0.026 A 
HETATM   20  C   UNL     1      -6.179  -3.096 -34.956  1.00  0.00     0.012 A 
HETATM   21  C   UNL     1      -3.373  -2.537 -32.608  1.00  0.00     0.014 A 
HETATM   22  C   UNL     1      -4.137  -4.562 -33.760  1.00  0.00     0.012 A 
HETATM   23  C   UNL     1      -3.509  -1.168 -32.348  1.00  0.00     0.024 A 
HETATM   24  C   UNL     1      -5.034  -5.194 -34.624  1.00  0.00     0.001 A 
HETATM   25  C   UNL     1      -6.056  -4.461 -35.219  1.00  0.00     0.001 A 
ENDBRANCH  14  16
ENDBRANCH   1  14
TORSDOF 5
ENDMDL
MODEL 6
REMARK VINA RESULT:      -8.1      4.695      7.116
REMARK  5 active torsions:
REMARK  status: ('A' for Active; 'I' for Inactive)
REMARK    1  A    between atoms: O_2  and  C_3 
REMARK    2  A    between atoms: C_4  and  N_5 
REMARK       I    between atoms: N_5  and  C_6 
REMARK    3  A    between atoms: C_6  and  C_7 
REMARK    4  A    between atoms: C_7  and  N_8 
REMARK    5  A    between atoms: N_8  and  C_9 
ROOT
HETATM    1  C   UNL     1      -7.153   1.752 -32.712  1.00  0.00     0.195 C 
ENDROOT
BRANCH   1   2
HETATM    2  C   UNL     1      -8.441   2.584 -32.783  1.00  0.00     0.235 C 
HETATM    3  N   UNL     1      -9.176   2.336 -33.924  1.00  0.00    -0.324 N 
HETATM    4  H   UNL     1      -8.789   1.636 -34.556  1.00  0.00     0.169 HD
HETATM    5  O   UNL     1      -8.755   3.336 -31.864  1.00  0.00    -0.272 OA
BRANCH   3   6
HETATM    6  C   UNL     1     -10.337   2.990 -34.380  1.00  0.00     0.068 A 
HETATM    7  C   UNL     1     -11.550   2.278 -34.320  1.00  0.00     0.095 A 
HETATM    8  C   UNL     1     -12.723   2.842 -34.832  1.00  0.00     0.039 A 
HETATM    9  C   UNL     1     -12.700   4.128 -35.372  1.00  0.00     0.003 A 
HETATM   10  C   UNL     1     -11.508   4.848 -35.403  1.00  0.00     0.002 A 
HETATM   11  C   UNL     1     -10.330   4.282 -34.907  1.00  0.00     0.032 A 
BRANCH   7  12
HETATM   12  O   UNL     1     -11.507   1.017 -33.770  1.00  0.00    -0.354 OA
HETATM   13  C   UNL     1     -12.780   0.376 -33.709  1.00  0.00     0.210 C 
ENDBRANCH   7  12
ENDBRANCH   3   6
ENDBRANCH   1   2
BRANCH   1  14
HETATM   14  N   UNL     1      -6.721   1.239 -34.028  1.00  0.00    -0.284 NA
HETATM   15  H   UNL     1      -7.481   1.278 -34.705  1.00  0.00     0.128 HD
BRANCH  14  16
HETATM   16  C   UNL     1      -6.094  -0.021 -34.083  1.00  0.00     0.009 A 
HETATM   17  C   UNL     1      -6.716  -1.183 -34.562  1.00  0.00     0.035 A 
HETATM   18  C   UNL     1      -6.082  -2.440 -34.527  1.00  0.00    -0.024 A 
HETATM   19  C   UNL     1      -4.790  -2.548 -33.974  1.00  0.00    -0.026 A 
HETATM   20  C   UNL     1      -6.713  -3.591 -35.027  1.00  0.00     0.012 A 
HETATM   21  C   UNL     1      -4.177  -1.400 -33.455  1.00  0.00     0.014 A 
HETATM   22  C   UNL     1      -4.157  -3.803 -33.944  1.00  0.00     0.012 A 
HETATM   23  C   UNL     1      -4.831  -0.163 -33.495  1.00  0.00     0.024 A 
HETATM   24  C   UNL     1      -4.795  -4.937 -34.450  1.00  0.00     0.001 A 
HETATM   25  C   UNL     1      -6.074  -4.830 -34.989  1.00  0.00     0.001 A 
ENDBRANCH  14  16
ENDBRANCH   1  14
TORSDOF 5
ENDMDL
MODEL 7
REMARK VINA RESULT:      -8.1      4.849      7.881
REMARK  5 active torsions:
REMARK  status: ('A' for Active; 'I' for Inactive)
REMARK    1  A    between atoms: O_2  and  C_3 
REMARK    2  A    between atoms: C_4  and  N_5 
REMARK       I    between atoms: N_5  and  C_6 
REMARK    3  A    between atoms: C_6  and  C_7 
REMARK    4  A    between atoms: C_7  and  N_8 
REMARK    5  A    between atoms: N_8  and  C_9 
ROOT
HETATM    1  C   UNL     1      -7.523   1.552 -32.298  1.00  0.00     0.195 C 
ENDROOT
BRANCH   1   2
HETATM    2  C   UNL     1      -6.914   0.143 -32.270  1.00  0.00     0.235 C 
HETATM    3  N   UNL     1      -6.660  -0.355 -33.532  1.00  0.00    -0.324 N 
HETATM    4  H   UNL     1      -6.890   0.266 -34.308  1.00  0.00     0.169 HD
HETATM    5  O   UNL     1      -6.655  -0.409 -31.205  1.00  0.00    -0.272 OA
BRANCH   3   6
HETATM    6  C   UNL     1      -6.220  -1.643 -33.896  1.00  0.00     0.068 A 
HETATM    7  C   UNL     1      -4.847  -1.923 -33.758  1.00  0.00     0.095 A 
HETATM    8  C   UNL     1      -4.336  -3.155 -34.177  1.00  0.00     0.039 A 
HETATM    9  C   UNL     1      -5.192  -4.124 -34.701  1.00  0.00     0.003 A 
HETATM   10  C   UNL     1      -6.556  -3.862 -34.809  1.00  0.00     0.002 A 
HETATM   11  C   UNL     1      -7.069  -2.626 -34.406  1.00  0.00     0.032 A 
BRANCH   7  12
HETATM   12  O   UNL     1      -4.057  -0.929 -33.229  1.00  0.00    -0.354 OA
HETATM   13  C   UNL     1      -3.199  -1.376 -32.181  1.00  0.00     0.210 C 
ENDBRANCH   7  12
ENDBRANCH   3   6
ENDBRANCH   1   2
BRANCH   1  14
HETATM   14  N   UNL     1      -8.066   1.923 -33.620  1.00  0.00    -0.284 NA
HETATM   15  H   UNL     1      -7.678   2.809 -33.941  1.00  0.00     0.128 HD
BRANCH  14  16
HETATM   16  C   UNL     1      -9.463   1.920 -33.796  1.00  0.00     0.009 A 
HETATM   17  C   UNL     1     -10.287   0.829 -33.488  1.00  0.00     0.035 A 
HETATM   18  C   UNL     1     -11.670   0.837 -33.752  1.00  0.00    -0.024 A 
HETATM   19  C   UNL     1     -12.251   1.966 -34.366  1.00  0.00    -0.026 A 
HETATM   20  C   UNL     1     -12.485  -0.259 -33.422  1.00  0.00     0.012 A 
HETATM   21  C   UNL     1     -11.428   3.045 -34.714  1.00  0.00     0.014 A 
HETATM   22  C   UNL     1     -13.632   1.975 -34.624  1.00  0.00     0.012 A 
HETATM   23  C   UNL     1     -10.054   3.009 -34.448  1.00  0.00     0.024 A 
HETATM   24  C   UNL     1     -14.429   0.880 -34.285  1.00  0.00     0.001 A 
HETATM   25  C   UNL     1     -13.854  -0.237 -33.687  1.00  0.00     0.001 A 
ENDBRANCH  14  16
ENDBRANCH   1  14
TORSDOF 5
ENDMDL
MODEL 8
REMARK VINA RESULT:      -8.1      2.172      8.293
REMARK  5 active torsions:
REMARK  status: ('A' for Active; 'I' for Inactive)
REMARK    1  A    between atoms: O_2  and  C_3 
REMARK    2  A    between atoms: C_4  and  N_5 
REMARK       I    between atoms: N_5  and  C_6 
REMARK    3  A    between atoms: C_6  and  C_7 
REMARK    4  A    between atoms: C_7  and  N_8 
REMARK    5  A    between atoms: N_8  and  C_9 
ROOT
HETATM    1  C   UNL     1      -6.424   2.071 -32.963  1.00  0.00     0.195 C 
ENDROOT
BRANCH   1   2
HETATM    2  C   UNL     1      -6.418   0.848 -33.893  1.00  0.00     0.235 C 
HETATM    3  N   UNL     1      -6.205  -0.336 -33.217  1.00  0.00    -0.324 N 
HETATM    4  H   UNL     1      -6.096  -0.256 -32.206  1.00  0.00     0.169 HD
HETATM    5  O   UNL     1      -6.637   0.971 -35.095  1.00  0.00    -0.272 OA
BRANCH   3   6
HETATM    6  C   UNL     1      -6.020  -1.628 -33.747  1.00  0.00     0.068 A 
HETATM    7  C   UNL     1      -4.710  -2.144 -33.758  1.00  0.00     0.095 A 
HETATM    8  C   UNL     1      -4.449  -3.387 -34.343  1.00  0.00     0.039 A 
HETATM    9  C   UNL     1      -5.493  -4.135 -34.887  1.00  0.00     0.003 A 
HETATM   10  C   UNL     1      -6.796  -3.641 -34.848  1.00  0.00     0.002 A 
HETATM   11  C   UNL     1      -7.059  -2.393 -34.279  1.00  0.00     0.032 A 
BRANCH   7  12
HETATM   12  O   UNL     1      -3.726  -1.361 -33.200  1.00  0.00    -0.354 OA
HETATM   13  C   UNL     1      -3.171  -1.904 -32.004  1.00  0.00     0.210 C 
ENDBRANCH   7  12
ENDBRANCH   3   6
ENDBRANCH   1   2
BRANCH   1  14
HETATM   14  N   UNL     1      -5.130   2.292 -32.287  1.00  0.00    -0.284 NA
HETATM   15  H   UNL     1      -5.245   2.320 -31.275  1.00  0.00     0.128 HD
BRANCH  14  16
HETATM   16  C   UNL     1      -4.330   3.372 -32.708  1.00  0.00     0.009 A 
HETATM   17  C   UNL     1      -3.126   3.739 -32.091  1.00  0.00     0.035 A 
HETATM   18  C   UNL     1      -2.395   4.873 -32.493  1.00  0.00    -0.024 A 
HETATM   19  C   UNL     1      -2.892   5.685 -33.533  1.00  0.00    -0.026 A 
HETATM   20  C   UNL     1      -1.181   5.218 -31.875  1.00  0.00     0.012 A 
HETATM   21  C   UNL     1      -4.115   5.349 -34.127  1.00  0.00     0.014 A 
HETATM   22  C   UNL     1      -2.159   6.814 -33.935  1.00  0.00     0.012 A 
HETATM   23  C   UNL     1      -4.828   4.219 -33.705  1.00  0.00     0.024 A 
HETATM   24  C   UNL     1      -0.952   7.140 -33.315  1.00  0.00     0.001 A 
HETATM   25  C   UNL     1      -0.465   6.343 -32.284  1.00  0.00     0.001 A 
ENDBRANCH  14  16
ENDBRANCH   1  14
TORSDOF 5
ENDMDL
MODEL 9
REMARK VINA RESULT:      -8.0      1.818      2.708
REMARK  5 active torsions:
REMARK  status: ('A' for Active; 'I' for Inactive)
REMARK    1  A    between atoms: O_2  and  C_3 
REMARK    2  A    between atoms: C_4  and  N_5 
REMARK       I    between atoms: N_5  and  C_6 
REMARK    3  A    between atoms: C_6  and  C_7 
REMARK    4  A    between atoms: C_7  and  N_8 
REMARK    5  A    between atoms: N_8  and  C_9 
ROOT
HETATM    1  C   UNL     1      -3.979   2.744 -32.298  1.00  0.00     0.195 C 
ENDROOT
BRANCH   1   2
HETATM    2  C   UNL     1      -2.854   3.782 -32.417  1.00  0.00     0.235 C 
HETATM    3  N   UNL     1      -2.373   4.192 -31.190  1.00  0.00    -0.324 N 
HETATM    4  H   UNL     1      -2.804   3.753 -30.376  1.00  0.00     0.169 HD
HETATM    5  O   UNL     1      -2.435   4.132 -33.517  1.00  0.00    -0.272 OA
BRANCH   3   6
HETATM    6  C   UNL     1      -1.436   5.205 -30.908  1.00  0.00     0.068 A 
HETATM    7  C   UNL     1      -1.922   6.403 -30.350  1.00  0.00     0.095 A 
HETATM    8  C   UNL     1      -1.054   7.476 -30.122  1.00  0.00     0.039 A 
HETATM    9  C   UNL     1       0.303   7.349 -30.415  1.00  0.00     0.003 A 
HETATM   10  C   UNL     1       0.794   6.154 -30.937  1.00  0.00     0.002 A 
HETATM   11  C   UNL     1      -0.072   5.084 -31.182  1.00  0.00     0.032 A 
BRANCH   7  12
HETATM   12  O   UNL     1      -3.269   6.462 -30.077  1.00  0.00    -0.354 OA
HETATM   13  C   UNL     1      -3.589   7.265 -28.943  1.00  0.00     0.210 C 
ENDBRANCH   7  12
ENDBRANCH   3   6
ENDBRANCH   1   2
BRANCH   1  14
HETATM   14  N   UNL     1      -3.602   1.571 -31.484  1.00  0.00    -0.284 NA
HETATM   15  H   UNL     1      -2.678   1.692 -31.071  1.00  0.00     0.128 HD
BRANCH  14  16
HETATM   16  C   UNL     1      -3.704   0.292 -32.065  1.00  0.00     0.009 A 
HETATM   17  C   UNL     1      -4.675  -0.061 -33.011  1.00  0.00     0.035 A 
HETATM   18  C   UNL     1      -4.793  -1.373 -33.510  1.00  0.00    -0.024 A 
HETATM   19  C   UNL     1      -3.924  -2.375 -33.031  1.00  0.00    -0.026 A 
HETATM   20  C   UNL     1      -5.761  -1.707 -34.471  1.00  0.00     0.012 A 
HETATM   21  C   UNL     1      -2.977  -2.040 -32.055  1.00  0.00     0.014 A 
HETATM   22  C   UNL     1      -4.040  -3.683 -33.532  1.00  0.00     0.012 A 
HETATM   23  C   UNL     1      -2.885  -0.730 -31.569  1.00  0.00     0.024 A 
HETATM   24  C   UNL     1      -5.004  -3.997 -34.492  1.00  0.00     0.001 A 
HETATM   25  C   UNL     1      -5.866  -3.009 -34.958  1.00  0.00     0.001 A 
ENDBRANCH  14  16
ENDBRANCH   1  14
TORSDOF 5
ENDMDL
MODEL 10
REMARK VINA RESULT:      -7.8      1.886      2.694
REMARK  5 active torsions:
REMARK  status: ('A' for Active; 'I' for Inactive)
REMARK    1  A    between atoms: O_2  and  C_3 
REMARK    2  A    between atoms: C_4  and  N_5 
REMARK       I    between atoms: N_5  and  C_6 
REMARK    3  A    between atoms: C_6  and  C_7 
REMARK    4  A    between atoms: C_7  and  N_8 
REMARK    5  A    between atoms: N_8  and  C_9 
ROOT
HETATM    1  C   UNL     1      -5.986   3.149 -30.105  1.00  0.00     0.195 C 
ENDROOT
BRANCH   1   2
HETATM    2  C   UNL     1      -5.137   3.822 -31.193  1.00  0.00     0.235 C 
HETATM    3  N   UNL     1      -3.889   4.198 -30.740  1.00  0.00    -0.324 N 
HETATM    4  H   UNL     1      -3.685   3.975 -29.766  1.00  0.00     0.169 HD
HETATM    5  O   UNL     1      -5.560   3.936 -32.340  1.00  0.00    -0.272 OA
BRANCH   3   6
HETATM    6  C   UNL     1      -2.896   4.937 -31.413  1.00  0.00     0.068 A 
HETATM    7  C   UNL     1      -2.699   6.273 -31.016  1.00  0.00     0.095 A 
HETATM    8  C   UNL     1      -1.786   7.083 -31.699  1.00  0.00     0.039 A 
HETATM    9  C   UNL     1      -1.041   6.557 -32.754  1.00  0.00     0.003 A 
HETATM   10  C   UNL     1      -1.210   5.225 -33.129  1.00  0.00     0.002 A 
HETATM   11  C   UNL     1      -2.133   4.417 -32.460  1.00  0.00     0.032 A 
BRANCH   7  12
HETATM   12  O   UNL     1      -3.460   6.730 -29.964  1.00  0.00    -0.354 OA
HETATM   13  C   UNL     1      -2.688   7.239 -28.878  1.00  0.00     0.210 C 
ENDBRANCH   7  12
ENDBRANCH   3   6
ENDBRANCH   1   2
BRANCH   1  14
HETATM   14  N   UNL     1      -5.523   1.788 -29.766  1.00  0.00    -0.284 NA
HETATM   15  H   UNL     1      -4.700   1.820 -29.166  1.00  0.00     0.128 HD
BRANCH  14  16
HETATM   16  C   UNL     1      -5.318   0.870 -30.814  1.00  0.00     0.009 A 
HETATM   17  C   UNL     1      -6.328   0.443 -31.687  1.00  0.00     0.035 A 
HETATM   18  C   UNL     1      -6.100  -0.537 -32.673  1.00  0.00    -0.024 A 
HETATM   19  C   UNL     1      -4.825  -1.129 -32.778  1.00  0.00    -0.026 A 
HETATM   20  C   UNL     1      -7.119  -0.941 -33.552  1.00  0.00     0.012 A 
HETATM   21  C   UNL     1      -3.821  -0.739 -31.882  1.00  0.00     0.014 A 
HETATM   22  C   UNL     1      -4.598  -2.104 -33.764  1.00  0.00     0.012 A 
HETATM   23  C   UNL     1      -4.075   0.233 -30.906  1.00  0.00     0.024 A 
HETATM   24  C   UNL     1      -5.619  -2.491 -34.634  1.00  0.00     0.001 A 
HETATM   25  C   UNL     1      -6.880  -1.911 -34.525  1.00  0.00     0.001 A 
ENDBRANCH  14  16
ENDBRANCH   1  14
TORSDOF 5
ENDMDL
