MODEL 1
REMARK VINA RESULT:      -8.3      0.000      0.000
REMARK  6 active torsions:
REMARK  status: ('A' for Active; 'I' for Inactive)
REMARK    1  A    between atoms: C_2  and  C_3 
REMARK    2  A    between atoms: C_3  and  N_4 
REMARK    3  A    between atoms: C_3  and  C_11 
REMARK    4  A    between atoms: N_4  and  C_5 
REMARK       I    between atoms: C_11  and  N_12 
REMARK    5  A    between atoms: N_12  and  N_13 
REMARK    6  A    between atoms: C_14  and  C_15 
ROOT
HETATM    1  C   UNL     1     -10.361   1.087 -33.788  1.00  0.00     0.260 C 
HETATM    2  N   UNL     1      -9.194   1.357 -34.511  1.00  0.00    -0.246 N 
HETATM    3  O   UNL     1     -10.446   0.268 -32.875  1.00  0.00    -0.269 OA
HETATM    4  H   UNL     1      -9.172   2.214 -35.060  1.00  0.00     0.192 HD
ENDROOT
BRANCH   2   5
HETATM    5  N   UNL     1      -7.957   0.840 -34.212  1.00  0.00    -0.184 NA
HETATM    6  C   UNL     1      -7.691  -0.348 -34.656  1.00  0.00     0.152 C 
BRANCH   6   7
HETATM    7  C   UNL     1      -6.424  -0.971 -34.334  1.00  0.00     0.011 A 
HETATM    8  C   UNL     1      -6.093  -2.359 -34.457  1.00  0.00     0.004 A 
HETATM    9  C   UNL     1      -4.774  -2.514 -34.028  1.00  0.00     0.043 A 
HETATM   10  C   UNL     1      -6.793  -3.502 -34.902  1.00  0.00     0.014 A 
HETATM   11  C   UNL     1      -4.121  -3.753 -34.017  1.00  0.00     0.030 A 
HETATM   12  N   UNL     1      -4.322  -1.271 -33.652  1.00  0.00    -0.364 N 
HETATM   13  C   UNL     1      -4.836  -4.868 -34.466  1.00  0.00     0.002 A 
HETATM   14  C   UNL     1      -6.152  -4.746 -34.903  1.00  0.00     0.001 A 
HETATM   15  H   UNL     1      -3.397  -1.083 -33.290  1.00  0.00     0.165 HD
HETATM   16  C   UNL     1      -5.301  -0.335 -33.838  1.00  0.00     0.102 A 
ENDBRANCH   6   7
ENDBRANCH   2   5
BRANCH   1  17
HETATM   17  C   UNL     1     -11.552   1.946 -34.288  1.00  0.00     0.175 C 
BRANCH  17  18
HETATM   18  C   UNL     1     -12.705   1.072 -34.804  1.00  0.00     0.030 C 
HETATM   19  C   UNL     1     -13.949   1.190 -33.931  1.00  0.00     0.007 C 
ENDBRANCH  17  18
BRANCH  17  20
HETATM   20  N   UNL     1     -11.066   2.825 -35.361  1.00  0.00    -0.377 N 
HETATM   21  H   UNL     1     -10.383   2.426 -35.998  1.00  0.00     0.160 HD
BRANCH  20  22
HETATM   22  C   UNL     1     -11.282   4.187 -35.442  1.00  0.00     0.028 A 
HETATM   23  C   UNL     1     -12.591   4.650 -35.642  1.00  0.00     0.029 A 
HETATM   24  C   UNL     1     -12.879   6.016 -35.717  1.00  0.00     0.002 A 
HETATM   25  C   UNL     1     -11.858   6.949 -35.582  1.00  0.00     0.000 A 
HETATM   26  C   UNL     1     -10.554   6.514 -35.369  1.00  0.00     0.002 A 
HETATM   27  C   UNL     1     -10.272   5.144 -35.299  1.00  0.00     0.029 A 
ENDBRANCH  20  22
ENDBRANCH  17  20
ENDBRANCH   1  17
TORSDOF 6
ENDMDL
MODEL 2
REMARK VINA RESULT:      -8.2      1.691      3.020
REMARK  6 active torsions:
REMARK  status: ('A' for Active; 'I' for Inactive)
REMARK    1  A    between atoms: C_2  and  C_3 
REMARK    2  A    between atoms: C_3  and  N_4 
REMARK    3  A    between atoms: C_3  and  C_11 
REMARK    4  A    between atoms: N_4  and  C_5 
REMARK       I    between atoms: C_11  and  N_12 
REMARK    5  A    between atoms: N_12  and  N_13 
REMARK    6  A    between atoms: C_14  and  C_15 
ROOT
HETATM    1  C   UNL     1     -10.516   0.940 -33.541  1.00  0.00     0.260 C 
HETATM    2  N   UNL     1      -9.331   1.367 -34.149  1.00  0.00    -0.246 N 
HETATM    3  O   UNL     1     -10.610  -0.030 -32.792  1.00  0.00    -0.269 OA
HETATM    4  H   UNL     1      -9.317   2.307 -34.538  1.00  0.00     0.192 HD
ENDROOT
BRANCH   2   5
HETATM    5  N   UNL     1      -8.090   0.841 -33.888  1.00  0.00    -0.184 NA
HETATM    6  C   UNL     1      -7.759  -0.237 -34.526  1.00  0.00     0.152 C 
BRANCH   6   7
HETATM    7  C   UNL     1      -6.484  -0.870 -34.258  1.00  0.00     0.011 A 
HETATM    8  C   UNL     1      -6.166  -2.259 -34.408  1.00  0.00     0.004 A 
HETATM    9  C   UNL     1      -4.833  -2.427 -34.031  1.00  0.00     0.043 A 
HETATM   10  C   UNL     1      -6.890  -3.394 -34.837  1.00  0.00     0.014 A 
HETATM   11  C   UNL     1      -4.188  -3.669 -34.057  1.00  0.00     0.030 A 
HETATM   12  N   UNL     1      -4.359  -1.190 -33.660  1.00  0.00    -0.364 N 
HETATM   13  C   UNL     1      -4.927  -4.775 -34.489  1.00  0.00     0.002 A 
HETATM   14  C   UNL     1      -6.258  -4.642 -34.874  1.00  0.00     0.001 A 
HETATM   15  H   UNL     1      -3.420  -1.011 -33.332  1.00  0.00     0.165 HD
HETATM   16  C   UNL     1      -5.338  -0.246 -33.800  1.00  0.00     0.102 A 
ENDBRANCH   6   7
ENDBRANCH   2   5
BRANCH   1  17
HETATM   17  C   UNL     1     -11.716   1.839 -33.939  1.00  0.00     0.175 C 
BRANCH  17  18
HETATM   18  C   UNL     1     -11.294   2.954 -34.908  1.00  0.00     0.030 C 
HETATM   19  C   UNL     1     -12.328   3.182 -36.004  1.00  0.00     0.007 C 
ENDBRANCH  17  18
BRANCH  17  20
HETATM   20  N   UNL     1     -12.280   2.422 -32.714  1.00  0.00    -0.377 N 
HETATM   21  H   UNL     1     -11.664   2.462 -31.907  1.00  0.00     0.160 HD
BRANCH  20  22
HETATM   22  C   UNL     1     -13.615   2.707 -32.501  1.00  0.00     0.028 A 
HETATM   23  C   UNL     1     -13.973   4.011 -32.127  1.00  0.00     0.029 A 
HETATM   24  C   UNL     1     -15.306   4.370 -31.913  1.00  0.00     0.002 A 
HETATM   25  C   UNL     1     -16.314   3.427 -32.080  1.00  0.00     0.000 A 
HETATM   26  C   UNL     1     -15.984   2.132 -32.464  1.00  0.00     0.002 A 
HETATM   27  C   UNL     1     -14.646   1.778 -32.673  1.00  0.00     0.029 A 
ENDBRANCH  20  22
ENDBRANCH  17  20
ENDBRANCH   1  17
TORSDOF 6
ENDMDL
MODEL 3
REMARK VINA RESULT:      -8.2      5.309      9.135
REMARK  6 active torsions:
REMARK  status: ('A' for Active; 'I' for Inactive)
REMARK    1  A    between atoms: C_2  and  C_3 
REMARK    2  A    between atoms: C_3  and  N_4 
REMARK    3  A    between atoms: C_3  and  C_11 
REMARK    4  A    between atoms: N_4  and  C_5 
REMARK       I    between atoms: C_11  and  N_12 
REMARK    5  A    between atoms: N_12  and  N_13 
REMARK    6  A    between atoms: C_14  and  C_15 
ROOT
HETATM    1  C   UNL     1      -5.974   1.641 -33.095  1.00  0.00     0.260 C 
HETATM    2  N   UNL     1      -4.729   1.999 -32.568  1.00  0.00    -0.246 N 
HETATM    3  O   UNL     1      -6.768   2.424 -33.612  1.00  0.00    -0.269 OA
HETATM    4  H   UNL     1      -4.060   1.250 -32.398  1.00  0.00     0.192 HD
ENDROOT
BRANCH   2   5
HETATM    5  N   UNL     1      -4.169   3.248 -32.676  1.00  0.00    -0.184 NA
HETATM    6  C   UNL     1      -2.909   3.307 -32.973  1.00  0.00     0.152 C 
BRANCH   6   7
HETATM    7  C   UNL     1      -2.246   4.592 -33.052  1.00  0.00     0.011 A 
HETATM    8  C   UNL     1      -1.372   5.169 -32.075  1.00  0.00     0.004 A 
HETATM    9  C   UNL     1      -0.971   6.416 -32.556  1.00  0.00     0.043 A 
HETATM   10  C   UNL     1      -0.877   4.743 -30.823  1.00  0.00     0.014 A 
HETATM   11  C   UNL     1      -0.105   7.260 -31.849  1.00  0.00     0.030 A 
HETATM   12  N   UNL     1      -1.582   6.594 -33.775  1.00  0.00    -0.364 N 
HETATM   13  C   UNL     1       0.373   6.811 -30.614  1.00  0.00     0.002 A 
HETATM   14  C   UNL     1      -0.006   5.571 -30.107  1.00  0.00     0.001 A 
HETATM   15  H   UNL     1      -1.478   7.417 -34.354  1.00  0.00     0.165 HD
HETATM   16  C   UNL     1      -2.344   5.503 -34.088  1.00  0.00     0.102 A 
ENDBRANCH   6   7
ENDBRANCH   2   5
BRANCH   1  17
HETATM   17  C   UNL     1      -6.244   0.122 -32.936  1.00  0.00     0.175 C 
BRANCH  17  18
HETATM   18  C   UNL     1      -5.715  -0.413 -31.597  1.00  0.00     0.030 C 
HETATM   19  C   UNL     1      -6.601  -0.002 -30.426  1.00  0.00     0.007 C 
ENDBRANCH  17  18
BRANCH  17  20
HETATM   20  N   UNL     1      -5.592  -0.580 -34.051  1.00  0.00    -0.377 N 
HETATM   21  H   UNL     1      -5.279  -0.003 -34.827  1.00  0.00     0.160 HD
BRANCH  20  22
HETATM   22  C   UNL     1      -5.569  -1.949 -34.236  1.00  0.00     0.028 A 
HETATM   23  C   UNL     1      -6.755  -2.597 -34.612  1.00  0.00     0.029 A 
HETATM   24  C   UNL     1      -6.797  -3.976 -34.831  1.00  0.00     0.002 A 
HETATM   25  C   UNL     1      -5.642  -4.736 -34.686  1.00  0.00     0.000 A 
HETATM   26  C   UNL     1      -4.452  -4.114 -34.327  1.00  0.00     0.002 A 
HETATM   27  C   UNL     1      -4.418  -2.732 -34.106  1.00  0.00     0.029 A 
ENDBRANCH  20  22
ENDBRANCH  17  20
ENDBRANCH   1  17
TORSDOF 6
ENDMDL
MODEL 4
REMARK VINA RESULT:      -8.1      1.981      8.577
REMARK  6 active torsions:
REMARK  status: ('A' for Active; 'I' for Inactive)
REMARK    1  A    between atoms: C_2  and  C_3 
REMARK    2  A    between atoms: C_3  and  N_4 
REMARK    3  A    between atoms: C_3  and  C_11 
REMARK    4  A    between atoms: N_4  and  C_5 
REMARK       I    between atoms: C_11  and  N_12 
REMARK    5  A    between atoms: N_12  and  N_13 
REMARK    6  A    between atoms: C_14  and  C_15 
ROOT
HETATM    1  C   UNL     1      -6.609   0.267 -31.998  1.00  0.00     0.260 C 
HETATM    2  N   UNL     1      -7.070   1.019 -33.084  1.00  0.00    -0.246 N 
HETATM    3  O   UNL     1      -7.203   0.140 -30.930  1.00  0.00    -0.269 OA
HETATM    4  H   UNL     1      -6.632   0.852 -33.987  1.00  0.00     0.192 HD
ENDROOT
BRANCH   2   5
HETATM    5  N   UNL     1      -8.309   1.607 -33.151  1.00  0.00    -0.184 NA
HETATM    6  C   UNL     1      -9.104   1.204 -34.093  1.00  0.00     0.152 C 
BRANCH   6   7
HETATM    7  C   UNL     1     -10.405   1.819 -34.250  1.00  0.00     0.011 A 
HETATM    8  C   UNL     1     -11.680   1.202 -34.033  1.00  0.00     0.004 A 
HETATM    9  C   UNL     1     -12.659   2.156 -34.310  1.00  0.00     0.043 A 
HETATM   10  C   UNL     1     -12.092  -0.083 -33.618  1.00  0.00     0.014 A 
HETATM   11  C   UNL     1     -14.030   1.890 -34.198  1.00  0.00     0.030 A 
HETATM   12  N   UNL     1     -12.008   3.307 -34.688  1.00  0.00    -0.364 N 
HETATM   13  C   UNL     1     -14.411   0.611 -33.783  1.00  0.00     0.002 A 
HETATM   14  C   UNL     1     -13.458  -0.363 -33.496  1.00  0.00     0.001 A 
HETATM   15  H   UNL     1     -12.470   4.165 -34.955  1.00  0.00     0.165 HD
HETATM   16  C   UNL     1     -10.654   3.120 -34.648  1.00  0.00     0.102 A 
ENDBRANCH   6   7
ENDBRANCH   2   5
BRANCH   1  17
HETATM   17  C   UNL     1      -5.235  -0.386 -32.301  1.00  0.00     0.175 C 
BRANCH  17  18
HETATM   18  C   UNL     1      -4.077   0.601 -32.085  1.00  0.00     0.030 C 
HETATM   19  C   UNL     1      -2.965   0.001 -31.233  1.00  0.00     0.007 C 
ENDBRANCH  17  18
BRANCH  17  20
HETATM   20  N   UNL     1      -5.245  -0.854 -33.694  1.00  0.00    -0.377 N 
HETATM   21  H   UNL     1      -5.295  -0.137 -34.412  1.00  0.00     0.160 HD
BRANCH  20  22
HETATM   22  C   UNL     1      -5.418  -2.163 -34.100  1.00  0.00     0.028 A 
HETATM   23  C   UNL     1      -4.349  -3.060 -33.953  1.00  0.00     0.029 A 
HETATM   24  C   UNL     1      -4.463  -4.401 -34.329  1.00  0.00     0.002 A 
HETATM   25  C   UNL     1      -5.661  -4.875 -34.851  1.00  0.00     0.000 A 
HETATM   26  C   UNL     1      -6.739  -4.009 -34.993  1.00  0.00     0.002 A 
HETATM   27  C   UNL     1      -6.616  -2.665 -34.618  1.00  0.00     0.029 A 
ENDBRANCH  20  22
ENDBRANCH  17  20
ENDBRANCH   1  17
TORSDOF 6
ENDMDL
MODEL 5
REMARK VINA RESULT:      -8.1      7.505      9.572
REMARK  6 active torsions:
REMARK  status: ('A' for Active; 'I' for Inactive)
REMARK    1  A    between atoms: C_2  and  C_3 
REMARK    2  A    between atoms: C_3  and  N_4 
REMARK    3  A    between atoms: C_3  and  C_11 
REMARK    4  A    between atoms: N_4  and  C_5 
REMARK       I    between atoms: C_11  and  N_12 
REMARK    5  A    between atoms: N_12  and  N_13 
REMARK    6  A    between atoms: C_14  and  C_15 
ROOT
HETATM    1  C   UNL     1      -1.786   4.910 -31.198  1.00  0.00     0.260 C 
HETATM    2  N   UNL     1      -2.889   4.050 -31.238  1.00  0.00    -0.246 N 
HETATM    3  O   UNL     1      -0.619   4.561 -31.364  1.00  0.00    -0.269 OA
HETATM    4  H   UNL     1      -3.808   4.473 -31.338  1.00  0.00     0.192 HD
ENDROOT
BRANCH   2   5
HETATM    5  N   UNL     1      -2.830   2.726 -31.598  1.00  0.00    -0.184 NA
HETATM    6  C   UNL     1      -3.951   2.139 -31.876  1.00  0.00     0.152 C 
BRANCH   6   7
HETATM    7  C   UNL     1      -3.964   0.731 -32.214  1.00  0.00     0.011 A 
HETATM    8  C   UNL     1      -4.869   0.069 -33.106  1.00  0.00     0.004 A 
HETATM    9  C   UNL     1      -4.523  -1.282 -33.127  1.00  0.00     0.043 A 
HETATM   10  C   UNL     1      -5.951   0.497 -33.906  1.00  0.00     0.014 A 
HETATM   11  C   UNL     1      -5.205  -2.228 -33.903  1.00  0.00     0.030 A 
HETATM   12  N   UNL     1      -3.453  -1.439 -32.276  1.00  0.00    -0.364 N 
HETATM   13  C   UNL     1      -6.270  -1.777 -34.688  1.00  0.00     0.002 A 
HETATM   14  C   UNL     1      -6.639  -0.434 -34.691  1.00  0.00     0.001 A 
HETATM   15  H   UNL     1      -2.995  -2.321 -32.088  1.00  0.00     0.165 HD
HETATM   16  C   UNL     1      -3.103  -0.236 -31.729  1.00  0.00     0.102 A 
ENDBRANCH   6   7
ENDBRANCH   2   5
BRANCH   1  17
HETATM   17  C   UNL     1      -2.214   6.371 -30.904  1.00  0.00     0.175 C 
BRANCH  17  18
HETATM   18  C   UNL     1      -1.335   7.383 -31.652  1.00  0.00     0.030 C 
HETATM   19  C   UNL     1      -1.668   7.442 -33.139  1.00  0.00     0.007 C 
ENDBRANCH  17  18
BRANCH  17  20
HETATM   20  N   UNL     1      -2.118   6.594 -29.454  1.00  0.00    -0.377 N 
HETATM   21  H   UNL     1      -2.930   6.333 -28.901  1.00  0.00     0.160 HD
BRANCH  20  22
HETATM   22  C   UNL     1      -1.131   7.321 -28.817  1.00  0.00     0.028 A 
HETATM   23  C   UNL     1      -1.439   8.606 -28.345  1.00  0.00     0.029 A 
HETATM   24  C   UNL     1      -0.491   9.386 -27.678  1.00  0.00     0.002 A 
HETATM   25  C   UNL     1       0.788   8.888 -27.460  1.00  0.00     0.000 A 
HETATM   26  C   UNL     1       1.112   7.612 -27.906  1.00  0.00     0.002 A 
HETATM   27  C   UNL     1       0.158   6.837 -28.577  1.00  0.00     0.029 A 
ENDBRANCH  20  22
ENDBRANCH  17  20
ENDBRANCH   1  17
TORSDOF 6
ENDMDL
MODEL 6
REMARK VINA RESULT:      -7.6      5.230      8.389
REMARK  6 active torsions:
REMARK  status: ('A' for Active; 'I' for Inactive)
REMARK    1  A    between atoms: C_2  and  C_3 
REMARK    2  A    between atoms: C_3  and  N_4 
REMARK    3  A    between atoms: C_3  and  C_11 
REMARK    4  A    between atoms: N_4  and  C_5 
REMARK       I    between atoms: C_11  and  N_12 
REMARK    5  A    between atoms: N_12  and  N_13 
REMARK    6  A    between atoms: C_14  and  C_15 
ROOT
HETATM    1  C   UNL     1      -6.966   2.770 -32.466  1.00  0.00     0.260 C 
HETATM    2  N   UNL     1      -5.844   2.953 -33.281  1.00  0.00    -0.246 N 
HETATM    3  O   UNL     1      -7.316   3.538 -31.572  1.00  0.00    -0.269 OA
HETATM    4  H   UNL     1      -5.792   2.402 -34.135  1.00  0.00     0.192 HD
ENDROOT
BRANCH   2   5
HETATM    5  N   UNL     1      -5.060   4.080 -33.283  1.00  0.00    -0.184 NA
HETATM    6  C   UNL     1      -3.783   3.911 -33.429  1.00  0.00     0.152 C 
BRANCH   6   7
HETATM    7  C   UNL     1      -2.895   5.055 -33.389  1.00  0.00     0.011 A 
HETATM    8  C   UNL     1      -1.881   5.321 -32.413  1.00  0.00     0.004 A 
HETATM    9  C   UNL     1      -1.278   6.532 -32.756  1.00  0.00     0.043 A 
HETATM   10  C   UNL     1      -1.413   4.639 -31.268  1.00  0.00     0.014 A 
HETATM   11  C   UNL     1      -0.235   7.097 -32.012  1.00  0.00     0.030 A 
HETATM   12  N   UNL     1      -1.904   6.988 -33.892  1.00  0.00    -0.364 N 
HETATM   13  C   UNL     1       0.211   6.399 -30.885  1.00  0.00     0.002 A 
HETATM   14  C   UNL     1      -0.368   5.188 -30.517  1.00  0.00     0.001 A 
HETATM   15  H   UNL     1      -1.676   7.853 -34.364  1.00  0.00     0.165 HD
HETATM   16  C   UNL     1      -2.871   6.106 -34.287  1.00  0.00     0.102 A 
ENDBRANCH   6   7
ENDBRANCH   2   5
BRANCH   1  17
HETATM   17  C   UNL     1      -7.717   1.459 -32.818  1.00  0.00     0.175 C 
BRANCH  17  18
HETATM   18  C   UNL     1      -9.134   1.439 -32.225  1.00  0.00     0.030 C 
HETATM   19  C   UNL     1     -10.042   0.448 -32.945  1.00  0.00     0.007 C 
ENDBRANCH  17  18
BRANCH  17  20
HETATM   20  N   UNL     1      -6.937   0.328 -32.296  1.00  0.00    -0.377 N 
HETATM   21  H   UNL     1      -6.677   0.372 -31.315  1.00  0.00     0.160 HD
BRANCH  20  22
HETATM   22  C   UNL     1      -6.345  -0.659 -33.060  1.00  0.00     0.028 A 
HETATM   23  C   UNL     1      -4.959  -0.849 -32.959  1.00  0.00     0.029 A 
HETATM   24  C   UNL     1      -4.301  -1.840 -33.692  1.00  0.00     0.002 A 
HETATM   25  C   UNL     1      -5.025  -2.674 -34.537  1.00  0.00     0.000 A 
HETATM   26  C   UNL     1      -6.402  -2.515 -34.642  1.00  0.00     0.002 A 
HETATM   27  C   UNL     1      -7.054  -1.516 -33.908  1.00  0.00     0.029 A 
ENDBRANCH  20  22
ENDBRANCH  17  20
ENDBRANCH   1  17
TORSDOF 6
ENDMDL
MODEL 7
REMARK VINA RESULT:      -7.6      5.049      6.872
REMARK  6 active torsions:
REMARK  status: ('A' for Active; 'I' for Inactive)
REMARK    1  A    between atoms: C_2  and  C_3 
REMARK    2  A    between atoms: C_3  and  N_4 
REMARK    3  A    between atoms: C_3  and  C_11 
REMARK    4  A    between atoms: N_4  and  C_5 
REMARK       I    between atoms: C_11  and  N_12 
REMARK    5  A    between atoms: N_12  and  N_13 
REMARK    6  A    between atoms: C_14  and  C_15 
ROOT
HETATM    1  C   UNL     1      -5.149   2.224 -30.836  1.00  0.00     0.260 C 
HETATM    2  N   UNL     1      -5.303   1.804 -32.161  1.00  0.00    -0.246 N 
HETATM    3  O   UNL     1      -5.507   1.581 -29.850  1.00  0.00    -0.269 OA
HETATM    4  H   UNL     1      -4.756   2.287 -32.871  1.00  0.00     0.192 HD
ENDROOT
BRANCH   2   5
HETATM    5  N   UNL     1      -5.752   0.561 -32.536  1.00  0.00    -0.184 NA
HETATM    6  C   UNL     1      -5.268   0.065 -33.631  1.00  0.00     0.152 C 
BRANCH   6   7
HETATM    7  C   UNL     1      -5.737  -1.220 -34.108  1.00  0.00     0.011 A 
HETATM    8  C   UNL     1      -5.069  -2.481 -33.977  1.00  0.00     0.004 A 
HETATM    9  C   UNL     1      -5.874  -3.445 -34.586  1.00  0.00     0.043 A 
HETATM   10  C   UNL     1      -3.854  -2.895 -33.389  1.00  0.00     0.014 A 
HETATM   11  C   UNL     1      -5.524  -4.800 -34.641  1.00  0.00     0.030 A 
HETATM   12  N   UNL     1      -6.984  -2.796 -35.074  1.00  0.00    -0.364 N 
HETATM   13  C   UNL     1      -4.317  -5.183 -34.049  1.00  0.00     0.002 A 
HETATM   14  C   UNL     1      -3.493  -4.246 -33.431  1.00  0.00     0.001 A 
HETATM   15  H   UNL     1      -7.738  -3.248 -35.574  1.00  0.00     0.165 HD
HETATM   16  C   UNL     1      -6.917  -1.461 -34.786  1.00  0.00     0.102 A 
ENDBRANCH   6   7
ENDBRANCH   2   5
BRANCH   1  17
HETATM   17  C   UNL     1      -4.479   3.620 -30.755  1.00  0.00     0.175 C 
BRANCH  17  18
HETATM   18  C   UNL     1      -5.235   4.663 -31.592  1.00  0.00     0.030 C 
HETATM   19  C   UNL     1      -5.596   5.899 -30.776  1.00  0.00     0.007 C 
ENDBRANCH  17  18
BRANCH  17  20
HETATM   20  N   UNL     1      -3.096   3.494 -31.237  1.00  0.00    -0.377 N 
HETATM   21  H   UNL     1      -2.544   2.742 -30.836  1.00  0.00     0.160 HD
BRANCH  20  22
HETATM   22  C   UNL     1      -2.425   4.427 -32.004  1.00  0.00     0.028 A 
HETATM   23  C   UNL     1      -1.806   5.508 -31.359  1.00  0.00     0.029 A 
HETATM   24  C   UNL     1      -1.097   6.477 -32.074  1.00  0.00     0.002 A 
HETATM   25  C   UNL     1      -0.984   6.375 -33.456  1.00  0.00     0.000 A 
HETATM   26  C   UNL     1      -1.577   5.305 -34.115  1.00  0.00     0.002 A 
HETATM   27  C   UNL     1      -2.289   4.340 -33.393  1.00  0.00     0.029 A 
ENDBRANCH  20  22
ENDBRANCH  17  20
ENDBRANCH   1  17
TORSDOF 6
ENDMDL
MODEL 8
REMARK VINA RESULT:      -7.5      7.259      9.810
REMARK  6 active torsions:
REMARK  status: ('A' for Active; 'I' for Inactive)
REMARK    1  A    between atoms: C_2  and  C_3 
REMARK    2  A    between atoms: C_3  and  N_4 
REMARK    3  A    between atoms: C_3  and  C_11 
REMARK    4  A    between atoms: N_4  and  C_5 
REMARK       I    between atoms: C_11  and  N_12 
REMARK    5  A    between atoms: N_12  and  N_13 
REMARK    6  A    between atoms: C_14  and  C_15 
ROOT
HETATM    1  C   UNL     1      -2.536   4.454 -31.659  1.00  0.00     0.260 C 
HETATM    2  N   UNL     1      -3.643   4.255 -30.828  1.00  0.00    -0.246 N 
HETATM    3  O   UNL     1      -2.196   3.699 -32.568  1.00  0.00    -0.269 OA
HETATM    4  H   UNL     1      -3.971   5.053 -30.288  1.00  0.00     0.192 HD
ENDROOT
BRANCH   2   5
HETATM    5  N   UNL     1      -4.576   3.262 -31.001  1.00  0.00    -0.184 NA
HETATM    6  C   UNL     1      -5.734   3.615 -31.465  1.00  0.00     0.152 C 
BRANCH   6   7
HETATM    7  C   UNL     1      -6.779   2.624 -31.623  1.00  0.00     0.011 A 
HETATM    8  C   UNL     1      -7.039   1.827 -32.785  1.00  0.00     0.004 A 
HETATM    9  C   UNL     1      -8.139   1.018 -32.499  1.00  0.00     0.043 A 
HETATM   10  C   UNL     1      -6.435   1.714 -34.056  1.00  0.00     0.014 A 
HETATM   11  C   UNL     1      -8.668   0.105 -33.420  1.00  0.00     0.030 A 
HETATM   12  N   UNL     1      -8.537   1.314 -31.217  1.00  0.00    -0.364 N 
HETATM   13  C   UNL     1      -8.049   0.011 -34.670  1.00  0.00     0.002 A 
HETATM   14  C   UNL     1      -6.948   0.803 -34.986  1.00  0.00     0.001 A 
HETATM   15  H   UNL     1      -9.321   0.881 -30.746  1.00  0.00     0.165 HD
HETATM   16  C   UNL     1      -7.723   2.271 -30.677  1.00  0.00     0.102 A 
ENDBRANCH   6   7
ENDBRANCH   2   5
BRANCH   1  17
HETATM   17  C   UNL     1      -1.769   5.749 -31.284  1.00  0.00     0.175 C 
BRANCH  17  18
HETATM   18  C   UNL     1      -0.832   6.202 -32.414  1.00  0.00     0.030 C 
HETATM   19  C   UNL     1      -1.423   7.354 -33.220  1.00  0.00     0.007 C 
ENDBRANCH  17  18
BRANCH  17  20
HETATM   20  N   UNL     1      -0.994   5.487 -30.062  1.00  0.00    -0.377 N 
HETATM   21  H   UNL     1      -0.973   4.525 -29.738  1.00  0.00     0.160 HD
BRANCH  20  22
HETATM   22  C   UNL     1      -0.491   6.450 -29.209  1.00  0.00     0.028 A 
HETATM   23  C   UNL     1       0.568   6.106 -28.356  1.00  0.00     0.029 A 
HETATM   24  C   UNL     1       1.133   7.037 -27.480  1.00  0.00     0.002 A 
HETATM   25  C   UNL     1       0.653   8.341 -27.450  1.00  0.00     0.000 A 
HETATM   26  C   UNL     1      -0.386   8.709 -28.297  1.00  0.00     0.002 A 
HETATM   27  C   UNL     1      -0.951   7.770 -29.169  1.00  0.00     0.029 A 
ENDBRANCH  20  22
ENDBRANCH  17  20
ENDBRANCH   1  17
TORSDOF 6
ENDMDL
MODEL 9
REMARK VINA RESULT:      -7.5      7.484      9.868
REMARK  6 active torsions:
REMARK  status: ('A' for Active; 'I' for Inactive)
REMARK    1  A    between atoms: C_2  and  C_3 
REMARK    2  A    between atoms: C_3  and  N_4 
REMARK    3  A    between atoms: C_3  and  C_11 
REMARK    4  A    between atoms: N_4  and  C_5 
REMARK       I    between atoms: C_11  and  N_12 
REMARK    5  A    between atoms: N_12  and  N_13 
REMARK    6  A    between atoms: C_14  and  C_15 
ROOT
HETATM    1  C   UNL     1      -2.113   4.912 -31.503  1.00  0.00     0.260 C 
HETATM    2  N   UNL     1      -3.435   4.454 -31.513  1.00  0.00    -0.246 N 
HETATM    3  O   UNL     1      -1.217   4.484 -32.228  1.00  0.00    -0.269 OA
HETATM    4  H   UNL     1      -4.135   5.039 -31.061  1.00  0.00     0.192 HD
ENDROOT
BRANCH   2   5
HETATM    5  N   UNL     1      -3.941   3.560 -32.423  1.00  0.00    -0.184 NA
HETATM    6  C   UNL     1      -5.129   3.094 -32.195  1.00  0.00     0.152 C 
BRANCH   6   7
HETATM    7  C   UNL     1      -5.701   2.109 -33.090  1.00  0.00     0.011 A 
HETATM    8  C   UNL     1      -5.361   0.720 -33.168  1.00  0.00     0.004 A 
HETATM    9  C   UNL     1      -6.148   0.152 -34.170  1.00  0.00     0.043 A 
HETATM   10  C   UNL     1      -4.457  -0.113 -32.472  1.00  0.00     0.014 A 
HETATM   11  C   UNL     1      -6.076  -1.203 -34.515  1.00  0.00     0.030 A 
HETATM   12  N   UNL     1      -6.932   1.157 -34.687  1.00  0.00    -0.364 N 
HETATM   13  C   UNL     1      -5.176  -2.006 -33.808  1.00  0.00     0.002 A 
HETATM   14  C   UNL     1      -4.377  -1.471 -32.800  1.00  0.00     0.001 A 
HETATM   15  H   UNL     1      -7.599   1.035 -35.437  1.00  0.00     0.165 HD
HETATM   16  C   UNL     1      -6.679   2.335 -34.041  1.00  0.00     0.102 A 
ENDBRANCH   6   7
ENDBRANCH   2   5
BRANCH   1  17
HETATM   17  C   UNL     1      -1.904   6.028 -30.447  1.00  0.00     0.175 C 
BRANCH  17  18
HETATM   18  C   UNL     1      -2.342   7.402 -30.977  1.00  0.00     0.030 C 
HETATM   19  C   UNL     1      -1.456   7.883 -32.120  1.00  0.00     0.007 C 
ENDBRANCH  17  18
BRANCH  17  20
HETATM   20  N   UNL     1      -0.480   6.058 -30.084  1.00  0.00    -0.377 N 
HETATM   21  H   UNL     1       0.137   5.461 -30.627  1.00  0.00     0.160 HD
BRANCH  20  22
HETATM   22  C   UNL     1       0.047   6.641 -28.948  1.00  0.00     0.028 A 
HETATM   23  C   UNL     1       0.841   7.789 -29.088  1.00  0.00     0.029 A 
HETATM   24  C   UNL     1       1.391   8.437 -27.978  1.00  0.00     0.002 A 
HETATM   25  C   UNL     1       1.146   7.950 -26.699  1.00  0.00     0.000 A 
HETATM   26  C   UNL     1       0.350   6.822 -26.535  1.00  0.00     0.002 A 
HETATM   27  C   UNL     1      -0.194   6.176 -27.652  1.00  0.00     0.029 A 
ENDBRANCH  20  22
ENDBRANCH  17  20
ENDBRANCH   1  17
TORSDOF 6
ENDMDL
MODEL 10
REMARK VINA RESULT:      -7.4      5.118      7.164
REMARK  6 active torsions:
REMARK  status: ('A' for Active; 'I' for Inactive)
REMARK    1  A    between atoms: C_2  and  C_3 
REMARK    2  A    between atoms: C_3  and  N_4 
REMARK    3  A    between atoms: C_3  and  C_11 
REMARK    4  A    between atoms: N_4  and  C_5 
REMARK       I    between atoms: C_11  and  N_12 
REMARK    5  A    between atoms: N_12  and  N_13 
REMARK    6  A    between atoms: C_14  and  C_15 
ROOT
HETATM    1  C   UNL     1      -5.291   4.165 -30.647  1.00  0.00     0.260 C 
HETATM    2  N   UNL     1      -5.826   3.979 -31.926  1.00  0.00    -0.246 N 
HETATM    3  O   UNL     1      -5.344   3.340 -29.738  1.00  0.00    -0.269 OA
HETATM    4  H   UNL     1      -5.511   4.609 -32.661  1.00  0.00     0.192 HD
ENDROOT
BRANCH   2   5
HETATM    5  N   UNL     1      -6.365   2.800 -32.380  1.00  0.00    -0.184 NA
HETATM    6  C   UNL     1      -5.923   2.346 -33.510  1.00  0.00     0.152 C 
BRANCH   6   7
HETATM    7  C   UNL     1      -6.486   1.133 -34.069  1.00  0.00     0.011 A 
HETATM    8  C   UNL     1      -5.900  -0.174 -34.049  1.00  0.00     0.004 A 
HETATM    9  C   UNL     1      -6.779  -1.036 -34.706  1.00  0.00     0.043 A 
HETATM   10  C   UNL     1      -4.702  -0.708 -33.526  1.00  0.00     0.014 A 
HETATM   11  C   UNL     1      -6.520  -2.402 -34.870  1.00  0.00     0.030 A 
HETATM   12  N   UNL     1      -7.854  -0.282 -35.116  1.00  0.00    -0.364 N 
HETATM   13  C   UNL     1      -5.328  -2.906 -34.340  1.00  0.00     0.002 A 
HETATM   14  C   UNL     1      -4.431  -2.072 -33.676  1.00  0.00     0.001 A 
HETATM   15  H   UNL     1      -8.647  -0.646 -35.627  1.00  0.00     0.165 HD
HETATM   16  C   UNL     1      -7.694   1.020 -34.732  1.00  0.00     0.102 A 
ENDBRANCH   6   7
ENDBRANCH   2   5
BRANCH   1  17
HETATM   17  C   UNL     1      -4.626   5.560 -30.506  1.00  0.00     0.175 C 
BRANCH  17  18
HETATM   18  C   UNL     1      -5.231   6.580 -31.482  1.00  0.00     0.030 C 
HETATM   19  C   UNL     1      -5.259   7.987 -30.896  1.00  0.00     0.007 C 
ENDBRANCH  17  18
BRANCH  17  20
HETATM   20  N   UNL     1      -3.186   5.410 -30.762  1.00  0.00    -0.377 N 
HETATM   21  H   UNL     1      -2.588   5.328 -29.944  1.00  0.00     0.160 HD
BRANCH  20  22
HETATM   22  C   UNL     1      -2.564   5.595 -31.981  1.00  0.00     0.028 A 
HETATM   23  C   UNL     1      -1.886   6.802 -32.214  1.00  0.00     0.029 A 
HETATM   24  C   UNL     1      -1.222   7.045 -33.420  1.00  0.00     0.002 A 
HETATM   25  C   UNL     1      -1.214   6.075 -34.416  1.00  0.00     0.000 A 
HETATM   26  C   UNL     1      -1.866   4.866 -34.201  1.00  0.00     0.002 A 
HETATM   27  C   UNL     1      -2.533   4.631 -32.993  1.00  0.00     0.029 A 
ENDBRANCH  20  22
ENDBRANCH  17  20
ENDBRANCH   1  17
TORSDOF 6
ENDMDL
