MODEL 1
REMARK VINA RESULT:      -8.9      0.000      0.000
REMARK  6 active torsions:
REMARK  status: ('A' for Active; 'I' for Inactive)
REMARK    1  A    between atoms: C_2  and  C_3 
REMARK    2  A    between atoms: C_3  and  C_4 
REMARK    3  A    between atoms: C_7  and  C_8 
REMARK    4  A    between atoms: C_14  and  C_15 
REMARK    5  A    between atoms: C_18  and  N_19 
REMARK       I    between atoms: N_19  and  C_20 
REMARK    6  A    between atoms: C_28  and  N_29 
ROOT
HETATM    1  C   UNL     1      -8.704   4.062 -33.846  1.00  0.00     0.099 A 
HETATM    2  N   UNL     1      -8.810   5.166 -34.609  1.00  0.00    -0.172 NA
HETATM    3  N   UNL     1     -10.025   5.067 -35.183  1.00  0.00    -0.256 N 
HETATM    4  H   UNL     1     -10.335   5.804 -35.806  1.00  0.00     0.191 HD
HETATM    5  C   UNL     1     -10.676   3.926 -34.845  1.00  0.00     0.175 A 
HETATM    6  C   UNL     1      -9.864   3.248 -33.975  1.00  0.00     0.040 A 
HETATM    7  C   UNL     1     -10.297   1.927 -33.430  1.00  0.00     0.106 A 
HETATM    8  C   UNL     1     -11.666   1.539 -33.990  1.00  0.00     0.081 A 
HETATM    9  C   UNL     1     -12.228   0.318 -33.515  1.00  0.00     0.100 C 
HETATM   10  N   UNL     1     -12.692  -0.676 -33.137  1.00  0.00    -0.191 NA
HETATM   11  C   UNL     1     -12.366   2.330 -34.851  1.00  0.00     0.140 A 
HETATM   12  O   UNL     1     -11.864   3.562 -35.309  1.00  0.00    -0.279 OA
ENDROOT
BRANCH   7  13
HETATM   13  C   UNL     1      -9.185   0.942 -33.769  1.00  0.00    -0.044 A 
HETATM   14  C   UNL     1      -8.581   0.210 -32.734  1.00  0.00     0.010 A 
HETATM   15  C   UNL     1      -7.470  -0.605 -32.977  1.00  0.00     0.030 A 
HETATM   16  C   UNL     1      -6.951  -0.726 -34.264  1.00  0.00     0.034 A 
HETATM   17  C   UNL     1      -7.594  -0.060 -35.314  1.00  0.00     0.030 A 
HETATM   18  C   UNL     1      -8.700   0.763 -35.073  1.00  0.00     0.010 A 
BRANCH  16  19
HETATM   19  N   UNL     1      -5.790  -1.461 -34.577  1.00  0.00    -0.328 N 
HETATM   20  C   UNL     1      -5.676  -2.833 -34.718  1.00  0.00     0.218 C 
HETATM   21  C   UNL     1      -4.253  -3.258 -34.979  1.00  0.00     0.117 C 
HETATM   22  O   UNL     1      -6.577  -3.664 -34.661  1.00  0.00    -0.274 OA
HETATM   23  H   UNL     1      -4.935  -0.925 -34.653  1.00  0.00     0.169 HD
ENDBRANCH  16  19
ENDBRANCH   7  13
BRANCH  11  24
HETATM   24  N   UNL     1     -13.612   2.045 -35.362  1.00  0.00    -0.282 NA
HETATM   25  H   UNL     1     -14.084   1.241 -34.956  1.00  0.00     0.126 HD
HETATM   26  H   UNL     1     -13.622   2.046 -36.379  1.00  0.00     0.126 HD
ENDBRANCH  11  24
BRANCH   1  27
HETATM   27  C   UNL     1      -7.493   3.771 -33.089  1.00  0.00    -0.005 A 
HETATM   28  C   UNL     1      -7.524   3.680 -31.694  1.00  0.00     0.014 A 
HETATM   29  C   UNL     1      -6.400   3.238 -30.987  1.00  0.00     0.008 A 
HETATM   30  C   UNL     1      -5.223   2.885 -31.658  1.00  0.00    -0.058 A 
HETATM   31  C   UNL     1      -5.180   3.051 -33.054  1.00  0.00     0.008 A 
HETATM   32  C   UNL     1      -6.303   3.486 -33.763  1.00  0.00     0.014 A 
BRANCH  30  33
HETATM   33  C   UNL     1      -3.987   2.334 -30.973  1.00  0.00     0.042 C 
BRANCH  33  34
HETATM   34  C   UNL     1      -3.790   0.802 -30.961  1.00  0.00    -0.019 C 
HETATM   35  C   UNL     1      -3.448   0.266 -32.355  1.00  0.00     0.010 C 
HETATM   36  C   UNL     1      -5.063   0.109 -30.461  1.00  0.00     0.010 C 
ENDBRANCH  33  34
ENDBRANCH  30  33
ENDBRANCH   1  27
TORSDOF 6
ENDMDL
MODEL 2
REMARK VINA RESULT:      -8.7      2.379      5.217
REMARK  6 active torsions:
REMARK  status: ('A' for Active; 'I' for Inactive)
REMARK    1  A    between atoms: C_2  and  C_3 
REMARK    2  A    between atoms: C_3  and  C_4 
REMARK    3  A    between atoms: C_7  and  C_8 
REMARK    4  A    between atoms: C_14  and  C_15 
REMARK    5  A    between atoms: C_18  and  N_19 
REMARK       I    between atoms: N_19  and  C_20 
REMARK    6  A    between atoms: C_28  and  N_29 
ROOT
HETATM    1  C   UNL     1      -9.642   0.394 -33.460  1.00  0.00     0.099 A 
HETATM    2  N   UNL     1     -10.611  -0.397 -32.962  1.00  0.00    -0.172 NA
HETATM    3  N   UNL     1     -11.741   0.325 -33.096  1.00  0.00    -0.256 N 
HETATM    4  H   UNL     1     -12.620  -0.079 -32.792  1.00  0.00     0.191 HD
HETATM    5  C   UNL     1     -11.521   1.556 -33.622  1.00  0.00     0.175 A 
HETATM    6  C   UNL     1     -10.179   1.643 -33.881  1.00  0.00     0.040 A 
HETATM    7  C   UNL     1      -9.613   2.900 -34.455  1.00  0.00     0.106 A 
HETATM    8  C   UNL     1     -10.715   3.941 -34.656  1.00  0.00     0.081 A 
HETATM    9  C   UNL     1     -10.324   5.179 -35.246  1.00  0.00     0.100 C 
HETATM   10  N   UNL     1     -10.016   6.191 -35.721  1.00  0.00    -0.191 NA
HETATM   11  C   UNL     1     -12.023   3.703 -34.356  1.00  0.00     0.140 A 
HETATM   12  O   UNL     1     -12.454   2.479 -33.813  1.00  0.00    -0.279 OA
ENDROOT
BRANCH   7  13
HETATM   13  C   UNL     1      -8.508   3.341 -33.504  1.00  0.00    -0.044 A 
HETATM   14  C   UNL     1      -8.846   3.757 -32.207  1.00  0.00     0.010 A 
HETATM   15  C   UNL     1      -7.885   4.294 -31.344  1.00  0.00     0.030 A 
HETATM   16  C   UNL     1      -6.557   4.407 -31.750  1.00  0.00     0.034 A 
HETATM   17  C   UNL     1      -6.196   3.924 -33.013  1.00  0.00     0.030 A 
HETATM   18  C   UNL     1      -7.158   3.393 -33.881  1.00  0.00     0.010 A 
BRANCH  16  19
HETATM   19  N   UNL     1      -5.546   5.009 -30.973  1.00  0.00    -0.328 N 
HETATM   20  C   UNL     1      -4.994   6.266 -31.141  1.00  0.00     0.218 C 
HETATM   21  C   UNL     1      -3.878   6.529 -30.161  1.00  0.00     0.117 C 
HETATM   22  O   UNL     1      -5.324   7.121 -31.957  1.00  0.00    -0.274 OA
HETATM   23  H   UNL     1      -5.145   4.430 -30.246  1.00  0.00     0.169 HD
ENDBRANCH  16  19
ENDBRANCH   7  13
BRANCH  11  24
HETATM   24  N   UNL     1     -13.058   4.591 -34.544  1.00  0.00    -0.282 NA
HETATM   25  H   UNL     1     -13.922   4.374 -34.055  1.00  0.00     0.126 HD
HETATM   26  H   UNL     1     -13.197   4.821 -35.525  1.00  0.00     0.126 HD
ENDBRANCH  11  24
BRANCH   1  27
HETATM   27  C   UNL     1      -8.243  -0.014 -33.449  1.00  0.00    -0.005 A 
HETATM   28  C   UNL     1      -7.495   0.020 -32.268  1.00  0.00     0.014 A 
HETATM   29  C   UNL     1      -6.209  -0.528 -32.227  1.00  0.00     0.008 A 
HETATM   30  C   UNL     1      -5.641  -1.114 -33.366  1.00  0.00    -0.058 A 
HETATM   31  C   UNL     1      -6.374  -1.075 -34.565  1.00  0.00     0.008 A 
HETATM   32  C   UNL     1      -7.661  -0.535 -34.607  1.00  0.00     0.014 A 
BRANCH  30  33
HETATM   33  C   UNL     1      -4.283  -1.787 -33.387  1.00  0.00     0.042 C 
BRANCH  33  34
HETATM   34  C   UNL     1      -3.565  -2.009 -32.036  1.00  0.00    -0.019 C 
HETATM   35  C   UNL     1      -2.428  -1.003 -31.831  1.00  0.00     0.010 C 
HETATM   36  C   UNL     1      -2.991  -3.429 -31.971  1.00  0.00     0.010 C 
ENDBRANCH  33  34
ENDBRANCH  30  33
ENDBRANCH   1  27
TORSDOF 6
ENDMDL
MODEL 3
REMARK VINA RESULT:      -8.6      2.915      6.372
REMARK  6 active torsions:
REMARK  status: ('A' for Active; 'I' for Inactive)
REMARK    1  A    between atoms: C_2  and  C_3 
REMARK    2  A    between atoms: C_3  and  C_4 
REMARK    3  A    between atoms: C_7  and  C_8 
REMARK    4  A    between atoms: C_14  and  C_15 
REMARK    5  A    between atoms: C_18  and  N_19 
REMARK       I    between atoms: N_19  and  C_20 
REMARK    6  A    between atoms: C_28  and  N_29 
ROOT
HETATM    1  C   UNL     1      -8.453   3.426 -31.448  1.00  0.00     0.099 A 
HETATM    2  N   UNL     1      -8.864   3.680 -30.191  1.00  0.00    -0.172 NA
HETATM    3  N   UNL     1      -7.777   4.181 -29.573  1.00  0.00    -0.256 N 
HETATM    4  H   UNL     1      -7.851   4.460 -28.602  1.00  0.00     0.191 HD
HETATM    5  C   UNL     1      -6.685   4.219 -30.377  1.00  0.00     0.175 A 
HETATM    6  C   UNL     1      -7.076   3.747 -31.602  1.00  0.00     0.040 A 
HETATM    7  C   UNL     1      -6.081   3.646 -32.711  1.00  0.00     0.106 A 
HETATM    8  C   UNL     1      -4.704   4.115 -32.240  1.00  0.00     0.081 A 
HETATM    9  C   UNL     1      -3.663   4.119 -33.214  1.00  0.00     0.100 C 
HETATM   10  N   UNL     1      -2.809   4.122 -33.999  1.00  0.00    -0.191 NA
HETATM   11  C   UNL     1      -4.467   4.571 -30.978  1.00  0.00     0.140 A 
HETATM   12  O   UNL     1      -5.478   4.623 -30.001  1.00  0.00    -0.279 OA
ENDROOT
BRANCH   7  13
HETATM   13  C   UNL     1      -6.118   2.199 -33.184  1.00  0.00    -0.044 A 
HETATM   14  C   UNL     1      -6.582   1.913 -34.478  1.00  0.00     0.010 A 
HETATM   15  C   UNL     1      -6.758   0.595 -34.909  1.00  0.00     0.030 A 
HETATM   16  C   UNL     1      -6.454  -0.471 -34.065  1.00  0.00     0.034 A 
HETATM   17  C   UNL     1      -5.919  -0.197 -32.801  1.00  0.00     0.030 A 
HETATM   18  C   UNL     1      -5.749   1.122 -32.364  1.00  0.00     0.010 A 
BRANCH  16  19
HETATM   19  N   UNL     1      -6.679  -1.823 -34.394  1.00  0.00    -0.328 N 
HETATM   20  C   UNL     1      -5.730  -2.783 -34.699  1.00  0.00     0.218 C 
HETATM   21  C   UNL     1      -6.360  -4.101 -35.076  1.00  0.00     0.117 C 
HETATM   22  O   UNL     1      -4.510  -2.657 -34.677  1.00  0.00    -0.274 OA
HETATM   23  H   UNL     1      -7.649  -2.104 -34.468  1.00  0.00     0.169 HD
ENDBRANCH  16  19
ENDBRANCH   7  13
BRANCH  11  24
HETATM   24  N   UNL     1      -3.257   5.030 -30.510  1.00  0.00    -0.282 NA
HETATM   25  H   UNL     1      -2.765   4.412 -29.870  1.00  0.00     0.126 HD
HETATM   26  H   UNL     1      -3.310   5.991 -30.180  1.00  0.00     0.126 HD
ENDBRANCH  11  24
BRANCH   1  27
HETATM   27  C   UNL     1      -9.340   2.819 -32.433  1.00  0.00    -0.005 A 
HETATM   28  C   UNL     1      -9.601   1.445 -32.413  1.00  0.00     0.014 A 
HETATM   29  C   UNL     1     -10.577   0.896 -33.251  1.00  0.00     0.008 A 
HETATM   30  C   UNL     1     -11.307   1.706 -34.130  1.00  0.00    -0.058 A 
HETATM   31  C   UNL     1     -10.984   3.073 -34.194  1.00  0.00     0.008 A 
HETATM   32  C   UNL     1     -10.014   3.625 -33.353  1.00  0.00     0.014 A 
BRANCH  30  33
HETATM   33  C   UNL     1     -12.425   1.201 -35.020  1.00  0.00     0.042 C 
BRANCH  33  34
HETATM   34  C   UNL     1     -13.766   0.823 -34.352  1.00  0.00    -0.019 C 
HETATM   35  C   UNL     1     -14.201   1.875 -33.327  1.00  0.00     0.010 C 
HETATM   36  C   UNL     1     -13.642  -0.535 -33.650  1.00  0.00     0.010 C 
ENDBRANCH  33  34
ENDBRANCH  30  33
ENDBRANCH   1  27
TORSDOF 6
ENDMDL
MODEL 4
REMARK VINA RESULT:      -8.2      3.173      6.756
REMARK  6 active torsions:
REMARK  status: ('A' for Active; 'I' for Inactive)
REMARK    1  A    between atoms: C_2  and  C_3 
REMARK    2  A    between atoms: C_3  and  C_4 
REMARK    3  A    between atoms: C_7  and  C_8 
REMARK    4  A    between atoms: C_14  and  C_15 
REMARK    5  A    between atoms: C_18  and  N_19 
REMARK       I    between atoms: N_19  and  C_20 
REMARK    6  A    between atoms: C_28  and  N_29 
ROOT
HETATM    1  C   UNL     1      -4.499   2.610 -32.191  1.00  0.00     0.099 A 
HETATM    2  N   UNL     1      -3.278   2.900 -32.677  1.00  0.00    -0.172 NA
HETATM    3  N   UNL     1      -2.947   4.067 -32.092  1.00  0.00    -0.256 N 
HETATM    4  H   UNL     1      -2.048   4.484 -32.303  1.00  0.00     0.191 HD
HETATM    5  C   UNL     1      -3.926   4.547 -31.284  1.00  0.00     0.175 A 
HETATM    6  C   UNL     1      -4.946   3.634 -31.310  1.00  0.00     0.040 A 
HETATM    7  C   UNL     1      -6.191   3.889 -30.527  1.00  0.00     0.106 A 
HETATM    8  C   UNL     1      -6.097   5.225 -29.790  1.00  0.00     0.081 A 
HETATM    9  C   UNL     1      -7.201   5.575 -28.958  1.00  0.00     0.100 C 
HETATM   10  N   UNL     1      -8.095   5.872 -28.282  1.00  0.00    -0.191 NA
HETATM   11  C   UNL     1      -5.000   6.031 -29.853  1.00  0.00     0.140 A 
HETATM   12  O   UNL     1      -3.873   5.699 -30.628  1.00  0.00    -0.279 OA
ENDROOT
BRANCH   7  13
HETATM   13  C   UNL     1      -7.343   3.807 -31.520  1.00  0.00    -0.044 A 
HETATM   14  C   UNL     1      -8.320   2.812 -31.355  1.00  0.00     0.010 A 
HETATM   15  C   UNL     1      -9.320   2.614 -32.312  1.00  0.00     0.030 A 
HETATM   16  C   UNL     1      -9.382   3.419 -33.446  1.00  0.00     0.034 A 
HETATM   17  C   UNL     1      -8.458   4.462 -33.582  1.00  0.00     0.030 A 
HETATM   18  C   UNL     1      -7.451   4.658 -32.630  1.00  0.00     0.010 A 
BRANCH  16  19
HETATM   19  N   UNL     1     -10.307   3.232 -34.494  1.00  0.00    -0.328 N 
HETATM   20  C   UNL     1     -11.663   3.507 -34.477  1.00  0.00     0.218 C 
HETATM   21  C   UNL     1     -12.338   3.099 -35.762  1.00  0.00     0.117 C 
HETATM   22  O   UNL     1     -12.305   4.024 -33.569  1.00  0.00    -0.274 OA
HETATM   23  H   UNL     1      -9.942   2.798 -35.332  1.00  0.00     0.169 HD
ENDBRANCH  16  19
ENDBRANCH   7  13
BRANCH  11  24
HETATM   24  N   UNL     1      -4.850   7.227 -29.189  1.00  0.00    -0.282 NA
HETATM   25  H   UNL     1      -4.164   7.234 -28.438  1.00  0.00     0.126 HD
HETATM   26  H   UNL     1      -5.742   7.637 -28.924  1.00  0.00     0.126 HD
ENDBRANCH  11  24
BRANCH   1  27
HETATM   27  C   UNL     1      -5.234   1.429 -32.627  1.00  0.00    -0.005 A 
HETATM   28  C   UNL     1      -5.910   1.417 -33.851  1.00  0.00     0.014 A 
HETATM   29  C   UNL     1      -6.471   0.233 -34.340  1.00  0.00     0.008 A 
HETATM   30  C   UNL     1      -6.374  -0.961 -33.614  1.00  0.00    -0.058 A 
HETATM   31  C   UNL     1      -5.757  -0.920 -32.352  1.00  0.00     0.008 A 
HETATM   32  C   UNL     1      -5.190   0.260 -31.864  1.00  0.00     0.014 A 
BRANCH  30  33
HETATM   33  C   UNL     1      -6.895  -2.298 -34.105  1.00  0.00     0.042 C 
BRANCH  33  34
HETATM   34  C   UNL     1      -6.025  -3.089 -35.107  1.00  0.00    -0.019 C 
HETATM   35  C   UNL     1      -6.566  -4.505 -35.328  1.00  0.00     0.010 C 
HETATM   36  C   UNL     1      -4.582  -3.181 -34.596  1.00  0.00     0.010 C 
ENDBRANCH  33  34
ENDBRANCH  30  33
ENDBRANCH   1  27
TORSDOF 6
ENDMDL
MODEL 5
REMARK VINA RESULT:      -7.8      2.108      6.710
REMARK  6 active torsions:
REMARK  status: ('A' for Active; 'I' for Inactive)
REMARK    1  A    between atoms: C_2  and  C_3 
REMARK    2  A    between atoms: C_3  and  C_4 
REMARK    3  A    between atoms: C_7  and  C_8 
REMARK    4  A    between atoms: C_14  and  C_15 
REMARK    5  A    between atoms: C_18  and  N_19 
REMARK       I    between atoms: N_19  and  C_20 
REMARK    6  A    between atoms: C_28  and  N_29 
ROOT
HETATM    1  C   UNL     1      -4.639   1.680 -31.973  1.00  0.00     0.099 A 
HETATM    2  N   UNL     1      -3.862   1.776 -30.877  1.00  0.00    -0.172 NA
HETATM    3  N   UNL     1      -3.296   0.560 -30.754  1.00  0.00    -0.256 N 
HETATM    4  H   UNL     1      -2.651   0.395 -29.990  1.00  0.00     0.191 HD
HETATM    5  C   UNL     1      -3.712  -0.313 -31.705  1.00  0.00     0.175 A 
HETATM    6  C   UNL     1      -4.575   0.368 -32.521  1.00  0.00     0.040 A 
HETATM    7  C   UNL     1      -5.226  -0.335 -33.666  1.00  0.00     0.106 A 
HETATM    8  C   UNL     1      -4.784  -1.797 -33.719  1.00  0.00     0.081 A 
HETATM    9  C   UNL     1      -5.291  -2.579 -34.798  1.00  0.00     0.100 C 
HETATM   10  N   UNL     1      -5.702  -3.226 -35.669  1.00  0.00    -0.191 NA
HETATM   11  C   UNL     1      -3.901  -2.337 -32.833  1.00  0.00     0.140 A 
HETATM   12  O   UNL     1      -3.345  -1.586 -31.781  1.00  0.00    -0.279 OA
ENDROOT
BRANCH   7  13
HETATM   13  C   UNL     1      -6.726  -0.145 -33.484  1.00  0.00    -0.044 A 
HETATM   14  C   UNL     1      -7.505   0.250 -34.584  1.00  0.00     0.010 A 
HETATM   15  C   UNL     1      -8.860   0.564 -34.436  1.00  0.00     0.030 A 
HETATM   16  C   UNL     1      -9.475   0.469 -33.190  1.00  0.00     0.034 A 
HETATM   17  C   UNL     1      -8.726   0.003 -32.104  1.00  0.00     0.030 A 
HETATM   18  C   UNL     1      -7.367  -0.304 -32.247  1.00  0.00     0.010 A 
BRANCH  16  19
HETATM   19  N   UNL     1     -10.811   0.843 -32.943  1.00  0.00    -0.328 N 
HETATM   20  C   UNL     1     -11.634   1.606 -33.753  1.00  0.00     0.218 C 
HETATM   21  C   UNL     1     -12.976   1.863 -33.113  1.00  0.00     0.117 C 
HETATM   22  O   UNL     1     -11.379   2.047 -34.868  1.00  0.00    -0.274 OA
HETATM   23  H   UNL     1     -11.188   0.566 -32.045  1.00  0.00     0.169 HD
ENDBRANCH  16  19
ENDBRANCH   7  13
BRANCH  11  24
HETATM   24  N   UNL     1      -3.446  -3.636 -32.851  1.00  0.00    -0.282 NA
HETATM   25  H   UNL     1      -4.163  -4.357 -32.828  1.00  0.00     0.126 HD
HETATM   26  H   UNL     1      -2.696  -3.793 -32.182  1.00  0.00     0.126 HD
ENDBRANCH  11  24
BRANCH   1  27
HETATM   27  C   UNL     1      -5.470   2.791 -32.420  1.00  0.00    -0.005 A 
HETATM   28  C   UNL     1      -5.279   3.369 -33.678  1.00  0.00     0.014 A 
HETATM   29  C   UNL     1      -6.183   4.318 -34.168  1.00  0.00     0.008 A 
HETATM   30  C   UNL     1      -7.290   4.714 -33.408  1.00  0.00    -0.058 A 
HETATM   31  C   UNL     1      -7.431   4.180 -32.115  1.00  0.00     0.008 A 
HETATM   32  C   UNL     1      -6.534   3.227 -31.626  1.00  0.00     0.014 A 
BRANCH  30  33
HETATM   33  C   UNL     1      -8.350   5.684 -33.892  1.00  0.00     0.042 C 
BRANCH  33  34
HETATM   34  C   UNL     1      -9.711   5.105 -34.338  1.00  0.00    -0.019 C 
HETATM   35  C   UNL     1     -10.283   5.869 -35.537  1.00  0.00     0.010 C 
HETATM   36  C   UNL     1     -10.716   5.168 -33.182  1.00  0.00     0.010 C 
ENDBRANCH  33  34
ENDBRANCH  30  33
ENDBRANCH   1  27
TORSDOF 6
ENDMDL
MODEL 6
REMARK VINA RESULT:      -7.8      3.263      6.410
REMARK  6 active torsions:
REMARK  status: ('A' for Active; 'I' for Inactive)
REMARK    1  A    between atoms: C_2  and  C_3 
REMARK    2  A    between atoms: C_3  and  C_4 
REMARK    3  A    between atoms: C_7  and  C_8 
REMARK    4  A    between atoms: C_14  and  C_15 
REMARK    5  A    between atoms: C_18  and  N_19 
REMARK       I    between atoms: N_19  and  C_20 
REMARK    6  A    between atoms: C_28  and  N_29 
ROOT
HETATM    1  C   UNL     1      -8.120   1.451 -33.471  1.00  0.00     0.099 A 
HETATM    2  N   UNL     1      -8.813   1.409 -34.625  1.00  0.00    -0.172 NA
HETATM    3  N   UNL     1      -8.280   0.374 -35.304  1.00  0.00    -0.256 N 
HETATM    4  H   UNL     1      -8.656   0.141 -36.215  1.00  0.00     0.191 HD
HETATM    5  C   UNL     1      -7.251  -0.214 -34.644  1.00  0.00     0.175 A 
HETATM    6  C   UNL     1      -7.116   0.443 -33.450  1.00  0.00     0.040 A 
HETATM    7  C   UNL     1      -6.043   0.036 -32.495  1.00  0.00     0.106 A 
HETATM    8  C   UNL     1      -5.225  -1.121 -33.069  1.00  0.00     0.081 A 
HETATM    9  C   UNL     1      -4.192  -1.647 -32.239  1.00  0.00     0.100 C 
HETATM   10  N   UNL     1      -3.347  -2.080 -31.573  1.00  0.00    -0.191 NA
HETATM   11  C   UNL     1      -5.487  -1.684 -34.282  1.00  0.00     0.140 A 
HETATM   12  O   UNL     1      -6.525  -1.221 -35.112  1.00  0.00    -0.279 OA
ENDROOT
BRANCH   7  13
HETATM   13  C   UNL     1      -5.229   1.291 -32.210  1.00  0.00    -0.044 A 
HETATM   14  C   UNL     1      -5.191   1.800 -30.902  1.00  0.00     0.010 A 
HETATM   15  C   UNL     1      -4.568   3.020 -30.617  1.00  0.00     0.030 A 
HETATM   16  C   UNL     1      -3.949   3.749 -31.629  1.00  0.00     0.034 A 
HETATM   17  C   UNL     1      -3.916   3.214 -32.921  1.00  0.00     0.030 A 
HETATM   18  C   UNL     1      -4.546   1.997 -33.211  1.00  0.00     0.010 A 
BRANCH  16  19
HETATM   19  N   UNL     1      -3.371   5.022 -31.440  1.00  0.00    -0.328 N 
HETATM   20  C   UNL     1      -2.036   5.315 -31.223  1.00  0.00     0.218 C 
HETATM   21  C   UNL     1      -1.812   6.787 -30.986  1.00  0.00     0.117 C 
HETATM   22  O   UNL     1      -1.094   4.530 -31.219  1.00  0.00    -0.274 OA
HETATM   23  H   UNL     1      -4.018   5.799 -31.405  1.00  0.00     0.169 HD
ENDBRANCH  16  19
ENDBRANCH   7  13
BRANCH  11  24
HETATM   24  N   UNL     1      -4.803  -2.743 -34.834  1.00  0.00    -0.282 NA
HETATM   25  H   UNL     1      -3.831  -2.567 -35.075  1.00  0.00     0.126 HD
HETATM   26  H   UNL     1      -5.327  -3.195 -35.580  1.00  0.00     0.126 HD
ENDBRANCH  11  24
BRANCH   1  27
HETATM   27  C   UNL     1      -8.367   2.481 -32.469  1.00  0.00    -0.005 A 
HETATM   28  C   UNL     1      -9.028   2.176 -31.276  1.00  0.00     0.014 A 
HETATM   29  C   UNL     1      -9.115   3.124 -30.251  1.00  0.00     0.008 A 
HETATM   30  C   UNL     1      -8.549   4.396 -30.399  1.00  0.00    -0.058 A 
HETATM   31  C   UNL     1      -7.952   4.715 -31.631  1.00  0.00     0.008 A 
HETATM   32  C   UNL     1      -7.858   3.769 -32.655  1.00  0.00     0.014 A 
BRANCH  30  33
HETATM   33  C   UNL     1      -8.541   5.454 -29.313  1.00  0.00     0.042 C 
BRANCH  33  34
HETATM   34  C   UNL     1      -7.243   6.266 -29.104  1.00  0.00    -0.019 C 
HETATM   35  C   UNL     1      -6.185   5.453 -28.351  1.00  0.00     0.010 C 
HETATM   36  C   UNL     1      -7.543   7.546 -28.314  1.00  0.00     0.010 C 
ENDBRANCH  33  34
ENDBRANCH  30  33
ENDBRANCH   1  27
TORSDOF 6
ENDMDL
MODEL 7
REMARK VINA RESULT:      -7.8      2.993      6.870
REMARK  6 active torsions:
REMARK  status: ('A' for Active; 'I' for Inactive)
REMARK    1  A    between atoms: C_2  and  C_3 
REMARK    2  A    between atoms: C_3  and  C_4 
REMARK    3  A    between atoms: C_7  and  C_8 
REMARK    4  A    between atoms: C_14  and  C_15 
REMARK    5  A    between atoms: C_18  and  N_19 
REMARK       I    between atoms: N_19  and  C_20 
REMARK    6  A    between atoms: C_28  and  N_29 
ROOT
HETATM    1  C   UNL     1      -3.297   0.901 -31.832  1.00  0.00     0.099 A 
HETATM    2  N   UNL     1      -2.368   0.593 -30.907  1.00  0.00    -0.172 NA
HETATM    3  N   UNL     1      -2.210  -0.741 -31.016  1.00  0.00    -0.256 N 
HETATM    4  H   UNL     1      -1.540  -1.205 -30.414  1.00  0.00     0.191 HD
HETATM    5  C   UNL     1      -3.029  -1.294 -31.944  1.00  0.00     0.175 A 
HETATM    6  C   UNL     1      -3.745  -0.270 -32.504  1.00  0.00     0.040 A 
HETATM    7  C   UNL     1      -4.759  -0.563 -33.560  1.00  0.00     0.106 A 
HETATM    8  C   UNL     1      -4.824  -2.065 -33.840  1.00  0.00     0.081 A 
HETATM    9  C   UNL     1      -5.719  -2.486 -34.866  1.00  0.00     0.100 C 
HETATM   10  N   UNL     1      -6.447  -2.839 -35.697  1.00  0.00    -0.191 NA
HETATM   11  C   UNL     1      -4.033  -2.972 -33.202  1.00  0.00     0.140 A 
HETATM   12  O   UNL     1      -3.106  -2.591 -32.213  1.00  0.00    -0.279 OA
ENDROOT
BRANCH   7  13
HETATM   13  C   UNL     1      -6.070   0.035 -33.068  1.00  0.00    -0.044 A 
HETATM   14  C   UNL     1      -6.708   1.018 -33.842  1.00  0.00     0.010 A 
HETATM   15  C   UNL     1      -7.841   1.689 -33.370  1.00  0.00     0.030 A 
HETATM   16  C   UNL     1      -8.377   1.379 -32.123  1.00  0.00     0.034 A 
HETATM   17  C   UNL     1      -7.793   0.348 -31.377  1.00  0.00     0.030 A 
HETATM   18  C   UNL     1      -6.654  -0.320 -31.843  1.00  0.00     0.010 A 
BRANCH  16  19
HETATM   19  N   UNL     1      -9.464   2.063 -31.542  1.00  0.00    -0.328 N 
HETATM   20  C   UNL     1      -9.484   3.364 -31.071  1.00  0.00     0.218 C 
HETATM   21  C   UNL     1     -10.809   3.718 -30.445  1.00  0.00     0.117 C 
HETATM   22  O   UNL     1      -8.579   4.189 -31.128  1.00  0.00    -0.274 OA
HETATM   23  H   UNL     1     -10.307   1.519 -31.408  1.00  0.00     0.169 HD
ENDBRANCH  16  19
ENDBRANCH   7  13
BRANCH  11  24
HETATM   24  N   UNL     1      -4.028  -4.329 -33.434  1.00  0.00    -0.282 NA
HETATM   25  H   UNL     1      -4.942  -4.774 -33.480  1.00  0.00     0.126 HD
HETATM   26  H   UNL     1      -3.371  -4.822 -32.834  1.00  0.00     0.126 HD
ENDBRANCH  11  24
BRANCH   1  27
HETATM   27  C   UNL     1      -3.787   2.264 -31.997  1.00  0.00    -0.005 A 
HETATM   28  C   UNL     1      -4.785   2.773 -31.160  1.00  0.00     0.014 A 
HETATM   29  C   UNL     1      -5.132   4.127 -31.212  1.00  0.00     0.008 A 
HETATM   30  C   UNL     1      -4.496   4.997 -32.106  1.00  0.00    -0.058 A 
HETATM   31  C   UNL     1      -3.547   4.458 -32.993  1.00  0.00     0.008 A 
HETATM   32  C   UNL     1      -3.194   3.108 -32.938  1.00  0.00     0.014 A 
BRANCH  30  33
HETATM   33  C   UNL     1      -4.767   6.487 -32.178  1.00  0.00     0.042 C 
BRANCH  33  34
HETATM   34  C   UNL     1      -3.792   7.436 -31.445  1.00  0.00    -0.019 C 
HETATM   35  C   UNL     1      -2.570   7.767 -32.308  1.00  0.00     0.010 C 
HETATM   36  C   UNL     1      -3.317   6.794 -30.135  1.00  0.00     0.010 C 
ENDBRANCH  33  34
ENDBRANCH  30  33
ENDBRANCH   1  27
TORSDOF 6
ENDMDL
MODEL 8
REMARK VINA RESULT:      -7.7      3.592      6.755
REMARK  6 active torsions:
REMARK  status: ('A' for Active; 'I' for Inactive)
REMARK    1  A    between atoms: C_2  and  C_3 
REMARK    2  A    between atoms: C_3  and  C_4 
REMARK    3  A    between atoms: C_7  and  C_8 
REMARK    4  A    between atoms: C_14  and  C_15 
REMARK    5  A    between atoms: C_18  and  N_19 
REMARK       I    between atoms: N_19  and  C_20 
REMARK    6  A    between atoms: C_28  and  N_29 
ROOT
HETATM    1  C   UNL     1      -6.293   5.099 -30.492  1.00  0.00     0.099 A 
HETATM    2  N   UNL     1      -6.093   5.384 -29.191  1.00  0.00    -0.172 NA
HETATM    3  N   UNL     1      -4.795   5.738 -29.118  1.00  0.00    -0.256 N 
HETATM    4  H   UNL     1      -4.411   6.010 -28.220  1.00  0.00     0.191 HD
HETATM    5  C   UNL     1      -4.156   5.650 -30.311  1.00  0.00     0.175 A 
HETATM    6  C   UNL     1      -5.087   5.249 -31.231  1.00  0.00     0.040 A 
HETATM    7  C   UNL     1      -4.684   5.040 -32.654  1.00  0.00     0.106 A 
HETATM    8  C   UNL     1      -3.193   5.327 -32.836  1.00  0.00     0.081 A 
HETATM    9  C   UNL     1      -2.678   5.216 -34.161  1.00  0.00     0.100 C 
HETATM   10  N   UNL     1      -2.248   5.124 -35.234  1.00  0.00    -0.191 NA
HETATM   11  C   UNL     1      -2.386   5.732 -31.816  1.00  0.00     0.140 A 
HETATM   12  O   UNL     1      -2.867   5.896 -30.503  1.00  0.00    -0.279 OA
ENDROOT
BRANCH   7  13
HETATM   13  C   UNL     1      -5.091   3.616 -33.007  1.00  0.00    -0.044 A 
HETATM   14  C   UNL     1      -6.036   3.405 -34.023  1.00  0.00     0.010 A 
HETATM   15  C   UNL     1      -6.538   2.128 -34.292  1.00  0.00     0.030 A 
HETATM   16  C   UNL     1      -6.091   1.026 -33.567  1.00  0.00     0.034 A 
HETATM   17  C   UNL     1      -5.093   1.215 -32.604  1.00  0.00     0.030 A 
HETATM   18  C   UNL     1      -4.594   2.494 -32.327  1.00  0.00     0.010 A 
BRANCH  16  19
HETATM   19  N   UNL     1      -6.604  -0.278 -33.721  1.00  0.00    -0.328 N 
HETATM   20  C   UNL     1      -5.904  -1.421 -34.064  1.00  0.00     0.218 C 
HETATM   21  C   UNL     1      -6.812  -2.617 -34.211  1.00  0.00     0.117 C 
HETATM   22  O   UNL     1      -4.695  -1.530 -34.236  1.00  0.00    -0.274 OA
HETATM   23  H   UNL     1      -7.607  -0.372 -33.622  1.00  0.00     0.169 HD
ENDBRANCH  16  19
ENDBRANCH   7  13
BRANCH  11  24
HETATM   24  N   UNL     1      -1.047   6.032 -31.928  1.00  0.00    -0.282 NA
HETATM   25  H   UNL     1      -0.524   5.475 -32.600  1.00  0.00     0.126 HD
HETATM   26  H   UNL     1      -0.590   6.105 -31.022  1.00  0.00     0.126 HD
ENDBRANCH  11  24
BRANCH   1  27
HETATM   27  C   UNL     1      -7.582   4.620 -30.978  1.00  0.00    -0.005 A 
HETATM   28  C   UNL     1      -8.314   5.359 -31.912  1.00  0.00     0.014 A 
HETATM   29  C   UNL     1      -9.464   4.819 -32.499  1.00  0.00     0.008 A 
HETATM   30  C   UNL     1      -9.908   3.535 -32.160  1.00  0.00    -0.058 A 
HETATM   31  C   UNL     1      -9.205   2.833 -31.166  1.00  0.00     0.008 A 
HETATM   32  C   UNL     1      -8.053   3.366 -30.583  1.00  0.00     0.014 A 
BRANCH  30  33
HETATM   33  C   UNL     1     -11.102   2.854 -32.798  1.00  0.00     0.042 C 
BRANCH  33  34
HETATM   34  C   UNL     1     -10.834   1.829 -33.924  1.00  0.00    -0.019 C 
HETATM   35  C   UNL     1     -12.044   1.683 -34.852  1.00  0.00     0.010 C 
HETATM   36  C   UNL     1     -10.500   0.459 -33.322  1.00  0.00     0.010 C 
ENDBRANCH  33  34
ENDBRANCH  30  33
ENDBRANCH   1  27
TORSDOF 6
ENDMDL
MODEL 9
REMARK VINA RESULT:      -7.7      4.613      7.293
REMARK  6 active torsions:
REMARK  status: ('A' for Active; 'I' for Inactive)
REMARK    1  A    between atoms: C_2  and  C_3 
REMARK    2  A    between atoms: C_3  and  C_4 
REMARK    3  A    between atoms: C_7  and  C_8 
REMARK    4  A    between atoms: C_14  and  C_15 
REMARK    5  A    between atoms: C_18  and  N_19 
REMARK       I    between atoms: N_19  and  C_20 
REMARK    6  A    between atoms: C_28  and  N_29 
ROOT
HETATM    1  C   UNL     1      -6.343   2.578 -31.778  1.00  0.00     0.099 A 
HETATM    2  N   UNL     1      -6.529   1.246 -31.725  1.00  0.00    -0.172 NA
HETATM    3  N   UNL     1      -7.817   1.097 -31.358  1.00  0.00    -0.256 N 
HETATM    4  H   UNL     1      -8.194   0.161 -31.261  1.00  0.00     0.191 HD
HETATM    5  C   UNL     1      -8.442   2.280 -31.138  1.00  0.00     0.175 A 
HETATM    6  C   UNL     1      -7.531   3.267 -31.405  1.00  0.00     0.040 A 
HETATM    7  C   UNL     1      -7.917   4.700 -31.235  1.00  0.00     0.106 A 
HETATM    8  C   UNL     1      -9.362   4.812 -30.752  1.00  0.00     0.081 A 
HETATM    9  C   UNL     1      -9.882   6.130 -30.594  1.00  0.00     0.100 C 
HETATM   10  N   UNL     1     -10.314   7.199 -30.458  1.00  0.00    -0.191 NA
HETATM   11  C   UNL     1     -10.159   3.728 -30.536  1.00  0.00     0.140 A 
HETATM   12  O   UNL     1      -9.695   2.412 -30.723  1.00  0.00    -0.279 OA
ENDROOT
BRANCH   7  13
HETATM   13  C   UNL     1      -6.894   5.305 -30.283  1.00  0.00    -0.044 A 
HETATM   14  C   UNL     1      -6.027   6.304 -30.755  1.00  0.00     0.010 A 
HETATM   15  C   UNL     1      -4.987   6.796 -29.959  1.00  0.00     0.030 A 
HETATM   16  C   UNL     1      -4.801   6.316 -28.665  1.00  0.00     0.034 A 
HETATM   17  C   UNL     1      -5.706   5.375 -28.160  1.00  0.00     0.030 A 
HETATM   18  C   UNL     1      -6.744   4.876 -28.957  1.00  0.00     0.010 A 
BRANCH  16  19
HETATM   19  N   UNL     1      -3.732   6.699 -27.830  1.00  0.00    -0.328 N 
HETATM   20  C   UNL     1      -3.809   7.345 -26.608  1.00  0.00     0.218 C 
HETATM   21  C   UNL     1      -2.444   7.660 -26.049  1.00  0.00     0.117 C 
HETATM   22  O   UNL     1      -4.823   7.648 -25.990  1.00  0.00    -0.274 OA
HETATM   23  H   UNL     1      -2.804   6.530 -28.197  1.00  0.00     0.169 HD
ENDBRANCH  16  19
ENDBRANCH   7  13
BRANCH  11  24
HETATM   24  N   UNL     1     -11.473   3.772 -30.129  1.00  0.00    -0.282 NA
HETATM   25  H   UNL     1     -11.791   4.661 -29.752  1.00  0.00     0.126 HD
HETATM   26  H   UNL     1     -11.725   2.975 -29.549  1.00  0.00     0.126 HD
ENDBRANCH  11  24
BRANCH   1  27
HETATM   27  C   UNL     1      -5.043   3.156 -32.096  1.00  0.00    -0.005 A 
HETATM   28  C   UNL     1      -4.854   3.892 -33.269  1.00  0.00     0.014 A 
HETATM   29  C   UNL     1      -3.656   4.582 -33.488  1.00  0.00     0.008 A 
HETATM   30  C   UNL     1      -2.623   4.544 -32.543  1.00  0.00    -0.058 A 
HETATM   31  C   UNL     1      -2.798   3.741 -31.403  1.00  0.00     0.008 A 
HETATM   32  C   UNL     1      -3.995   3.057 -31.179  1.00  0.00     0.014 A 
BRANCH  30  33
HETATM   33  C   UNL     1      -1.325   5.316 -32.674  1.00  0.00     0.042 C 
BRANCH  33  34
HETATM   34  C   UNL     1      -1.122   6.549 -31.765  1.00  0.00    -0.019 C 
HETATM   35  C   UNL     1      -1.598   7.836 -32.445  1.00  0.00     0.010 C 
HETATM   36  C   UNL     1       0.361   6.698 -31.401  1.00  0.00     0.010 C 
ENDBRANCH  33  34
ENDBRANCH  30  33
ENDBRANCH   1  27
TORSDOF 6
ENDMDL
MODEL 10
REMARK VINA RESULT:      -7.7      2.444      6.714
REMARK  6 active torsions:
REMARK  status: ('A' for Active; 'I' for Inactive)
REMARK    1  A    between atoms: C_2  and  C_3 
REMARK    2  A    between atoms: C_3  and  C_4 
REMARK    3  A    between atoms: C_7  and  C_8 
REMARK    4  A    between atoms: C_14  and  C_15 
REMARK    5  A    between atoms: C_18  and  N_19 
REMARK       I    between atoms: N_19  and  C_20 
REMARK    6  A    between atoms: C_28  and  N_29 
ROOT
HETATM    1  C   UNL     1      -6.806   3.146 -31.286  1.00  0.00     0.099 A 
HETATM    2  N   UNL     1      -6.336   3.388 -30.047  1.00  0.00    -0.172 NA
HETATM    3  N   UNL     1      -5.505   2.359 -29.792  1.00  0.00    -0.256 N 
HETATM    4  H   UNL     1      -5.017   2.332 -28.904  1.00  0.00     0.191 HD
HETATM    5  C   UNL     1      -5.459   1.456 -30.802  1.00  0.00     0.175 A 
HETATM    6  C   UNL     1      -6.278   1.926 -31.794  1.00  0.00     0.040 A 
HETATM    7  C   UNL     1      -6.457   1.134 -33.047  1.00  0.00     0.106 A 
HETATM    8  C   UNL     1      -5.639  -0.155 -32.989  1.00  0.00     0.081 A 
HETATM    9  C   UNL     1      -5.676  -0.989 -34.144  1.00  0.00     0.100 C 
HETATM   10  N   UNL     1      -5.703  -1.676 -35.078  1.00  0.00    -0.191 NA
HETATM   11  C   UNL     1      -4.854  -0.488 -31.925  1.00  0.00     0.140 A 
HETATM   12  O   UNL     1      -4.757   0.330 -30.784  1.00  0.00    -0.279 OA
ENDROOT
BRANCH   7  13
HETATM   13  C   UNL     1      -7.956   0.914 -33.200  1.00  0.00    -0.044 A 
HETATM   14  C   UNL     1      -8.642   1.563 -34.239  1.00  0.00     0.010 A 
HETATM   15  C   UNL     1     -10.035   1.497 -34.340  1.00  0.00     0.030 A 
HETATM   16  C   UNL     1     -10.775   0.761 -33.418  1.00  0.00     0.034 A 
HETATM   17  C   UNL     1     -10.095   0.048 -32.424  1.00  0.00     0.030 A 
HETATM   18  C   UNL     1      -8.701   0.119 -32.316  1.00  0.00     0.010 A 
BRANCH  16  19
HETATM   19  N   UNL     1     -12.184   0.710 -33.402  1.00  0.00    -0.328 N 
HETATM   20  C   UNL     1     -13.047   0.990 -34.447  1.00  0.00     0.218 C 
HETATM   21  C   UNL     1     -14.493   0.902 -34.026  1.00  0.00     0.117 C 
HETATM   22  O   UNL     1     -12.749   1.274 -35.602  1.00  0.00    -0.274 OA
HETATM   23  H   UNL     1     -12.608   0.496 -32.508  1.00  0.00     0.169 HD
ENDBRANCH  16  19
ENDBRANCH   7  13
BRANCH  11  24
HETATM   24  N   UNL     1      -4.075  -1.619 -31.831  1.00  0.00    -0.282 NA
HETATM   25  H   UNL     1      -3.998  -2.175 -32.679  1.00  0.00     0.126 HD
HETATM   26  H   UNL     1      -4.295  -2.172 -31.006  1.00  0.00     0.126 HD
ENDBRANCH  11  24
BRANCH   1  27
HETATM   27  C   UNL     1      -7.789   4.019 -31.914  1.00  0.00    -0.005 A 
HETATM   28  C   UNL     1      -7.456   4.783 -33.036  1.00  0.00     0.014 A 
HETATM   29  C   UNL     1      -8.443   5.489 -33.733  1.00  0.00     0.008 A 
HETATM   30  C   UNL     1      -9.780   5.451 -33.319  1.00  0.00    -0.058 A 
HETATM   31  C   UNL     1     -10.090   4.739 -32.146  1.00  0.00     0.008 A 
HETATM   32  C   UNL     1      -9.107   4.028 -31.453  1.00  0.00     0.014 A 
BRANCH  30  33
HETATM   33  C   UNL     1     -10.917   6.131 -34.056  1.00  0.00     0.042 C 
BRANCH  33  34
HETATM   34  C   UNL     1     -12.138   5.270 -34.453  1.00  0.00    -0.019 C 
HETATM   35  C   UNL     1     -11.837   4.395 -35.675  1.00  0.00     0.010 C 
HETATM   36  C   UNL     1     -13.338   6.172 -34.770  1.00  0.00     0.010 C 
ENDBRANCH  33  34
ENDBRANCH  30  33
ENDBRANCH   1  27
TORSDOF 6
ENDMDL
