MODEL 1
REMARK VINA RESULT:      -9.4      0.000      0.000
REMARK  5 active torsions:
REMARK  status: ('A' for Active; 'I' for Inactive)
REMARK    1  A    between atoms: C_5  and  N_6 
REMARK       I    between atoms: N_6  and  C_7 
REMARK       I    between atoms: C_7  and  N_8 
REMARK    2  A    between atoms: N_8  and  C_9 
REMARK    3  A    between atoms: C_11  and  C_12 
REMARK       I    between atoms: C_12  and  N_13 
REMARK    4  A    between atoms: N_13  and  C_14 
REMARK    5  A    between atoms: C_14  and  C_15 
ROOT
HETATM    1  C   UNL     1      -5.008   2.629 -31.764  1.00  0.00     0.175 A 
HETATM    2  S   UNL     1      -3.380   2.732 -31.292  1.00  0.00    -0.044 SA
HETATM    3  C   UNL     1      -3.147   4.011 -32.420  1.00  0.00     0.100 A 
HETATM    4  C   UNL     1      -4.337   4.241 -33.103  1.00  0.00     0.056 A 
HETATM    5  C   UNL     1      -4.573   5.246 -34.175  1.00  0.00     0.072 C 
HETATM    6  N   UNL     1      -5.402   3.439 -32.712  1.00  0.00    -0.228 NA
ENDROOT
BRANCH   1   7
HETATM    7  N   UNL     1      -5.753   1.709 -31.089  1.00  0.00    -0.287 N 
HETATM    8  C   UNL     1      -6.044   0.440 -31.509  1.00  0.00     0.326 C 
HETATM    9  N   UNL     1      -5.504   0.047 -32.703  1.00  0.00    -0.309 N 
HETATM   10  O   UNL     1      -6.774  -0.237 -30.786  1.00  0.00    -0.247 OA
HETATM   11  H   UNL     1      -4.870   0.720 -33.129  1.00  0.00     0.170 HD
HETATM   12  H   UNL     1      -6.184   1.983 -30.219  1.00  0.00     0.172 HD
BRANCH   9  13
HETATM   13  C   UNL     1      -5.711  -1.151 -33.411  1.00  0.00     0.036 A 
HETATM   14  C   UNL     1      -6.957  -1.589 -33.858  1.00  0.00     0.030 A 
HETATM   15  C   UNL     1      -7.072  -2.781 -34.583  1.00  0.00     0.009 A 
HETATM   16  C   UNL     1      -5.942  -3.552 -34.876  1.00  0.00    -0.062 A 
HETATM   17  C   UNL     1      -6.082  -4.835 -35.639  1.00  0.00     0.048 C 
HETATM   18  C   UNL     1      -4.695  -3.122 -34.414  1.00  0.00     0.009 A 
HETATM   19  C   UNL     1      -4.581  -1.929 -33.693  1.00  0.00     0.030 A 
ENDBRANCH   9  13
ENDBRANCH   1   7
BRANCH   3  20
HETATM   20  C   UNL     1      -1.878   4.700 -32.576  1.00  0.00     0.260 C 
HETATM   21  N   UNL     1      -1.292   5.165 -31.418  1.00  0.00    -0.352 N 
HETATM   22  H   UNL     1      -1.807   5.101 -30.550  1.00  0.00     0.163 HD
HETATM   23  O   UNL     1      -1.347   4.882 -33.670  1.00  0.00    -0.267 OA
BRANCH  21  24
HETATM   24  C   UNL     1      -0.099   5.976 -31.459  1.00  0.00     0.161 C 
BRANCH  24  25
HETATM   25  C   UNL     1       0.304   6.415 -30.076  1.00  0.00    -0.040 A 
HETATM   26  C   UNL     1       0.403   5.472 -29.041  1.00  0.00     0.010 A 
HETATM   27  C   UNL     1       0.775   5.868 -27.754  1.00  0.00     0.024 A 
HETATM   28  C   UNL     1       1.049   7.209 -27.496  1.00  0.00     0.034 A 
HETATM   29 CL   UNL     1       1.514   7.697 -25.913  1.00  0.00    -0.084 Cl
HETATM   30  C   UNL     1       0.950   8.158 -28.512  1.00  0.00     0.024 A 
HETATM   31  C   UNL     1       0.575   7.763 -29.799  1.00  0.00     0.010 A 
ENDBRANCH  24  25
ENDBRANCH  21  24
ENDBRANCH   3  20
TORSDOF 5
ENDMDL
MODEL 2
REMARK VINA RESULT:      -9.4      3.673     10.427
REMARK  5 active torsions:
REMARK  status: ('A' for Active; 'I' for Inactive)
REMARK    1  A    between atoms: C_5  and  N_6 
REMARK       I    between atoms: N_6  and  C_7 
REMARK       I    between atoms: C_7  and  N_8 
REMARK    2  A    between atoms: N_8  and  C_9 
REMARK    3  A    between atoms: C_11  and  C_12 
REMARK       I    between atoms: C_12  and  N_13 
REMARK    4  A    between atoms: N_13  and  C_14 
REMARK    5  A    between atoms: C_14  and  C_15 
ROOT
HETATM    1  C   UNL     1      -3.358   5.322 -33.147  1.00  0.00     0.175 A 
HETATM    2  S   UNL     1      -4.876   5.009 -33.840  1.00  0.00    -0.044 SA
HETATM    3  C   UNL     1      -4.910   3.483 -33.046  1.00  0.00     0.100 A 
HETATM    4  C   UNL     1      -3.730   3.313 -32.331  1.00  0.00     0.056 A 
HETATM    5  C   UNL     1      -3.341   2.131 -31.514  1.00  0.00     0.072 C 
HETATM    6  N   UNL     1      -2.845   4.382 -32.395  1.00  0.00    -0.228 NA
ENDROOT
BRANCH   1   7
HETATM    7  N   UNL     1      -2.824   6.542 -33.438  1.00  0.00    -0.287 N 
HETATM    8  C   UNL     1      -2.058   7.309 -32.604  1.00  0.00     0.326 C 
HETATM    9  N   UNL     1      -1.770   6.782 -31.374  1.00  0.00    -0.309 N 
HETATM   10  O   UNL     1      -1.701   8.409 -33.022  1.00  0.00    -0.247 OA
HETATM   11  H   UNL     1      -2.095   5.829 -31.229  1.00  0.00     0.170 HD
HETATM   12  H   UNL     1      -3.044   6.962 -34.328  1.00  0.00     0.172 HD
BRANCH   9  13
HETATM   13  C   UNL     1      -1.093   7.382 -30.296  1.00  0.00     0.036 A 
HETATM   14  C   UNL     1      -1.651   8.355 -29.467  1.00  0.00     0.030 A 
HETATM   15  C   UNL     1      -0.917   8.879 -28.397  1.00  0.00     0.009 A 
HETATM   16  C   UNL     1       0.384   8.437 -28.135  1.00  0.00    -0.062 A 
HETATM   17  C   UNL     1       1.164   9.020 -26.996  1.00  0.00     0.048 C 
HETATM   18  C   UNL     1       0.949   7.475 -28.976  1.00  0.00     0.009 A 
HETATM   19  C   UNL     1       0.214   6.948 -30.044  1.00  0.00     0.030 A 
ENDBRANCH   9  13
ENDBRANCH   1   7
BRANCH   3  20
HETATM   20  C   UNL     1      -6.034   2.568 -33.148  1.00  0.00     0.260 C 
HETATM   21  N   UNL     1      -5.773   1.346 -33.729  1.00  0.00    -0.352 N 
HETATM   22  H   UNL     1      -4.864   1.186 -34.142  1.00  0.00     0.163 HD
HETATM   23  O   UNL     1      -7.165   2.853 -32.758  1.00  0.00    -0.267 OA
BRANCH  21  24
HETATM   24  C   UNL     1      -6.835   0.408 -34.004  1.00  0.00     0.161 C 
BRANCH  24  25
HETATM   25  C   UNL     1      -6.298  -0.993 -34.134  1.00  0.00    -0.040 A 
HETATM   26  C   UNL     1      -4.964  -1.268 -33.796  1.00  0.00     0.010 A 
HETATM   27  C   UNL     1      -4.455  -2.564 -33.912  1.00  0.00     0.024 A 
HETATM   28  C   UNL     1      -5.278  -3.590 -34.369  1.00  0.00     0.034 A 
HETATM   29 CL   UNL     1      -4.654  -5.188 -34.507  1.00  0.00    -0.084 Cl
HETATM   30  C   UNL     1      -6.603  -3.332 -34.714  1.00  0.00     0.024 A 
HETATM   31  C   UNL     1      -7.112  -2.036 -34.600  1.00  0.00     0.010 A 
ENDBRANCH  24  25
ENDBRANCH  21  24
ENDBRANCH   3  20
TORSDOF 5
ENDMDL
MODEL 3
REMARK VINA RESULT:      -9.2      3.507     10.346
REMARK  5 active torsions:
REMARK  status: ('A' for Active; 'I' for Inactive)
REMARK    1  A    between atoms: C_5  and  N_6 
REMARK       I    between atoms: N_6  and  C_7 
REMARK       I    between atoms: C_7  and  N_8 
REMARK    2  A    between atoms: N_8  and  C_9 
REMARK    3  A    between atoms: C_11  and  C_12 
REMARK       I    between atoms: C_12  and  N_13 
REMARK    4  A    between atoms: N_13  and  C_14 
REMARK    5  A    between atoms: C_14  and  C_15 
ROOT
HETATM    1  C   UNL     1      -2.420   4.766 -31.494  1.00  0.00     0.175 A 
HETATM    2  S   UNL     1      -3.099   3.298 -32.014  1.00  0.00    -0.044 SA
HETATM    3  C   UNL     1      -4.660   3.883 -31.585  1.00  0.00     0.100 A 
HETATM    4  C   UNL     1      -4.537   5.156 -31.039  1.00  0.00     0.056 A 
HETATM    5  C   UNL     1      -5.636   6.018 -30.522  1.00  0.00     0.072 C 
HETATM    6  N   UNL     1      -3.241   5.654 -30.996  1.00  0.00    -0.228 NA
ENDROOT
BRANCH   1   7
HETATM    7  N   UNL     1      -1.073   4.876 -31.662  1.00  0.00    -0.287 N 
HETATM    8  C   UNL     1      -0.192   5.441 -30.782  1.00  0.00     0.326 C 
HETATM    9  N   UNL     1      -0.711   5.908 -29.604  1.00  0.00    -0.309 N 
HETATM   10  O   UNL     1       0.988   5.495 -31.124  1.00  0.00    -0.247 OA
HETATM   11  H   UNL     1      -1.701   5.716 -29.468  1.00  0.00     0.170 HD
HETATM   12  H   UNL     1      -0.669   4.563 -32.532  1.00  0.00     0.172 HD
BRANCH   9  13
HETATM   13  C   UNL     1      -0.062   6.611 -28.573  1.00  0.00     0.036 A 
HETATM   14  C   UNL     1      -0.113   6.248 -27.228  1.00  0.00     0.030 A 
HETATM   15  C   UNL     1       0.588   6.986 -26.267  1.00  0.00     0.009 A 
HETATM   16  C   UNL     1       1.354   8.096 -26.637  1.00  0.00    -0.062 A 
HETATM   17  C   UNL     1       2.086   8.888 -25.595  1.00  0.00     0.048 C 
HETATM   18  C   UNL     1       1.391   8.471 -27.982  1.00  0.00     0.009 A 
HETATM   19  C   UNL     1       0.694   7.729 -28.942  1.00  0.00     0.030 A 
ENDBRANCH   9  13
ENDBRANCH   1   7
BRANCH   3  20
HETATM   20  C   UNL     1      -5.873   3.112 -31.794  1.00  0.00     0.260 C 
HETATM   21  N   UNL     1      -5.958   1.915 -31.116  1.00  0.00    -0.352 N 
HETATM   22  H   UNL     1      -5.151   1.587 -30.602  1.00  0.00     0.163 HD
HETATM   23  O   UNL     1      -6.779   3.481 -32.540  1.00  0.00    -0.267 OA
BRANCH  21  24
HETATM   24  C   UNL     1      -7.054   1.004 -31.344  1.00  0.00     0.161 C 
BRANCH  24  25
HETATM   25  C   UNL     1      -6.672  -0.063 -32.336  1.00  0.00    -0.040 A 
HETATM   26  C   UNL     1      -7.616  -0.527 -33.265  1.00  0.00     0.010 A 
HETATM   27  C   UNL     1      -7.274  -1.517 -34.190  1.00  0.00     0.024 A 
HETATM   28  C   UNL     1      -5.986  -2.047 -34.189  1.00  0.00     0.034 A 
HETATM   29 CL   UNL     1      -5.561  -3.261 -35.332  1.00  0.00    -0.084 Cl
HETATM   30  C   UNL     1      -5.039  -1.600 -33.269  1.00  0.00     0.024 A 
HETATM   31  C   UNL     1      -5.382  -0.613 -32.342  1.00  0.00     0.010 A 
ENDBRANCH  24  25
ENDBRANCH  21  24
ENDBRANCH   3  20
TORSDOF 5
ENDMDL
MODEL 4
REMARK VINA RESULT:      -9.0      1.859      2.429
REMARK  5 active torsions:
REMARK  status: ('A' for Active; 'I' for Inactive)
REMARK    1  A    between atoms: C_5  and  N_6 
REMARK       I    between atoms: N_6  and  C_7 
REMARK       I    between atoms: C_7  and  N_8 
REMARK    2  A    between atoms: N_8  and  C_9 
REMARK    3  A    between atoms: C_11  and  C_12 
REMARK       I    between atoms: C_12  and  N_13 
REMARK    4  A    between atoms: N_13  and  C_14 
REMARK    5  A    between atoms: C_14  and  C_15 
ROOT
HETATM    1  C   UNL     1      -4.525   4.613 -32.807  1.00  0.00     0.175 A 
HETATM    2  S   UNL     1      -3.706   4.670 -31.321  1.00  0.00    -0.044 SA
HETATM    3  C   UNL     1      -2.256   5.087 -32.150  1.00  0.00     0.100 A 
HETATM    4  C   UNL     1      -2.504   5.117 -33.517  1.00  0.00     0.056 A 
HETATM    5  C   UNL     1      -1.525   5.419 -34.598  1.00  0.00     0.072 C 
HETATM    6  N   UNL     1      -3.817   4.845 -33.883  1.00  0.00    -0.228 NA
ENDROOT
BRANCH   1   7
HETATM    7  N   UNL     1      -5.857   4.338 -32.729  1.00  0.00    -0.287 N 
HETATM    8  C   UNL     1      -6.451   3.132 -32.980  1.00  0.00     0.326 C 
HETATM    9  N   UNL     1      -5.621   2.093 -33.305  1.00  0.00    -0.309 N 
HETATM   10  O   UNL     1      -7.677   3.083 -32.904  1.00  0.00    -0.247 OA
HETATM   11  H   UNL     1      -4.628   2.306 -33.254  1.00  0.00     0.170 HD
HETATM   12  H   UNL     1      -6.491   5.093 -32.516  1.00  0.00     0.172 HD
BRANCH   9  13
HETATM   13  C   UNL     1      -5.960   0.786 -33.700  1.00  0.00     0.036 A 
HETATM   14  C   UNL     1      -6.910   0.487 -34.676  1.00  0.00     0.030 A 
HETATM   15  C   UNL     1      -7.167  -0.843 -35.032  1.00  0.00     0.009 A 
HETATM   16  C   UNL     1      -6.475  -1.893 -34.420  1.00  0.00    -0.062 A 
HETATM   17  C   UNL     1      -6.773  -3.313 -34.797  1.00  0.00     0.048 C 
HETATM   18  C   UNL     1      -5.536  -1.595 -33.429  1.00  0.00     0.009 A 
HETATM   19  C   UNL     1      -5.277  -0.265 -33.078  1.00  0.00     0.030 A 
ENDBRANCH   9  13
ENDBRANCH   1   7
BRANCH   3  20
HETATM   20  C   UNL     1      -1.006   5.356 -31.460  1.00  0.00     0.260 C 
HETATM   21  N   UNL     1      -0.860   6.623 -30.939  1.00  0.00    -0.352 N 
HETATM   22  H   UNL     1      -1.563   7.321 -31.145  1.00  0.00     0.163 HD
HETATM   23  O   UNL     1      -0.112   4.520 -31.349  1.00  0.00    -0.267 OA
BRANCH  21  24
HETATM   24  C   UNL     1       0.386   7.048 -30.348  1.00  0.00     0.161 C 
BRANCH  24  25
HETATM   25  C   UNL     1       0.146   7.853 -29.099  1.00  0.00    -0.040 A 
HETATM   26  C   UNL     1      -1.147   8.309 -28.795  1.00  0.00     0.010 A 
HETATM   27  C   UNL     1      -1.382   9.057 -27.638  1.00  0.00     0.024 A 
HETATM   28  C   UNL     1      -0.325   9.353 -26.781  1.00  0.00     0.034 A 
HETATM   29 CL   UNL     1      -0.614  10.269 -25.353  1.00  0.00    -0.084 Cl
HETATM   30  C   UNL     1       0.965   8.913 -27.072  1.00  0.00     0.024 A 
HETATM   31  C   UNL     1       1.201   8.167 -28.230  1.00  0.00     0.010 A 
ENDBRANCH  24  25
ENDBRANCH  21  24
ENDBRANCH   3  20
TORSDOF 5
ENDMDL
MODEL 5
REMARK VINA RESULT:      -8.5      3.679     10.175
REMARK  5 active torsions:
REMARK  status: ('A' for Active; 'I' for Inactive)
REMARK    1  A    between atoms: C_5  and  N_6 
REMARK       I    between atoms: N_6  and  C_7 
REMARK       I    between atoms: C_7  and  N_8 
REMARK    2  A    between atoms: N_8  and  C_9 
REMARK    3  A    between atoms: C_11  and  C_12 
REMARK       I    between atoms: C_12  and  N_13 
REMARK    4  A    between atoms: N_13  and  C_14 
REMARK    5  A    between atoms: C_14  and  C_15 
ROOT
HETATM    1  C   UNL     1      -4.519   6.149 -32.415  1.00  0.00     0.175 A 
HETATM    2  S   UNL     1      -5.180   5.059 -33.537  1.00  0.00    -0.044 SA
HETATM    3  C   UNL     1      -6.181   4.409 -32.296  1.00  0.00     0.100 A 
HETATM    4  C   UNL     1      -5.905   5.059 -31.098  1.00  0.00     0.056 A 
HETATM    5  C   UNL     1      -6.531   4.798 -29.773  1.00  0.00     0.072 C 
HETATM    6  N   UNL     1      -4.946   6.062 -31.182  1.00  0.00    -0.228 NA
ENDROOT
BRANCH   1   7
HETATM    7  N   UNL     1      -3.605   7.024 -32.922  1.00  0.00    -0.287 N 
HETATM    8  C   UNL     1      -2.534   7.550 -32.255  1.00  0.00     0.326 C 
HETATM    9  N   UNL     1      -2.342   7.128 -30.967  1.00  0.00    -0.309 N 
HETATM   10  O   UNL     1      -1.840   8.365 -32.861  1.00  0.00    -0.247 OA
HETATM   11  H   UNL     1      -2.979   6.399 -30.656  1.00  0.00     0.170 HD
HETATM   12  H   UNL     1      -3.740   7.369 -33.860  1.00  0.00     0.172 HD
BRANCH   9  13
HETATM   13  C   UNL     1      -1.391   7.569 -30.029  1.00  0.00     0.036 A 
HETATM   14  C   UNL     1      -1.630   8.565 -29.082  1.00  0.00     0.030 A 
HETATM   15  C   UNL     1      -0.637   8.924 -28.164  1.00  0.00     0.009 A 
HETATM   16  C   UNL     1       0.610   8.291 -28.174  1.00  0.00    -0.062 A 
HETATM   17  C   UNL     1       1.671   8.697 -27.196  1.00  0.00     0.048 C 
HETATM   18  C   UNL     1       0.857   7.305 -29.133  1.00  0.00     0.009 A 
HETATM   19  C   UNL     1      -0.138   6.944 -30.048  1.00  0.00     0.030 A 
ENDBRANCH   9  13
ENDBRANCH   1   7
BRANCH   3  20
HETATM   20  C   UNL     1      -7.145   3.349 -32.538  1.00  0.00     0.260 C 
HETATM   21  N   UNL     1      -6.738   2.072 -32.217  1.00  0.00    -0.352 N 
HETATM   22  H   UNL     1      -5.778   1.921 -31.937  1.00  0.00     0.163 HD
HETATM   23  O   UNL     1      -8.260   3.556 -33.013  1.00  0.00    -0.267 OA
BRANCH  21  24
HETATM   24  C   UNL     1      -7.557   0.926 -32.533  1.00  0.00     0.161 C 
BRANCH  24  25
HETATM   25  C   UNL     1      -6.718  -0.211 -33.052  1.00  0.00    -0.040 A 
HETATM   26  C   UNL     1      -5.413  -0.400 -32.569  1.00  0.00     0.010 A 
HETATM   27  C   UNL     1      -4.626  -1.451 -33.043  1.00  0.00     0.024 A 
HETATM   28  C   UNL     1      -5.139  -2.319 -34.005  1.00  0.00     0.034 A 
HETATM   29 CL   UNL     1      -4.172  -3.619 -34.585  1.00  0.00    -0.084 Cl
HETATM   30  C   UNL     1      -6.429  -2.142 -34.499  1.00  0.00     0.024 A 
HETATM   31  C   UNL     1      -7.217  -1.088 -34.026  1.00  0.00     0.010 A 
ENDBRANCH  24  25
ENDBRANCH  21  24
ENDBRANCH   3  20
TORSDOF 5
ENDMDL
MODEL 6
REMARK VINA RESULT:      -8.5      4.393     10.369
REMARK  5 active torsions:
REMARK  status: ('A' for Active; 'I' for Inactive)
REMARK    1  A    between atoms: C_5  and  N_6 
REMARK       I    between atoms: N_6  and  C_7 
REMARK       I    between atoms: C_7  and  N_8 
REMARK    2  A    between atoms: N_8  and  C_9 
REMARK    3  A    between atoms: C_11  and  C_12 
REMARK       I    between atoms: C_12  and  N_13 
REMARK    4  A    between atoms: N_13  and  C_14 
REMARK    5  A    between atoms: C_14  and  C_15 
ROOT
HETATM    1  C   UNL     1      -3.355   3.151 -32.718  1.00  0.00     0.175 A 
HETATM    2  S   UNL     1      -5.010   3.533 -32.750  1.00  0.00    -0.044 SA
HETATM    3  C   UNL     1      -5.337   2.136 -31.798  1.00  0.00     0.100 A 
HETATM    4  C   UNL     1      -4.147   1.460 -31.555  1.00  0.00     0.056 A 
HETATM    5  C   UNL     1      -3.978   0.196 -30.786  1.00  0.00     0.072 C 
HETATM    6  N   UNL     1      -3.012   2.057 -32.088  1.00  0.00    -0.228 NA
ENDROOT
BRANCH   1   7
HETATM    7  N   UNL     1      -2.540   4.041 -33.349  1.00  0.00    -0.287 N 
HETATM    8  C   UNL     1      -1.700   4.937 -32.747  1.00  0.00     0.326 C 
HETATM    9  N   UNL     1      -1.649   4.910 -31.379  1.00  0.00    -0.309 N 
HETATM   10  O   UNL     1      -1.071   5.698 -33.480  1.00  0.00    -0.247 OA
HETATM   11  H   UNL     1      -2.191   4.166 -30.945  1.00  0.00     0.170 HD
HETATM   12  H   UNL     1      -2.578   4.098 -34.356  1.00  0.00     0.172 HD
BRANCH   9  13
HETATM   13  C   UNL     1      -0.956   5.769 -30.507  1.00  0.00     0.036 A 
HETATM   14  C   UNL     1      -1.282   7.110 -30.309  1.00  0.00     0.030 A 
HETATM   15  C   UNL     1      -0.558   7.889 -29.398  1.00  0.00     0.009 A 
HETATM   16  C   UNL     1       0.501   7.338 -28.669  1.00  0.00    -0.062 A 
HETATM   17  C   UNL     1       1.279   8.188 -27.710  1.00  0.00     0.048 C 
HETATM   18  C   UNL     1       0.839   5.999 -28.880  1.00  0.00     0.009 A 
HETATM   19  C   UNL     1       0.112   5.220 -29.787  1.00  0.00     0.030 A 
ENDBRANCH   9  13
ENDBRANCH   1   7
BRANCH   3  20
HETATM   20  C   UNL     1      -6.674   1.786 -31.351  1.00  0.00     0.260 C 
HETATM   21  N   UNL     1      -7.439   1.055 -32.234  1.00  0.00    -0.352 N 
HETATM   22  H   UNL     1      -7.085   0.892 -33.168  1.00  0.00     0.163 HD
HETATM   23  O   UNL     1      -7.122   2.123 -30.256  1.00  0.00    -0.267 OA
BRANCH  21  24
HETATM   24  C   UNL     1      -8.824   0.760 -31.956  1.00  0.00     0.161 C 
BRANCH  24  25
HETATM   25  C   UNL     1      -9.728   1.391 -32.982  1.00  0.00    -0.040 A 
HETATM   26  C   UNL     1      -9.373   2.614 -33.574  1.00  0.00     0.010 A 
HETATM   27  C   UNL     1     -10.204   3.208 -34.527  1.00  0.00     0.024 A 
HETATM   28  C   UNL     1     -11.394   2.582 -34.892  1.00  0.00     0.034 A 
HETATM   29 CL   UNL     1     -12.415   3.311 -36.070  1.00  0.00    -0.084 Cl
HETATM   30  C   UNL     1     -11.762   1.371 -34.310  1.00  0.00     0.024 A 
HETATM   31  C   UNL     1     -10.933   0.778 -33.355  1.00  0.00     0.010 A 
ENDBRANCH  24  25
ENDBRANCH  21  24
ENDBRANCH   3  20
TORSDOF 5
ENDMDL
MODEL 7
REMARK VINA RESULT:      -8.5      3.770      9.942
REMARK  5 active torsions:
REMARK  status: ('A' for Active; 'I' for Inactive)
REMARK    1  A    between atoms: C_5  and  N_6 
REMARK       I    between atoms: N_6  and  C_7 
REMARK       I    between atoms: C_7  and  N_8 
REMARK    2  A    between atoms: N_8  and  C_9 
REMARK    3  A    between atoms: C_11  and  C_12 
REMARK       I    between atoms: C_12  and  N_13 
REMARK    4  A    between atoms: N_13  and  C_14 
REMARK    5  A    between atoms: C_14  and  C_15 
ROOT
HETATM    1  C   UNL     1      -5.772   5.771 -31.894  1.00  0.00     0.175 A 
HETATM    2  S   UNL     1      -6.263   5.061 -33.357  1.00  0.00    -0.044 SA
HETATM    3  C   UNL     1      -6.685   3.627 -32.504  1.00  0.00     0.100 A 
HETATM    4  C   UNL     1      -6.384   3.791 -31.157  1.00  0.00     0.056 A 
HETATM    5  C   UNL     1      -6.575   2.792 -30.069  1.00  0.00     0.072 C 
HETATM    6  N   UNL     1      -5.860   5.033 -30.818  1.00  0.00    -0.228 NA
ENDROOT
BRANCH   1   7
HETATM    7  N   UNL     1      -5.340   7.060 -31.989  1.00  0.00    -0.287 N 
HETATM    8  C   UNL     1      -4.189   7.569 -31.453  1.00  0.00     0.326 C 
HETATM    9  N   UNL     1      -3.376   6.688 -30.791  1.00  0.00    -0.309 N 
HETATM   10  O   UNL     1      -3.985   8.773 -31.600  1.00  0.00    -0.247 OA
HETATM   11  H   UNL     1      -3.676   5.717 -30.829  1.00  0.00     0.170 HD
HETATM   12  H   UNL     1      -5.934   7.733 -32.449  1.00  0.00     0.172 HD
BRANCH   9  13
HETATM   13  C   UNL     1      -2.196   6.951 -30.071  1.00  0.00     0.036 A 
HETATM   14  C   UNL     1      -0.915   6.873 -30.617  1.00  0.00     0.030 A 
HETATM   15  C   UNL     1       0.207   7.180 -29.839  1.00  0.00     0.009 A 
HETATM   16  C   UNL     1       0.066   7.573 -28.504  1.00  0.00    -0.062 A 
HETATM   17  C   UNL     1       1.277   7.882 -27.676  1.00  0.00     0.048 C 
HETATM   18  C   UNL     1      -1.216   7.634 -27.951  1.00  0.00     0.009 A 
HETATM   19  C   UNL     1      -2.337   7.331 -28.732  1.00  0.00     0.030 A 
ENDBRANCH   9  13
ENDBRANCH   1   7
BRANCH   3  20
HETATM   20  C   UNL     1      -7.268   2.467 -33.156  1.00  0.00     0.260 C 
HETATM   21  N   UNL     1      -6.392   1.646 -33.833  1.00  0.00    -0.352 N 
HETATM   22  H   UNL     1      -5.428   1.936 -33.932  1.00  0.00     0.163 HD
HETATM   23  O   UNL     1      -8.472   2.221 -33.131  1.00  0.00    -0.267 OA
BRANCH  21  24
HETATM   24  C   UNL     1      -6.868   0.539 -34.627  1.00  0.00     0.161 C 
BRANCH  24  25
HETATM   25  C   UNL     1      -6.046  -0.697 -34.379  1.00  0.00    -0.040 A 
HETATM   26  C   UNL     1      -6.429  -1.922 -34.949  1.00  0.00     0.010 A 
HETATM   27  C   UNL     1      -5.674  -3.076 -34.725  1.00  0.00     0.024 A 
HETATM   28  C   UNL     1      -4.533  -3.011 -33.929  1.00  0.00     0.034 A 
HETATM   29 CL   UNL     1      -3.599  -4.431 -33.657  1.00  0.00    -0.084 Cl
HETATM   30  C   UNL     1      -4.143  -1.805 -33.351  1.00  0.00     0.024 A 
HETATM   31  C   UNL     1      -4.899  -0.651 -33.573  1.00  0.00     0.010 A 
ENDBRANCH  24  25
ENDBRANCH  21  24
ENDBRANCH   3  20
TORSDOF 5
ENDMDL
MODEL 8
REMARK VINA RESULT:      -8.3      3.911     10.015
REMARK  5 active torsions:
REMARK  status: ('A' for Active; 'I' for Inactive)
REMARK    1  A    between atoms: C_5  and  N_6 
REMARK       I    between atoms: N_6  and  C_7 
REMARK       I    between atoms: C_7  and  N_8 
REMARK    2  A    between atoms: N_8  and  C_9 
REMARK    3  A    between atoms: C_11  and  C_12 
REMARK       I    between atoms: C_12  and  N_13 
REMARK    4  A    between atoms: N_13  and  C_14 
REMARK    5  A    between atoms: C_14  and  C_15 
ROOT
HETATM    1  C   UNL     1      -5.540   4.454 -30.549  1.00  0.00     0.175 A 
HETATM    2  S   UNL     1      -6.716   4.231 -31.754  1.00  0.00    -0.044 SA
HETATM    3  C   UNL     1      -5.877   2.829 -32.296  1.00  0.00     0.100 A 
HETATM    4  C   UNL     1      -4.731   2.656 -31.527  1.00  0.00     0.056 A 
HETATM    5  C   UNL     1      -3.714   1.579 -31.668  1.00  0.00     0.072 C 
HETATM    6  N   UNL     1      -4.551   3.599 -30.522  1.00  0.00    -0.228 NA
ENDROOT
BRANCH   1   7
HETATM    7  N   UNL     1      -5.754   5.509 -29.714  1.00  0.00    -0.287 N 
HETATM    8  C   UNL     1      -4.798   6.344 -29.204  1.00  0.00     0.326 C 
HETATM    9  N   UNL     1      -3.508   6.118 -29.602  1.00  0.00    -0.309 N 
HETATM   10  O   UNL     1      -5.174   7.218 -28.424  1.00  0.00    -0.247 OA
HETATM   11  H   UNL     1      -3.397   5.391 -30.304  1.00  0.00     0.170 HD
HETATM   12  H   UNL     1      -6.693   5.680 -29.386  1.00  0.00     0.172 HD
BRANCH   9  13
HETATM   13  C   UNL     1      -2.330   6.753 -29.167  1.00  0.00     0.036 A 
HETATM   14  C   UNL     1      -2.187   7.369 -27.925  1.00  0.00     0.030 A 
HETATM   15  C   UNL     1      -0.968   7.952 -27.558  1.00  0.00     0.009 A 
HETATM   16  C   UNL     1       0.128   7.924 -28.426  1.00  0.00    -0.062 A 
HETATM   17  C   UNL     1       1.422   8.568 -28.028  1.00  0.00     0.048 C 
HETATM   18  C   UNL     1      -0.020   7.322 -29.678  1.00  0.00     0.009 A 
HETATM   19  C   UNL     1      -1.237   6.736 -30.042  1.00  0.00     0.030 A 
ENDBRANCH   9  13
ENDBRANCH   1   7
BRANCH   3  20
HETATM   20  C   UNL     1      -6.355   2.000 -33.389  1.00  0.00     0.260 C 
HETATM   21  N   UNL     1      -6.859   0.765 -33.041  1.00  0.00    -0.352 N 
HETATM   22  H   UNL     1      -6.778   0.458 -32.081  1.00  0.00     0.163 HD
HETATM   23  O   UNL     1      -6.310   2.355 -34.565  1.00  0.00    -0.267 OA
BRANCH  21  24
HETATM   24  C   UNL     1      -7.242  -0.195 -34.047  1.00  0.00     0.161 C 
BRANCH  24  25
HETATM   25  C   UNL     1      -6.295  -1.366 -34.066  1.00  0.00    -0.040 A 
HETATM   26  C   UNL     1      -6.666  -2.558 -34.707  1.00  0.00     0.010 A 
HETATM   27  C   UNL     1      -5.796  -3.651 -34.731  1.00  0.00     0.024 A 
HETATM   28  C   UNL     1      -4.551  -3.556 -34.112  1.00  0.00     0.034 A 
HETATM   29 CL   UNL     1      -3.476  -4.900 -34.145  1.00  0.00    -0.084 Cl
HETATM   30  C   UNL     1      -4.172  -2.382 -33.466  1.00  0.00     0.024 A 
HETATM   31  C   UNL     1      -5.043  -1.289 -33.440  1.00  0.00     0.010 A 
ENDBRANCH  24  25
ENDBRANCH  21  24
ENDBRANCH   3  20
TORSDOF 5
ENDMDL
MODEL 9
REMARK VINA RESULT:      -7.7      4.324     10.195
REMARK  5 active torsions:
REMARK  status: ('A' for Active; 'I' for Inactive)
REMARK    1  A    between atoms: C_5  and  N_6 
REMARK       I    between atoms: N_6  and  C_7 
REMARK       I    between atoms: C_7  and  N_8 
REMARK    2  A    between atoms: N_8  and  C_9 
REMARK    3  A    between atoms: C_11  and  C_12 
REMARK       I    between atoms: C_12  and  N_13 
REMARK    4  A    between atoms: N_13  and  C_14 
REMARK    5  A    between atoms: C_14  and  C_15 
ROOT
HETATM    1  C   UNL     1      -5.476   5.189 -32.139  1.00  0.00     0.175 A 
HETATM    2  S   UNL     1      -6.909   4.388 -32.574  1.00  0.00    -0.044 SA
HETATM    3  C   UNL     1      -6.056   2.893 -32.583  1.00  0.00     0.100 A 
HETATM    4  C   UNL     1      -4.719   3.128 -32.283  1.00  0.00     0.056 A 
HETATM    5  C   UNL     1      -3.629   2.117 -32.200  1.00  0.00     0.072 C 
HETATM    6  N   UNL     1      -4.399   4.456 -32.026  1.00  0.00    -0.228 NA
ENDROOT
BRANCH   1   7
HETATM    7  N   UNL     1      -5.597   6.531 -31.937  1.00  0.00    -0.287 N 
HETATM    8  C   UNL     1      -5.140   7.230 -30.854  1.00  0.00     0.326 C 
HETATM    9  N   UNL     1      -4.465   6.517 -29.901  1.00  0.00    -0.309 N 
HETATM   10  O   UNL     1      -5.382   8.436 -30.821  1.00  0.00    -0.247 OA
HETATM   11  H   UNL     1      -4.303   5.540 -30.132  1.00  0.00     0.170 HD
HETATM   12  H   UNL     1      -6.113   7.074 -32.613  1.00  0.00     0.172 HD
BRANCH   9  13
HETATM   13  C   UNL     1      -3.975   6.955 -28.657  1.00  0.00     0.036 A 
HETATM   14  C   UNL     1      -2.660   7.363 -28.435  1.00  0.00     0.030 A 
HETATM   15  C   UNL     1      -2.261   7.814 -27.171  1.00  0.00     0.009 A 
HETATM   16  C   UNL     1      -3.172   7.868 -26.110  1.00  0.00    -0.062 A 
HETATM   17  C   UNL     1      -2.727   8.336 -24.758  1.00  0.00     0.048 C 
HETATM   18  C   UNL     1      -4.485   7.443 -26.328  1.00  0.00     0.009 A 
HETATM   19  C   UNL     1      -4.883   6.996 -27.593  1.00  0.00     0.030 A 
ENDBRANCH   9  13
ENDBRANCH   1   7
BRANCH   3  20
HETATM   20  C   UNL     1      -6.701   1.622 -32.864  1.00  0.00     0.260 C 
HETATM   21  N   UNL     1      -6.475   1.089 -34.115  1.00  0.00    -0.352 N 
HETATM   22  H   UNL     1      -5.973   1.641 -34.798  1.00  0.00     0.163 HD
HETATM   23  O   UNL     1      -7.421   1.045 -32.052  1.00  0.00    -0.267 OA
BRANCH  21  24
HETATM   24  C   UNL     1      -7.164  -0.100 -34.555  1.00  0.00     0.161 C 
BRANCH  24  25
HETATM   25  C   UNL     1      -6.284  -1.314 -34.426  1.00  0.00    -0.040 A 
HETATM   26  C   UNL     1      -5.003  -1.197 -33.863  1.00  0.00     0.010 A 
HETATM   27  C   UNL     1      -4.177  -2.316 -33.738  1.00  0.00     0.024 A 
HETATM   28  C   UNL     1      -4.628  -3.559 -34.177  1.00  0.00     0.034 A 
HETATM   29 CL   UNL     1      -3.614  -4.940 -34.019  1.00  0.00    -0.084 Cl
HETATM   30  C   UNL     1      -5.894  -3.691 -34.743  1.00  0.00     0.024 A 
HETATM   31  C   UNL     1      -6.719  -2.571 -34.871  1.00  0.00     0.010 A 
ENDBRANCH  24  25
ENDBRANCH  21  24
ENDBRANCH   3  20
TORSDOF 5
ENDMDL
MODEL 10
REMARK VINA RESULT:      -7.6      3.349      4.237
REMARK  5 active torsions:
REMARK  status: ('A' for Active; 'I' for Inactive)
REMARK    1  A    between atoms: C_5  and  N_6 
REMARK       I    between atoms: N_6  and  C_7 
REMARK       I    between atoms: C_7  and  N_8 
REMARK    2  A    between atoms: N_8  and  C_9 
REMARK    3  A    between atoms: C_11  and  C_12 
REMARK       I    between atoms: C_12  and  N_13 
REMARK    4  A    between atoms: N_13  and  C_14 
REMARK    5  A    between atoms: C_14  and  C_15 
ROOT
HETATM    1  C   UNL     1      -6.118   3.604 -30.408  1.00  0.00     0.175 A 
HETATM    2  S   UNL     1      -5.232   5.051 -30.479  1.00  0.00    -0.044 SA
HETATM    3  C   UNL     1      -3.918   4.197 -31.190  1.00  0.00     0.100 A 
HETATM    4  C   UNL     1      -4.247   2.850 -31.288  1.00  0.00     0.056 A 
HETATM    5  C   UNL     1      -3.393   1.757 -31.829  1.00  0.00     0.072 C 
HETATM    6  N   UNL     1      -5.520   2.522 -30.837  1.00  0.00    -0.228 NA
ENDROOT
BRANCH   1   7
HETATM    7  N   UNL     1      -7.383   3.719 -29.917  1.00  0.00    -0.287 N 
HETATM    8  C   UNL     1      -8.537   3.377 -30.567  1.00  0.00     0.326 C 
HETATM    9  N   UNL     1      -8.403   2.834 -31.817  1.00  0.00    -0.309 N 
HETATM   10  O   UNL     1      -9.597   3.595 -29.983  1.00  0.00    -0.247 OA
HETATM   11  H   UNL     1      -7.443   2.667 -32.110  1.00  0.00     0.170 HD
HETATM   12  H   UNL     1      -7.510   4.140 -29.009  1.00  0.00     0.172 HD
BRANCH   9  13
HETATM   13  C   UNL     1      -9.408   2.484 -32.737  1.00  0.00     0.036 A 
HETATM   14  C   UNL     1     -10.004   1.225 -32.802  1.00  0.00     0.030 A 
HETATM   15  C   UNL     1     -11.020   0.969 -33.730  1.00  0.00     0.009 A 
HETATM   16  C   UNL     1     -11.459   1.968 -34.604  1.00  0.00    -0.062 A 
HETATM   17  C   UNL     1     -12.536   1.675 -35.605  1.00  0.00     0.048 C 
HETATM   18  C   UNL     1     -10.851   3.225 -34.551  1.00  0.00     0.009 A 
HETATM   19  C   UNL     1      -9.838   3.481 -33.621  1.00  0.00     0.030 A 
ENDBRANCH   9  13
ENDBRANCH   1   7
BRANCH   3  20
HETATM   20  C   UNL     1      -2.687   4.850 -31.602  1.00  0.00     0.260 C 
HETATM   21  N   UNL     1      -1.861   5.288 -30.589  1.00  0.00    -0.352 N 
HETATM   22  H   UNL     1      -2.189   5.231 -29.633  1.00  0.00     0.163 HD
HETATM   23  O   UNL     1      -2.387   5.025 -32.782  1.00  0.00    -0.267 OA
BRANCH  21  24
HETATM   24  C   UNL     1      -0.678   6.064 -30.872  1.00  0.00     0.161 C 
BRANCH  24  25
HETATM   25  C   UNL     1      -0.456   7.115 -29.818  1.00  0.00    -0.040 A 
HETATM   26  C   UNL     1       0.774   7.187 -29.146  1.00  0.00     0.010 A 
HETATM   27  C   UNL     1       0.992   8.158 -28.166  1.00  0.00     0.024 A 
HETATM   28  C   UNL     1      -0.020   9.062 -27.853  1.00  0.00     0.034 A 
HETATM   29 CL   UNL     1       0.249  10.263 -26.650  1.00  0.00    -0.084 Cl
HETATM   30  C   UNL     1      -1.249   9.001 -28.507  1.00  0.00     0.024 A 
HETATM   31  C   UNL     1      -1.468   8.028 -29.486  1.00  0.00     0.010 A 
ENDBRANCH  24  25
ENDBRANCH  21  24
ENDBRANCH   3  20
TORSDOF 5
ENDMDL
