MODEL 1
REMARK VINA RESULT:      -8.6      0.000      0.000
REMARK  9 active torsions:
REMARK  status: ('A' for Active; 'I' for Inactive)
REMARK    1  A    between atoms: C_2  and  C_3 
REMARK    2  A    between atoms: C_3  and  C_4 
REMARK    3  A    between atoms: C_4  and  N_5 
REMARK    4  A    between atoms: C_9  and  C_10 
REMARK    5  A    between atoms: C_13  and  C_14 
REMARK    6  A    between atoms: C_14  and  O_15 
REMARK    7  A    between atoms: C_20  and  C_21 
REMARK       I    between atoms: C_21  and  N_22 
REMARK    8  A    between atoms: N_22  and  C_23 
REMARK    9  A    between atoms: C_24  and  O_25 
ROOT
HETATM    1  N   UNL     1      -4.727   3.474 -32.635  1.00  0.00    -0.303 N 
HETATM    2  C   UNL     1      -5.318   4.110 -33.726  1.00  0.00     0.323 C 
HETATM    3  O   UNL     1      -5.134   5.288 -34.027  1.00  0.00    -0.247 OA
HETATM    4  N   UNL     1      -6.119   3.352 -34.517  1.00  0.00    -0.330 N 
HETATM    5  C   UNL     1      -6.639   2.054 -34.171  1.00  0.00     0.160 C 
HETATM    6  C   UNL     1      -5.779   1.411 -33.128  1.00  0.00     0.059 C 
HETATM    7  C   UNL     1      -4.906   2.106 -32.368  1.00  0.00     0.026 C 
HETATM    8  C   UNL     1      -4.147   1.485 -31.218  1.00  0.00     0.069 C 
HETATM    9  H   UNL     1      -6.576   3.872 -35.254  1.00  0.00     0.165 HD
ENDROOT
BRANCH   6  10
HETATM   10  C   UNL     1      -5.985  -0.057 -32.992  1.00  0.00     0.256 C 
HETATM   11  N   UNL     1      -5.503  -0.761 -34.070  1.00  0.00    -0.321 N 
HETATM   12  H   UNL     1      -5.023  -0.252 -34.809  1.00  0.00     0.169 HD
HETATM   13  O   UNL     1      -6.563  -0.508 -32.013  1.00  0.00    -0.267 OA
BRANCH  11  14
HETATM   14  C   UNL     1      -5.546  -2.157 -34.285  1.00  0.00     0.068 A 
HETATM   15  C   UNL     1      -4.414  -2.900 -33.890  1.00  0.00     0.095 A 
HETATM   16  C   UNL     1      -4.389  -4.285 -34.085  1.00  0.00     0.039 A 
HETATM   17  C   UNL     1      -5.484  -4.931 -34.662  1.00  0.00     0.003 A 
HETATM   18  C   UNL     1      -6.605  -4.199 -35.044  1.00  0.00     0.002 A 
HETATM   19  C   UNL     1      -6.637  -2.816 -34.857  1.00  0.00     0.032 A 
BRANCH  15  20
HETATM   20  O   UNL     1      -3.394  -2.167 -33.325  1.00  0.00    -0.354 OA
HETATM   21  C   UNL     1      -3.142  -2.383 -31.941  1.00  0.00     0.210 C 
ENDBRANCH  15  20
ENDBRANCH  11  14
ENDBRANCH   6  10
BRANCH   5  22
HETATM   22  C   UNL     1      -8.109   2.155 -33.791  1.00  0.00    -0.031 A 
HETATM   23  C   UNL     1      -8.530   3.144 -32.887  1.00  0.00     0.010 A 
HETATM   24  C   UNL     1      -9.885   3.307 -32.588  1.00  0.00     0.018 A 
HETATM   25  C   UNL     1     -10.846   2.485 -33.188  1.00  0.00     0.039 A 
HETATM   26  C   UNL     1     -10.434   1.475 -34.064  1.00  0.00     0.018 A 
HETATM   27  C   UNL     1      -9.077   1.309 -34.359  1.00  0.00     0.010 A 
BRANCH  25  28
HETATM   28  C   UNL     1     -12.279   2.744 -32.883  1.00  0.00     0.292 C 
HETATM   29  O   UNL     1     -12.687   3.779 -32.381  1.00  0.00    -0.259 OA
BRANCH  28  30
HETATM   30  O   UNL     1     -13.047   1.697 -33.278  1.00  0.00    -0.323 OA
HETATM   31  C   UNL     1     -14.443   1.882 -33.039  1.00  0.00     0.213 C 
ENDBRANCH  28  30
ENDBRANCH  25  28
ENDBRANCH   5  22
BRANCH   1  32
HETATM   32  C   UNL     1      -3.794   4.296 -31.852  1.00  0.00     0.133 C 
BRANCH  32  33
HETATM   33  C   UNL     1      -2.349   4.149 -32.339  1.00  0.00     0.020 C 
BRANCH  33  34
HETATM   34  C   UNL     1      -1.859   5.427 -33.018  1.00  0.00    -0.003 C 
HETATM   35  C   UNL     1      -1.612   5.211 -34.503  1.00  0.00     0.005 C 
ENDBRANCH  33  34
ENDBRANCH  32  33
ENDBRANCH   1  32
TORSDOF 9
ENDMDL
MODEL 2
REMARK VINA RESULT:      -8.6      2.432      6.360
REMARK  9 active torsions:
REMARK  status: ('A' for Active; 'I' for Inactive)
REMARK    1  A    between atoms: C_2  and  C_3 
REMARK    2  A    between atoms: C_3  and  C_4 
REMARK    3  A    between atoms: C_4  and  N_5 
REMARK    4  A    between atoms: C_9  and  C_10 
REMARK    5  A    between atoms: C_13  and  C_14 
REMARK    6  A    between atoms: C_14  and  O_15 
REMARK    7  A    between atoms: C_20  and  C_21 
REMARK       I    between atoms: C_21  and  N_22 
REMARK    8  A    between atoms: N_22  and  C_23 
REMARK    9  A    between atoms: C_24  and  O_25 
ROOT
HETATM    1  N   UNL     1      -8.229   3.473 -30.745  1.00  0.00    -0.303 N 
HETATM    2  C   UNL     1      -7.198   3.748 -29.847  1.00  0.00     0.323 C 
HETATM    3  O   UNL     1      -7.320   4.443 -28.840  1.00  0.00    -0.247 OA
HETATM    4  N   UNL     1      -5.996   3.170 -30.099  1.00  0.00    -0.330 N 
HETATM    5  C   UNL     1      -5.617   2.552 -31.344  1.00  0.00     0.160 C 
HETATM    6  C   UNL     1      -6.834   2.131 -32.107  1.00  0.00     0.059 C 
HETATM    7  C   UNL     1      -8.067   2.614 -31.844  1.00  0.00     0.026 C 
HETATM    8  C   UNL     1      -9.268   2.302 -32.706  1.00  0.00     0.069 C 
HETATM    9  H   UNL     1      -5.265   3.451 -29.460  1.00  0.00     0.165 HD
ENDROOT
BRANCH   6  10
HETATM   10  C   UNL     1      -6.560   1.147 -33.191  1.00  0.00     0.256 C 
HETATM   11  N   UNL     1      -6.400  -0.133 -32.715  1.00  0.00    -0.321 N 
HETATM   12  H   UNL     1      -6.527  -0.302 -31.720  1.00  0.00     0.169 HD
HETATM   13  O   UNL     1      -6.467   1.522 -34.351  1.00  0.00    -0.267 OA
BRANCH  11  14
HETATM   14  C   UNL     1      -6.112  -1.303 -33.453  1.00  0.00     0.068 A 
HETATM   15  C   UNL     1      -4.758  -1.694 -33.531  1.00  0.00     0.095 A 
HETATM   16  C   UNL     1      -4.406  -2.836 -34.256  1.00  0.00     0.039 A 
HETATM   17  C   UNL     1      -5.390  -3.593 -34.894  1.00  0.00     0.003 A 
HETATM   18  C   UNL     1      -6.726  -3.212 -34.811  1.00  0.00     0.002 A 
HETATM   19  C   UNL     1      -7.088  -2.071 -34.093  1.00  0.00     0.032 A 
BRANCH  15  20
HETATM   20  O   UNL     1      -3.871  -0.883 -32.859  1.00  0.00    -0.354 OA
HETATM   21  C   UNL     1      -2.971  -1.524 -31.962  1.00  0.00     0.210 C 
ENDBRANCH  15  20
ENDBRANCH  11  14
ENDBRANCH   6  10
BRANCH   5  22
HETATM   22  C   UNL     1      -4.677   3.462 -32.123  1.00  0.00    -0.031 A 
HETATM   23  C   UNL     1      -3.295   3.215 -32.111  1.00  0.00     0.010 A 
HETATM   24  C   UNL     1      -2.425   3.988 -32.884  1.00  0.00     0.018 A 
HETATM   25  C   UNL     1      -2.921   5.022 -33.686  1.00  0.00     0.039 A 
HETATM   26  C   UNL     1      -4.293   5.299 -33.679  1.00  0.00     0.018 A 
HETATM   27  C   UNL     1      -5.162   4.528 -32.901  1.00  0.00     0.010 A 
BRANCH  25  28
HETATM   28  C   UNL     1      -1.958   5.773 -34.537  1.00  0.00     0.292 C 
HETATM   29  O   UNL     1      -1.220   5.241 -35.352  1.00  0.00    -0.259 OA
BRANCH  28  30
HETATM   30  O   UNL     1      -2.056   7.106 -34.307  1.00  0.00    -0.323 OA
HETATM   31  C   UNL     1      -1.380   7.539 -33.125  1.00  0.00     0.213 C 
ENDBRANCH  28  30
ENDBRANCH  25  28
ENDBRANCH   5  22
BRANCH   1  32
HETATM   32  C   UNL     1      -9.540   4.038 -30.395  1.00  0.00     0.133 C 
BRANCH  32  33
HETATM   33  C   UNL     1      -9.785   5.389 -31.074  1.00  0.00     0.020 C 
BRANCH  33  34
HETATM   34  C   UNL     1     -11.169   5.444 -31.719  1.00  0.00    -0.003 C 
HETATM   35  C   UNL     1     -12.120   4.442 -31.083  1.00  0.00     0.005 C 
ENDBRANCH  33  34
ENDBRANCH  32  33
ENDBRANCH   1  32
TORSDOF 9
ENDMDL
MODEL 3
REMARK VINA RESULT:      -8.5      2.142      6.275
REMARK  9 active torsions:
REMARK  status: ('A' for Active; 'I' for Inactive)
REMARK    1  A    between atoms: C_2  and  C_3 
REMARK    2  A    between atoms: C_3  and  C_4 
REMARK    3  A    between atoms: C_4  and  N_5 
REMARK    4  A    between atoms: C_9  and  C_10 
REMARK    5  A    between atoms: C_13  and  C_14 
REMARK    6  A    between atoms: C_14  and  O_15 
REMARK    7  A    between atoms: C_20  and  C_21 
REMARK       I    between atoms: C_21  and  N_22 
REMARK    8  A    between atoms: N_22  and  C_23 
REMARK    9  A    between atoms: C_24  and  O_25 
ROOT
HETATM    1  N   UNL     1      -3.993   4.517 -32.523  1.00  0.00    -0.303 N 
HETATM    2  C   UNL     1      -3.156   3.768 -31.696  1.00  0.00     0.323 C 
HETATM    3  O   UNL     1      -1.956   3.988 -31.539  1.00  0.00    -0.247 OA
HETATM    4  N   UNL     1      -3.731   2.757 -30.997  1.00  0.00    -0.330 N 
HETATM    5  C   UNL     1      -5.039   2.209 -31.252  1.00  0.00     0.160 C 
HETATM    6  C   UNL     1      -5.888   3.209 -31.974  1.00  0.00     0.059 C 
HETATM    7  C   UNL     1      -5.374   4.278 -32.618  1.00  0.00     0.026 C 
HETATM    8  C   UNL     1      -6.214   5.203 -33.468  1.00  0.00     0.069 C 
HETATM    9  H   UNL     1      -3.074   2.203 -30.464  1.00  0.00     0.165 HD
ENDROOT
BRANCH   6  10
HETATM   10  C   UNL     1      -7.346   2.908 -31.934  1.00  0.00     0.256 C 
HETATM   11  N   UNL     1      -7.826   2.458 -33.141  1.00  0.00    -0.321 N 
HETATM   12  H   UNL     1      -7.171   2.325 -33.907  1.00  0.00     0.169 HD
HETATM   13  O   UNL     1      -7.985   3.101 -30.909  1.00  0.00    -0.267 OA
BRANCH  11  14
HETATM   14  C   UNL     1      -9.154   2.101 -33.468  1.00  0.00     0.068 A 
HETATM   15  C   UNL     1      -9.907   3.040 -34.203  1.00  0.00     0.095 A 
HETATM   16  C   UNL     1     -11.231   2.752 -34.548  1.00  0.00     0.039 A 
HETATM   17  C   UNL     1     -11.804   1.535 -34.173  1.00  0.00     0.003 A 
HETATM   18  C   UNL     1     -11.058   0.604 -33.455  1.00  0.00     0.002 A 
HETATM   19  C   UNL     1      -9.738   0.885 -33.103  1.00  0.00     0.032 A 
BRANCH  15  20
HETATM   20  O   UNL     1      -9.245   4.203 -34.528  1.00  0.00    -0.354 OA
HETATM   21  C   UNL     1     -10.042   5.281 -35.006  1.00  0.00     0.210 C 
ENDBRANCH  15  20
ENDBRANCH  11  14
ENDBRANCH   6  10
BRANCH   5  22
HETATM   22  C   UNL     1      -4.923   0.865 -31.958  1.00  0.00    -0.031 A 
HETATM   23  C   UNL     1      -6.030   0.003 -32.004  1.00  0.00     0.010 A 
HETATM   24  C   UNL     1      -5.968  -1.198 -32.716  1.00  0.00     0.018 A 
HETATM   25  C   UNL     1      -4.800  -1.558 -33.397  1.00  0.00     0.039 A 
HETATM   26  C   UNL     1      -3.680  -0.722 -33.329  1.00  0.00     0.018 A 
HETATM   27  C   UNL     1      -3.740   0.477 -32.611  1.00  0.00     0.010 A 
BRANCH  25  28
HETATM   28  C   UNL     1      -4.811  -2.817 -34.192  1.00  0.00     0.292 C 
HETATM   29  O   UNL     1      -3.933  -3.663 -34.129  1.00  0.00    -0.259 OA
BRANCH  28  30
HETATM   30  O   UNL     1      -5.937  -2.896 -34.944  1.00  0.00    -0.323 OA
HETATM   31  C   UNL     1      -6.441  -4.224 -35.090  1.00  0.00     0.213 C 
ENDBRANCH  28  30
ENDBRANCH  25  28
ENDBRANCH   5  22
BRANCH   1  32
HETATM   32  C   UNL     1      -3.361   5.661 -33.195  1.00  0.00     0.133 C 
BRANCH  32  33
HETATM   33  C   UNL     1      -2.742   5.268 -34.540  1.00  0.00     0.020 C 
BRANCH  33  34
HETATM   34  C   UNL     1      -1.277   5.694 -34.623  1.00  0.00    -0.003 C 
HETATM   35  C   UNL     1      -0.965   6.811 -33.640  1.00  0.00     0.005 C 
ENDBRANCH  33  34
ENDBRANCH  32  33
ENDBRANCH   1  32
TORSDOF 9
ENDMDL
MODEL 4
REMARK VINA RESULT:      -8.0      2.147      6.237
REMARK  9 active torsions:
REMARK  status: ('A' for Active; 'I' for Inactive)
REMARK    1  A    between atoms: C_2  and  C_3 
REMARK    2  A    between atoms: C_3  and  C_4 
REMARK    3  A    between atoms: C_4  and  N_5 
REMARK    4  A    between atoms: C_9  and  C_10 
REMARK    5  A    between atoms: C_13  and  C_14 
REMARK    6  A    between atoms: C_14  and  O_15 
REMARK    7  A    between atoms: C_20  and  C_21 
REMARK       I    between atoms: C_21  and  N_22 
REMARK    8  A    between atoms: N_22  and  C_23 
REMARK    9  A    between atoms: C_24  and  O_25 
ROOT
HETATM    1  N   UNL     1      -9.297   3.208 -31.946  1.00  0.00    -0.303 N 
HETATM    2  C   UNL     1      -8.684   4.094 -31.061  1.00  0.00     0.323 C 
HETATM    3  O   UNL     1      -9.148   5.186 -30.736  1.00  0.00    -0.247 OA
HETATM    4  N   UNL     1      -7.515   3.690 -30.502  1.00  0.00    -0.330 N 
HETATM    5  C   UNL     1      -6.716   2.581 -30.958  1.00  0.00     0.160 C 
HETATM    6  C   UNL     1      -7.562   1.613 -31.726  1.00  0.00     0.059 C 
HETATM    7  C   UNL     1      -8.770   1.939 -32.235  1.00  0.00     0.026 C 
HETATM    8  C   UNL     1      -9.556   1.012 -33.132  1.00  0.00     0.069 C 
HETATM    9  H   UNL     1      -7.076   4.391 -29.921  1.00  0.00     0.165 HD
ENDROOT
BRANCH   6  10
HETATM   10  C   UNL     1      -6.945   0.268 -31.894  1.00  0.00     0.256 C 
HETATM   11  N   UNL     1      -6.744  -0.059 -33.214  1.00  0.00    -0.321 N 
HETATM   12  H   UNL     1      -6.973   0.629 -33.927  1.00  0.00     0.169 HD
HETATM   13  O   UNL     1      -6.707  -0.425 -30.915  1.00  0.00    -0.267 OA
BRANCH  11  14
HETATM   14  C   UNL     1      -6.203  -1.254 -33.738  1.00  0.00     0.068 A 
HETATM   15  C   UNL     1      -4.797  -1.380 -33.723  1.00  0.00     0.095 A 
HETATM   16  C   UNL     1      -4.198  -2.534 -34.238  1.00  0.00     0.039 A 
HETATM   17  C   UNL     1      -4.987  -3.562 -34.758  1.00  0.00     0.003 A 
HETATM   18  C   UNL     1      -6.374  -3.441 -34.766  1.00  0.00     0.002 A 
HETATM   19  C   UNL     1      -6.981  -2.291 -34.259  1.00  0.00     0.032 A 
BRANCH  15  20
HETATM   20  O   UNL     1      -4.115  -0.314 -33.180  1.00  0.00    -0.354 OA
HETATM   21  C   UNL     1      -3.152  -0.615 -32.177  1.00  0.00     0.210 C 
ENDBRANCH  15  20
ENDBRANCH  11  14
ENDBRANCH   6  10
BRANCH   5  22
HETATM   22  C   UNL     1      -5.496   3.082 -31.719  1.00  0.00    -0.031 A 
HETATM   23  C   UNL     1      -5.665   3.796 -32.915  1.00  0.00     0.010 A 
HETATM   24  C   UNL     1      -4.563   4.336 -33.585  1.00  0.00     0.018 A 
HETATM   25  C   UNL     1      -3.272   4.172 -33.069  1.00  0.00     0.039 A 
HETATM   26  C   UNL     1      -3.091   3.433 -31.895  1.00  0.00     0.018 A 
HETATM   27  C   UNL     1      -4.193   2.889 -31.229  1.00  0.00     0.010 A 
BRANCH  25  28
HETATM   28  C   UNL     1      -2.142   4.821 -33.788  1.00  0.00     0.292 C 
HETATM   29  O   UNL     1      -1.961   4.722 -34.992  1.00  0.00    -0.259 OA
BRANCH  28  30
HETATM   30  O   UNL     1      -1.389   5.554 -32.930  1.00  0.00    -0.323 OA
HETATM   31  C   UNL     1      -1.058   6.854 -33.420  1.00  0.00     0.213 C 
ENDBRANCH  28  30
ENDBRANCH  25  28
ENDBRANCH   5  22
BRANCH   1  32
HETATM   32  C   UNL     1     -10.606   3.634 -32.463  1.00  0.00     0.133 C 
BRANCH  32  33
HETATM   33  C   UNL     1     -10.472   4.583 -33.658  1.00  0.00     0.020 C 
BRANCH  33  34
HETATM   34  C   UNL     1     -10.765   3.863 -34.974  1.00  0.00    -0.003 C 
HETATM   35  C   UNL     1     -12.119   3.172 -34.941  1.00  0.00     0.005 C 
ENDBRANCH  33  34
ENDBRANCH  32  33
ENDBRANCH   1  32
TORSDOF 9
ENDMDL
MODEL 5
REMARK VINA RESULT:      -8.0      2.162      6.972
REMARK  9 active torsions:
REMARK  status: ('A' for Active; 'I' for Inactive)
REMARK    1  A    between atoms: C_2  and  C_3 
REMARK    2  A    between atoms: C_3  and  C_4 
REMARK    3  A    between atoms: C_4  and  N_5 
REMARK    4  A    between atoms: C_9  and  C_10 
REMARK    5  A    between atoms: C_13  and  C_14 
REMARK    6  A    between atoms: C_14  and  O_15 
REMARK    7  A    between atoms: C_20  and  C_21 
REMARK       I    between atoms: C_21  and  N_22 
REMARK    8  A    between atoms: N_22  and  C_23 
REMARK    9  A    between atoms: C_24  and  O_25 
ROOT
HETATM    1  N   UNL     1      -6.423   3.590 -31.688  1.00  0.00    -0.303 N 
HETATM    2  C   UNL     1      -6.093   2.613 -30.749  1.00  0.00     0.323 C 
HETATM    3  O   UNL     1      -5.210   2.732 -29.902  1.00  0.00    -0.247 OA
HETATM    4  N   UNL     1      -6.833   1.475 -30.764  1.00  0.00    -0.330 N 
HETATM    5  C   UNL     1      -7.714   1.071 -31.831  1.00  0.00     0.160 C 
HETATM    6  C   UNL     1      -8.141   2.262 -32.630  1.00  0.00     0.059 C 
HETATM    7  C   UNL     1      -7.489   3.443 -32.591  1.00  0.00     0.026 C 
HETATM    8  C   UNL     1      -7.830   4.597 -33.506  1.00  0.00     0.069 C 
HETATM    9  H   UNL     1      -6.515   0.772 -30.112  1.00  0.00     0.165 HD
ENDROOT
BRANCH   6  10
HETATM   10  C   UNL     1      -9.337   2.022 -33.485  1.00  0.00     0.256 C 
HETATM   11  N   UNL     1     -10.473   1.781 -32.748  1.00  0.00    -0.321 N 
HETATM   12  H   UNL     1     -10.417   1.836 -31.734  1.00  0.00     0.169 HD
HETATM   13  O   UNL     1      -9.231   2.019 -34.703  1.00  0.00    -0.267 OA
BRANCH  11  14
HETATM   14  C   UNL     1     -11.772   1.497 -33.225  1.00  0.00     0.068 A 
HETATM   15  C   UNL     1     -12.645   2.592 -33.397  1.00  0.00     0.095 A 
HETATM   16  C   UNL     1     -13.948   2.377 -33.856  1.00  0.00     0.039 A 
HETATM   17  C   UNL     1     -14.383   1.083 -34.151  1.00  0.00     0.003 A 
HETATM   18  C   UNL     1     -13.520   0.003 -33.989  1.00  0.00     0.002 A 
HETATM   19  C   UNL     1     -12.219   0.208 -33.527  1.00  0.00     0.032 A 
BRANCH  15  20
HETATM   20  O   UNL     1     -12.114   3.824 -33.086  1.00  0.00    -0.354 OA
HETATM   21  C   UNL     1     -13.025   4.915 -33.019  1.00  0.00     0.210 C 
ENDBRANCH  15  20
ENDBRANCH  11  14
ENDBRANCH   6  10
BRANCH   5  22
HETATM   22  C   UNL     1      -7.074  -0.037 -32.656  1.00  0.00    -0.031 A 
HETATM   23  C   UNL     1      -5.696  -0.284 -32.544  1.00  0.00     0.010 A 
HETATM   24  C   UNL     1      -5.105  -1.348 -33.230  1.00  0.00     0.018 A 
HETATM   25  C   UNL     1      -5.880  -2.186 -34.040  1.00  0.00     0.039 A 
HETATM   26  C   UNL     1      -7.247  -1.927 -34.185  1.00  0.00     0.018 A 
HETATM   27  C   UNL     1      -7.838  -0.859 -33.503  1.00  0.00     0.010 A 
BRANCH  25  28
HETATM   28  C   UNL     1      -5.210  -3.342 -34.696  1.00  0.00     0.292 C 
HETATM   29  O   UNL     1      -5.751  -4.051 -35.531  1.00  0.00    -0.259 OA
BRANCH  28  30
HETATM   30  O   UNL     1      -3.928  -3.456 -34.269  1.00  0.00    -0.323 OA
HETATM   31  C   UNL     1      -3.582  -4.769 -33.826  1.00  0.00     0.213 C 
ENDBRANCH  28  30
ENDBRANCH  25  28
ENDBRANCH   5  22
BRANCH   1  32
HETATM   32  C   UNL     1      -5.666   4.846 -31.587  1.00  0.00     0.133 C 
BRANCH  32  33
HETATM   33  C   UNL     1      -4.348   4.788 -32.366  1.00  0.00     0.020 C 
BRANCH  33  34
HETATM   34  C   UNL     1      -4.289   5.874 -33.438  1.00  0.00    -0.003 C 
HETATM   35  C   UNL     1      -3.837   5.313 -34.777  1.00  0.00     0.005 C 
ENDBRANCH  33  34
ENDBRANCH  32  33
ENDBRANCH   1  32
TORSDOF 9
ENDMDL
MODEL 6
REMARK VINA RESULT:      -7.4      1.789      2.969
REMARK  9 active torsions:
REMARK  status: ('A' for Active; 'I' for Inactive)
REMARK    1  A    between atoms: C_2  and  C_3 
REMARK    2  A    between atoms: C_3  and  C_4 
REMARK    3  A    between atoms: C_4  and  N_5 
REMARK    4  A    between atoms: C_9  and  C_10 
REMARK    5  A    between atoms: C_13  and  C_14 
REMARK    6  A    between atoms: C_14  and  O_15 
REMARK    7  A    between atoms: C_20  and  C_21 
REMARK       I    between atoms: C_21  and  N_22 
REMARK    8  A    between atoms: N_22  and  C_23 
REMARK    9  A    between atoms: C_24  and  O_25 
ROOT
HETATM    1  N   UNL     1      -5.747   4.110 -32.052  1.00  0.00    -0.303 N 
HETATM    2  C   UNL     1      -6.167   4.400 -33.350  1.00  0.00     0.323 C 
HETATM    3  O   UNL     1      -6.291   5.536 -33.804  1.00  0.00    -0.247 OA
HETATM    4  N   UNL     1      -6.414   3.342 -34.164  1.00  0.00    -0.330 N 
HETATM    5  C   UNL     1      -6.567   1.977 -33.728  1.00  0.00     0.160 C 
HETATM    6  C   UNL     1      -5.890   1.775 -32.409  1.00  0.00     0.059 C 
HETATM    7  C   UNL     1      -5.548   2.797 -31.596  1.00  0.00     0.026 C 
HETATM    8  C   UNL     1      -5.000   2.587 -30.204  1.00  0.00     0.069 C 
HETATM    9  H   UNL     1      -6.778   3.601 -35.071  1.00  0.00     0.165 HD
ENDROOT
BRANCH   6  10
HETATM   10  C   UNL     1      -5.644   0.346 -32.066  1.00  0.00     0.256 C 
HETATM   11  N   UNL     1      -4.649  -0.217 -32.830  1.00  0.00    -0.321 N 
HETATM   12  H   UNL     1      -4.153   0.371 -33.495  1.00  0.00     0.169 HD
HETATM   13  O   UNL     1      -6.322  -0.205 -31.211  1.00  0.00    -0.267 OA
BRANCH  11  14
HETATM   14  C   UNL     1      -4.172  -1.546 -32.789  1.00  0.00     0.068 A 
HETATM   15  C   UNL     1      -4.647  -2.428 -33.783  1.00  0.00     0.095 A 
HETATM   16  C   UNL     1      -4.222  -3.760 -33.791  1.00  0.00     0.039 A 
HETATM   17  C   UNL     1      -3.324  -4.215 -32.823  1.00  0.00     0.003 A 
HETATM   18  C   UNL     1      -2.849  -3.343 -31.847  1.00  0.00     0.002 A 
HETATM   19  C   UNL     1      -3.270  -2.013 -31.829  1.00  0.00     0.032 A 
BRANCH  15  20
HETATM   20  O   UNL     1      -5.521  -1.876 -34.692  1.00  0.00    -0.354 OA
HETATM   21  C   UNL     1      -6.792  -2.503 -34.820  1.00  0.00     0.210 C 
ENDBRANCH  15  20
ENDBRANCH  11  14
ENDBRANCH   6  10
BRANCH   5  22
HETATM   22  C   UNL     1      -8.036   1.577 -33.743  1.00  0.00    -0.031 A 
HETATM   23  C   UNL     1      -8.423   0.325 -33.240  1.00  0.00     0.010 A 
HETATM   24  C   UNL     1      -9.774  -0.028 -33.169  1.00  0.00     0.018 A 
HETATM   25  C   UNL     1     -10.762   0.865 -33.599  1.00  0.00     0.039 A 
HETATM   26  C   UNL     1     -10.384   2.101 -34.134  1.00  0.00     0.018 A 
HETATM   27  C   UNL     1      -9.032   2.452 -34.209  1.00  0.00     0.010 A 
BRANCH  25  28
HETATM   28  C   UNL     1     -12.186   0.464 -33.442  1.00  0.00     0.292 C 
HETATM   29  O   UNL     1     -12.546  -0.685 -33.233  1.00  0.00    -0.259 OA
BRANCH  28  30
HETATM   30  O   UNL     1     -12.999   1.547 -33.521  1.00  0.00    -0.323 OA
HETATM   31  C   UNL     1     -14.376   1.255 -33.283  1.00  0.00     0.213 C 
ENDBRANCH  28  30
ENDBRANCH  25  28
ENDBRANCH   5  22
BRANCH   1  32
HETATM   32  C   UNL     1      -5.399   5.274 -31.225  1.00  0.00     0.133 C 
BRANCH  32  33
HETATM   33  C   UNL     1      -6.411   5.504 -30.098  1.00  0.00     0.020 C 
BRANCH  33  34
HETATM   34  C   UNL     1      -7.817   5.727 -30.652  1.00  0.00    -0.003 C 
HETATM   35  C   UNL     1      -8.746   4.576 -30.296  1.00  0.00     0.005 C 
ENDBRANCH  33  34
ENDBRANCH  32  33
ENDBRANCH   1  32
TORSDOF 9
ENDMDL
MODEL 7
REMARK VINA RESULT:      -7.4      2.191      7.474
REMARK  9 active torsions:
REMARK  status: ('A' for Active; 'I' for Inactive)
REMARK    1  A    between atoms: C_2  and  C_3 
REMARK    2  A    between atoms: C_3  and  C_4 
REMARK    3  A    between atoms: C_4  and  N_5 
REMARK    4  A    between atoms: C_9  and  C_10 
REMARK    5  A    between atoms: C_13  and  C_14 
REMARK    6  A    between atoms: C_14  and  O_15 
REMARK    7  A    between atoms: C_20  and  C_21 
REMARK       I    between atoms: C_21  and  N_22 
REMARK    8  A    between atoms: N_22  and  C_23 
REMARK    9  A    between atoms: C_24  and  O_25 
ROOT
HETATM    1  N   UNL     1      -8.619   2.894 -31.538  1.00  0.00    -0.303 N 
HETATM    2  C   UNL     1      -9.210   2.498 -32.738  1.00  0.00     0.323 C 
HETATM    3  O   UNL     1     -10.408   2.260 -32.878  1.00  0.00    -0.247 OA
HETATM    4  N   UNL     1      -8.397   2.409 -33.821  1.00  0.00    -0.330 N 
HETATM    5  C   UNL     1      -6.956   2.400 -33.780  1.00  0.00     0.160 C 
HETATM    6  C   UNL     1      -6.469   3.041 -32.519  1.00  0.00     0.059 C 
HETATM    7  C   UNL     1      -7.258   3.227 -31.438  1.00  0.00     0.026 C 
HETATM    8  C   UNL     1      -6.730   3.738 -30.118  1.00  0.00     0.069 C 
HETATM    9  H   UNL     1      -8.856   2.055 -34.649  1.00  0.00     0.165 HD
ENDROOT
BRANCH   6  10
HETATM   10  C   UNL     1      -5.034   3.438 -32.555  1.00  0.00     0.256 C 
HETATM   11  N   UNL     1      -4.818   4.571 -33.303  1.00  0.00    -0.321 N 
HETATM   12  H   UNL     1      -5.620   5.049 -33.706  1.00  0.00     0.169 HD
HETATM   13  O   UNL     1      -4.194   2.756 -31.985  1.00  0.00    -0.267 OA
BRANCH  11  14
HETATM   14  C   UNL     1      -3.588   5.214 -33.568  1.00  0.00     0.068 A 
HETATM   15  C   UNL     1      -3.310   6.389 -32.838  1.00  0.00     0.095 A 
HETATM   16  C   UNL     1      -2.115   7.080 -33.062  1.00  0.00     0.039 A 
HETATM   17  C   UNL     1      -1.195   6.603 -33.998  1.00  0.00     0.003 A 
HETATM   18  C   UNL     1      -1.465   5.439 -34.711  1.00  0.00     0.002 A 
HETATM   19  C   UNL     1      -2.657   4.746 -34.498  1.00  0.00     0.032 A 
BRANCH  15  20
HETATM   20  O   UNL     1      -4.280   6.767 -31.936  1.00  0.00    -0.354 OA
HETATM   21  C   UNL     1      -4.119   8.039 -31.319  1.00  0.00     0.210 C 
ENDBRANCH  15  20
ENDBRANCH  11  14
ENDBRANCH   6  10
BRANCH   5  22
HETATM   22  C   UNL     1      -6.429   0.990 -34.007  1.00  0.00    -0.031 A 
HETATM   23  C   UNL     1      -5.485   0.446 -33.121  1.00  0.00     0.010 A 
HETATM   24  C   UNL     1      -5.050  -0.874 -33.264  1.00  0.00     0.018 A 
HETATM   25  C   UNL     1      -5.552  -1.676 -34.295  1.00  0.00     0.039 A 
HETATM   26  C   UNL     1      -6.467  -1.133 -35.204  1.00  0.00     0.018 A 
HETATM   27  C   UNL     1      -6.898   0.190 -35.063  1.00  0.00     0.010 A 
BRANCH  25  28
HETATM   28  C   UNL     1      -5.103  -3.094 -34.363  1.00  0.00     0.292 C 
HETATM   29  O   UNL     1      -5.704  -3.964 -34.973  1.00  0.00    -0.259 OA
BRANCH  28  30
HETATM   30  O   UNL     1      -3.933  -3.255 -33.696  1.00  0.00    -0.323 OA
HETATM   31  C   UNL     1      -3.562  -4.621 -33.504  1.00  0.00     0.213 C 
ENDBRANCH  28  30
ENDBRANCH  25  28
ENDBRANCH   5  22
BRANCH   1  32
HETATM   32  C   UNL     1      -9.540   3.070 -30.407  1.00  0.00     0.133 C 
BRANCH  32  33
HETATM   33  C   UNL     1     -10.480   4.262 -30.610  1.00  0.00     0.020 C 
BRANCH  33  34
HETATM   34  C   UNL     1      -9.770   5.584 -30.322  1.00  0.00    -0.003 C 
HETATM   35  C   UNL     1      -9.576   6.401 -31.591  1.00  0.00     0.005 C 
ENDBRANCH  33  34
ENDBRANCH  32  33
ENDBRANCH   1  32
TORSDOF 9
ENDMDL
MODEL 8
REMARK VINA RESULT:      -7.3     15.332     17.449
REMARK  9 active torsions:
REMARK  status: ('A' for Active; 'I' for Inactive)
REMARK    1  A    between atoms: C_2  and  C_3 
REMARK    2  A    between atoms: C_3  and  C_4 
REMARK    3  A    between atoms: C_4  and  N_5 
REMARK    4  A    between atoms: C_9  and  C_10 
REMARK    5  A    between atoms: C_13  and  C_14 
REMARK    6  A    between atoms: C_14  and  O_15 
REMARK    7  A    between atoms: C_20  and  C_21 
REMARK       I    between atoms: C_21  and  N_22 
REMARK    8  A    between atoms: N_22  and  C_23 
REMARK    9  A    between atoms: C_24  and  O_25 
ROOT
HETATM    1  N   UNL     1      -5.868 -15.101 -34.863  1.00  0.00    -0.303 N 
HETATM    2  C   UNL     1      -6.859 -14.167 -34.561  1.00  0.00     0.323 C 
HETATM    3  O   UNL     1      -7.507 -14.155 -33.516  1.00  0.00    -0.247 OA
HETATM    4  N   UNL     1      -7.082 -13.193 -35.479  1.00  0.00    -0.330 N 
HETATM    5  C   UNL     1      -6.606 -13.208 -36.839  1.00  0.00     0.160 C 
HETATM    6  C   UNL     1      -5.414 -14.104 -36.961  1.00  0.00     0.059 C 
HETATM    7  C   UNL     1      -5.099 -15.037 -36.037  1.00  0.00     0.026 C 
HETATM    8  C   UNL     1      -3.984 -16.037 -36.231  1.00  0.00     0.069 C 
HETATM    9  H   UNL     1      -7.852 -12.581 -35.246  1.00  0.00     0.165 HD
ENDROOT
BRANCH   6  10
HETATM   10  C   UNL     1      -4.617 -13.888 -38.201  1.00  0.00     0.256 C 
HETATM   11  N   UNL     1      -4.727 -14.933 -39.088  1.00  0.00    -0.321 N 
HETATM   12  H   UNL     1      -5.351 -15.703 -38.859  1.00  0.00     0.169 HD
HETATM   13  O   UNL     1      -3.936 -12.881 -38.326  1.00  0.00    -0.267 OA
BRANCH  11  14
HETATM   14  C   UNL     1      -4.098 -15.073 -40.345  1.00  0.00     0.068 A 
HETATM   15  C   UNL     1      -4.844 -14.691 -41.480  1.00  0.00     0.095 A 
HETATM   16  C   UNL     1      -4.283 -14.816 -42.755  1.00  0.00     0.039 A 
HETATM   17  C   UNL     1      -2.985 -15.309 -42.905  1.00  0.00     0.003 A 
HETATM   18  C   UNL     1      -2.246 -15.678 -41.784  1.00  0.00     0.002 A 
HETATM   19  C   UNL     1      -2.799 -15.561 -40.509  1.00  0.00     0.032 A 
BRANCH  15  20
HETATM   20  O   UNL     1      -6.108 -14.211 -41.221  1.00  0.00    -0.354 OA
HETATM   21  C   UNL     1      -6.317 -12.817 -41.420  1.00  0.00     0.210 C 
ENDBRANCH  15  20
ENDBRANCH  11  14
ENDBRANCH   6  10
BRANCH   5  22
HETATM   22  C   UNL     1      -7.742 -13.548 -37.794  1.00  0.00    -0.031 A 
HETATM   23  C   UNL     1      -8.353 -12.529 -38.543  1.00  0.00     0.010 A 
HETATM   24  C   UNL     1      -9.341 -12.831 -39.484  1.00  0.00     0.018 A 
HETATM   25  C   UNL     1      -9.735 -14.157 -39.696  1.00  0.00     0.039 A 
HETATM   26  C   UNL     1      -9.156 -15.176 -38.931  1.00  0.00     0.018 A 
HETATM   27  C   UNL     1      -8.172 -14.873 -37.985  1.00  0.00     0.010 A 
BRANCH  25  28
HETATM   28  C   UNL     1     -10.745 -14.428 -40.755  1.00  0.00     0.292 C 
HETATM   29  O   UNL     1     -11.867 -13.946 -40.758  1.00  0.00    -0.259 OA
BRANCH  28  30
HETATM   30  O   UNL     1     -10.226 -15.237 -41.713  1.00  0.00    -0.323 OA
HETATM   31  C   UNL     1     -11.176 -16.135 -42.288  1.00  0.00     0.213 C 
ENDBRANCH  28  30
ENDBRANCH  25  28
ENDBRANCH   5  22
BRANCH   1  32
HETATM   32  C   UNL     1      -5.586 -16.088 -33.811  1.00  0.00     0.133 C 
BRANCH  32  33
HETATM   33  C   UNL     1      -6.696 -17.137 -33.693  1.00  0.00     0.020 C 
BRANCH  33  34
HETATM   34  C   UNL     1      -6.882 -17.898 -35.005  1.00  0.00    -0.003 C 
HETATM   35  C   UNL     1      -8.276 -17.693 -35.577  1.00  0.00     0.005 C 
ENDBRANCH  33  34
ENDBRANCH  32  33
ENDBRANCH   1  32
TORSDOF 9
ENDMDL
MODEL 9
REMARK VINA RESULT:      -7.2      1.969      6.738
REMARK  9 active torsions:
REMARK  status: ('A' for Active; 'I' for Inactive)
REMARK    1  A    between atoms: C_2  and  C_3 
REMARK    2  A    between atoms: C_3  and  C_4 
REMARK    3  A    between atoms: C_4  and  N_5 
REMARK    4  A    between atoms: C_9  and  C_10 
REMARK    5  A    between atoms: C_13  and  C_14 
REMARK    6  A    between atoms: C_14  and  O_15 
REMARK    7  A    between atoms: C_20  and  C_21 
REMARK       I    between atoms: C_21  and  N_22 
REMARK    8  A    between atoms: N_22  and  C_23 
REMARK    9  A    between atoms: C_24  and  O_25 
ROOT
HETATM    1  N   UNL     1     -10.445   2.800 -32.934  1.00  0.00    -0.303 N 
HETATM    2  C   UNL     1     -10.329   4.058 -32.343  1.00  0.00     0.323 C 
HETATM    3  O   UNL     1     -11.140   4.971 -32.486  1.00  0.00    -0.247 OA
HETATM    4  N   UNL     1      -9.261   4.256 -31.528  1.00  0.00    -0.330 N 
HETATM    5  C   UNL     1      -8.102   3.402 -31.456  1.00  0.00     0.160 C 
HETATM    6  C   UNL     1      -8.440   2.027 -31.941  1.00  0.00     0.059 C 
HETATM    7  C   UNL     1      -9.534   1.760 -32.686  1.00  0.00     0.026 C 
HETATM    8  C   UNL     1      -9.796   0.404 -33.297  1.00  0.00     0.069 C 
HETATM    9  H   UNL     1      -9.185   5.200 -31.177  1.00  0.00     0.165 HD
ENDROOT
BRANCH   6  10
HETATM   10  C   UNL     1      -7.453   0.985 -31.543  1.00  0.00     0.256 C 
HETATM   11  N   UNL     1      -6.410   0.879 -32.433  1.00  0.00    -0.321 N 
HETATM   12  H   UNL     1      -6.373   1.522 -33.219  1.00  0.00     0.169 HD
HETATM   13  O   UNL     1      -7.641   0.312 -30.540  1.00  0.00    -0.267 OA
BRANCH  11  14
HETATM   14  C   UNL     1      -5.314  -0.011 -32.381  1.00  0.00     0.068 A 
HETATM   15  C   UNL     1      -5.399  -1.178 -33.171  1.00  0.00     0.095 A 
HETATM   16  C   UNL     1      -4.352  -2.105 -33.155  1.00  0.00     0.039 A 
HETATM   17  C   UNL     1      -3.223  -1.874 -32.368  1.00  0.00     0.003 A 
HETATM   18  C   UNL     1      -3.135  -0.719 -31.595  1.00  0.00     0.002 A 
HETATM   19  C   UNL     1      -4.176   0.210 -31.601  1.00  0.00     0.032 A 
BRANCH  15  20
HETATM   20  O   UNL     1      -6.551  -1.304 -33.915  1.00  0.00    -0.354 OA
HETATM   21  C   UNL     1      -6.740  -2.539 -34.596  1.00  0.00     0.210 C 
ENDBRANCH  15  20
ENDBRANCH  11  14
ENDBRANCH   6  10
BRANCH   5  22
HETATM   22  C   UNL     1      -6.925   4.045 -32.176  1.00  0.00    -0.031 A 
HETATM   23  C   UNL     1      -5.789   4.435 -31.447  1.00  0.00     0.010 A 
HETATM   24  C   UNL     1      -4.666   4.951 -32.099  1.00  0.00     0.018 A 
HETATM   25  C   UNL     1      -4.656   5.085 -33.491  1.00  0.00     0.039 A 
HETATM   26  C   UNL     1      -5.795   4.732 -34.223  1.00  0.00     0.018 A 
HETATM   27  C   UNL     1      -6.921   4.221 -33.570  1.00  0.00     0.010 A 
BRANCH  25  28
HETATM   28  C   UNL     1      -3.411   5.581 -34.139  1.00  0.00     0.292 C 
HETATM   29  O   UNL     1      -3.169   5.447 -35.329  1.00  0.00    -0.259 OA
BRANCH  28  30
HETATM   30  O   UNL     1      -2.628   6.224 -33.238  1.00  0.00    -0.323 OA
HETATM   31  C   UNL     1      -1.532   6.929 -33.823  1.00  0.00     0.213 C 
ENDBRANCH  28  30
ENDBRANCH  25  28
ENDBRANCH   5  22
BRANCH   1  32
HETATM   32  C   UNL     1     -11.658   2.587 -33.735  1.00  0.00     0.133 C 
BRANCH  32  33
HETATM   33  C   UNL     1     -12.916   2.504 -32.864  1.00  0.00     0.020 C 
BRANCH  33  34
HETATM   34  C   UNL     1     -13.922   1.506 -33.435  1.00  0.00    -0.003 C 
HETATM   35  C   UNL     1     -13.330   0.719 -34.594  1.00  0.00     0.005 C 
ENDBRANCH  33  34
ENDBRANCH  32  33
ENDBRANCH   1  32
TORSDOF 9
ENDMDL
MODEL 10
REMARK VINA RESULT:      -7.1     15.209     17.268
REMARK  9 active torsions:
REMARK  status: ('A' for Active; 'I' for Inactive)
REMARK    1  A    between atoms: C_2  and  C_3 
REMARK    2  A    between atoms: C_3  and  C_4 
REMARK    3  A    between atoms: C_4  and  N_5 
REMARK    4  A    between atoms: C_9  and  C_10 
REMARK    5  A    between atoms: C_13  and  C_14 
REMARK    6  A    between atoms: C_14  and  O_15 
REMARK    7  A    between atoms: C_20  and  C_21 
REMARK       I    between atoms: C_21  and  N_22 
REMARK    8  A    between atoms: N_22  and  C_23 
REMARK    9  A    between atoms: C_24  and  O_25 
ROOT
HETATM    1  N   UNL     1      -4.205 -14.974 -35.947  1.00  0.00    -0.303 N 
HETATM    2  C   UNL     1      -4.788 -13.800 -35.471  1.00  0.00     0.323 C 
HETATM    3  O   UNL     1      -5.147 -13.625 -34.308  1.00  0.00    -0.247 OA
HETATM    4  N   UNL     1      -4.927 -12.782 -36.357  1.00  0.00    -0.330 N 
HETATM    5  C   UNL     1      -4.802 -12.903 -37.788  1.00  0.00     0.160 C 
HETATM    6  C   UNL     1      -3.979 -14.103 -38.137  1.00  0.00     0.059 C 
HETATM    7  C   UNL     1      -3.742 -15.108 -37.267  1.00  0.00     0.026 C 
HETATM    8  C   UNL     1      -3.038 -16.384 -37.663  1.00  0.00     0.069 C 
HETATM    9  H   UNL     1      -5.414 -11.979 -35.984  1.00  0.00     0.165 HD
ENDROOT
BRANCH   6  10
HETATM   10  C   UNL     1      -3.462 -14.099 -39.534  1.00  0.00     0.256 C 
HETATM   11  N   UNL     1      -4.228 -14.862 -40.382  1.00  0.00    -0.321 N 
HETATM   12  H   UNL     1      -5.069 -15.301 -40.018  1.00  0.00     0.169 HD
HETATM   13  O   UNL     1      -2.439 -13.487 -39.808  1.00  0.00    -0.267 OA
BRANCH  11  14
HETATM   14  C   UNL     1      -4.022 -15.098 -41.760  1.00  0.00     0.068 A 
HETATM   15  C   UNL     1      -3.078 -16.088 -42.106  1.00  0.00     0.095 A 
HETATM   16  C   UNL     1      -2.819 -16.361 -43.453  1.00  0.00     0.039 A 
HETATM   17  C   UNL     1      -3.498 -15.662 -44.453  1.00  0.00     0.003 A 
HETATM   18  C   UNL     1      -4.435 -14.691 -44.112  1.00  0.00     0.002 A 
HETATM   19  C   UNL     1      -4.697 -14.409 -42.771  1.00  0.00     0.032 A 
BRANCH  15  20
HETATM   20  O   UNL     1      -2.472 -16.722 -41.044  1.00  0.00    -0.354 OA
HETATM   21  C   UNL     1      -1.053 -16.634 -40.972  1.00  0.00     0.210 C 
ENDBRANCH  15  20
ENDBRANCH  11  14
ENDBRANCH   6  10
BRANCH   5  22
HETATM   22  C   UNL     1      -6.176 -12.877 -38.444  1.00  0.00    -0.031 A 
HETATM   23  C   UNL     1      -7.285 -13.407 -37.765  1.00  0.00     0.010 A 
HETATM   24  C   UNL     1      -8.567 -13.319 -38.314  1.00  0.00     0.018 A 
HETATM   25  C   UNL     1      -8.764 -12.697 -39.552  1.00  0.00     0.039 A 
HETATM   26  C   UNL     1      -7.661 -12.196 -40.252  1.00  0.00     0.018 A 
HETATM   27  C   UNL     1      -6.378 -12.289 -39.705  1.00  0.00     0.010 A 
BRANCH  25  28
HETATM   28  C   UNL     1     -10.158 -12.574 -40.061  1.00  0.00     0.292 C 
HETATM   29  O   UNL     1     -10.590 -11.573 -40.611  1.00  0.00    -0.259 OA
BRANCH  28  30
HETATM   30  O   UNL     1     -10.841 -13.729 -39.863  1.00  0.00    -0.323 OA
HETATM   31  C   UNL     1     -10.839 -14.601 -40.994  1.00  0.00     0.213 C 
ENDBRANCH  28  30
ENDBRANCH  25  28
ENDBRANCH   5  22
BRANCH   1  32
HETATM   32  C   UNL     1      -3.985 -16.024 -34.943  1.00  0.00     0.133 C 
BRANCH  32  33
HETATM   33  C   UNL     1      -5.083 -17.092 -34.975  1.00  0.00     0.020 C 
BRANCH  33  34
HETATM   34  C   UNL     1      -6.052 -16.927 -33.806  1.00  0.00    -0.003 C 
HETATM   35  C   UNL     1      -7.445 -16.548 -34.284  1.00  0.00     0.005 C 
ENDBRANCH  33  34
ENDBRANCH  32  33
ENDBRANCH   1  32
TORSDOF 9
ENDMDL
