MODEL 1
REMARK VINA RESULT:      -8.4      0.000      0.000
REMARK  10 active torsions:
REMARK  status: ('A' for Active; 'I' for Inactive)
REMARK    1  A    between atoms: C_2  and  C_3 
REMARK    2  A    between atoms: C_3  and  C_4 
REMARK    3  A    between atoms: N_7  and  C_9 
REMARK    4  A    between atoms: C_9  and  C_10 
REMARK    5  A    between atoms: C_11  and  O_12 
REMARK    6  A    between atoms: C_13  and  O_14 
REMARK    7  A    between atoms: O_14  and  C_15 
REMARK    8  A    between atoms: N_25  and  C_26 
REMARK    9  A    between atoms: C_26  and  C_27 
REMARK   10  A    between atoms: C_27  and  C_28 
ROOT
HETATM    1  C   UNL     1      -5.882   2.125 -30.338  1.00  0.00     0.026 C 
HETATM    2  C   UNL     1      -5.425   3.576 -30.100  1.00  0.00     0.035 C 
HETATM    3  C   UNL     1      -4.534   4.146 -31.197  1.00  0.00     0.235 C 
HETATM    4  N   UNL     1      -3.376   3.236 -31.525  1.00  0.00    -0.067 N 
HETATM    5  H   UNL     1      -2.730   3.231 -30.727  1.00  0.00     0.280 HD
HETATM    6  C   UNL     1      -3.775   1.799 -31.757  1.00  0.00     0.235 C 
HETATM    7  C   UNL     1      -4.621   1.284 -30.608  1.00  0.00     0.035 C 
ENDROOT
BRANCH   1   8
HETATM    8  C   UNL     1      -7.042   1.957 -31.375  1.00  0.00     0.119 C 
HETATM    9  N   UNL     1      -6.703   2.425 -32.707  1.00  0.00    -0.324 N 
HETATM   10  C   UNL     1      -6.935   1.459 -33.666  1.00  0.00     0.326 C 
HETATM   11  H   UNL     1      -6.853   3.373 -33.033  1.00  0.00     0.165 HD
HETATM   12  O   UNL     1      -6.937   1.705 -34.859  1.00  0.00    -0.247 OA
HETATM   13  N   UNL     1      -7.154   0.271 -33.051  1.00  0.00    -0.268 N 
HETATM   14  C   UNL     1      -7.283   0.459 -31.701  1.00  0.00     0.256 C 
HETATM   15  O   UNL     1      -7.541  -0.399 -30.870  1.00  0.00    -0.270 OA
BRANCH   8  16
HETATM   16  C   UNL     1      -8.385   2.612 -30.975  1.00  0.00     0.037 C 
HETATM   17  C   UNL     1      -8.721   3.922 -31.672  1.00  0.00     0.008 C 
ENDBRANCH   8  16
BRANCH  13  18
HETATM   18  C   UNL     1      -7.471  -0.970 -33.743  1.00  0.00     0.142 C 
BRANCH  18  19
HETATM   19  C   UNL     1      -6.450  -1.329 -34.830  1.00  0.00     0.068 C 
BRANCH  19  20
HETATM   20  C   UNL     1      -5.516  -2.407 -34.378  1.00  0.00     0.010 A 
HETATM   21  S   UNL     1      -4.185  -2.038 -33.356  1.00  0.00    -0.085 SA
HETATM   22  C   UNL     1      -3.734  -3.689 -33.373  1.00  0.00     0.166 A 
HETATM   23  N   UNL     1      -4.501  -4.487 -34.079  1.00  0.00    -0.258 NA
HETATM   24  C   UNL     1      -5.525  -3.764 -34.665  1.00  0.00     0.044 A 
HETATM   25  C   UNL     1      -6.503  -4.497 -35.514  1.00  0.00     0.071 C 
ENDBRANCH  19  20
ENDBRANCH  18  19
ENDBRANCH  13  18
ENDBRANCH   1   8
BRANCH   4  26
HETATM   26  C   UNL     1      -2.592   3.828 -32.702  1.00  0.00     0.276 C 
BRANCH  26  27
HETATM   27  C   UNL     1      -1.814   5.083 -32.420  1.00  0.00     0.004 A 
HETATM   28  C   UNL     1      -0.975   5.156 -31.302  1.00  0.00     0.107 A 
HETATM   29  C   UNL     1      -0.262   6.316 -31.006  1.00  0.00     0.102 A 
HETATM   30  C   UNL     1      -0.400   7.441 -31.808  1.00  0.00     0.039 A 
HETATM   31  C   UNL     1      -1.230   7.388 -32.930  1.00  0.00     0.003 A 
HETATM   32  C   UNL     1      -1.935   6.217 -33.237  1.00  0.00     0.012 A 
BRANCH  28  33
HETATM   33  O   UNL     1      -0.894   4.076 -30.464  1.00  0.00    -0.357 OA
HETATM   34  H   UNL     1      -0.708   4.428 -29.568  1.00  0.00     0.218 HD
ENDBRANCH  28  33
BRANCH  29  35
HETATM   35  O   UNL     1       0.492   6.380 -29.867  1.00  0.00    -0.349 OA
BRANCH  35  36
HETATM   36  C   UNL     1      -0.111   7.241 -28.889  1.00  0.00     0.171 C 
HETATM   37  C   UNL     1       0.966   8.147 -28.326  1.00  0.00     0.034 C 
ENDBRANCH  35  36
ENDBRANCH  29  35
ENDBRANCH  26  27
ENDBRANCH   4  26
TORSDOF 10
ENDMDL
MODEL 2
REMARK VINA RESULT:      -8.3      1.643      2.215
REMARK  10 active torsions:
REMARK  status: ('A' for Active; 'I' for Inactive)
REMARK    1  A    between atoms: C_2  and  C_3 
REMARK    2  A    between atoms: C_3  and  C_4 
REMARK    3  A    between atoms: N_7  and  C_9 
REMARK    4  A    between atoms: C_9  and  C_10 
REMARK    5  A    between atoms: C_11  and  O_12 
REMARK    6  A    between atoms: C_13  and  O_14 
REMARK    7  A    between atoms: O_14  and  C_15 
REMARK    8  A    between atoms: N_25  and  C_26 
REMARK    9  A    between atoms: C_26  and  C_27 
REMARK   10  A    between atoms: C_27  and  C_28 
ROOT
HETATM    1  C   UNL     1      -7.065   2.604 -30.547  1.00  0.00     0.026 C 
HETATM    2  C   UNL     1      -7.823   3.945 -30.553  1.00  0.00     0.035 C 
HETATM    3  C   UNL     1      -7.368   4.923 -31.629  1.00  0.00     0.235 C 
HETATM    4  N   UNL     1      -5.871   5.119 -31.629  1.00  0.00    -0.067 N 
HETATM    5  H   UNL     1      -5.610   5.627 -30.775  1.00  0.00     0.280 HD
HETATM    6  C   UNL     1      -5.086   3.831 -31.614  1.00  0.00     0.235 C 
HETATM    7  C   UNL     1      -5.560   2.925 -30.493  1.00  0.00     0.035 C 
ENDROOT
BRANCH   1   8
HETATM    8  C   UNL     1      -7.501   1.592 -31.659  1.00  0.00     0.119 C 
HETATM    9  N   UNL     1      -7.431   2.140 -33.002  1.00  0.00    -0.324 N 
HETATM   10  C   UNL     1      -6.689   1.338 -33.846  1.00  0.00     0.326 C 
HETATM   11  H   UNL     1      -8.195   2.623 -33.460  1.00  0.00     0.165 HD
HETATM   12  O   UNL     1      -6.688   1.482 -35.056  1.00  0.00    -0.247 OA
HETATM   13  N   UNL     1      -6.020   0.420 -33.107  1.00  0.00    -0.268 N 
HETATM   14  C   UNL     1      -6.460   0.452 -31.812  1.00  0.00     0.256 C 
HETATM   15  O   UNL     1      -6.101  -0.285 -30.905  1.00  0.00    -0.270 OA
BRANCH   8  16
HETATM   16  C   UNL     1      -8.907   0.975 -31.476  1.00  0.00     0.037 C 
HETATM   17  C   UNL     1      -9.518   0.330 -32.711  1.00  0.00     0.008 C 
ENDBRANCH   8  16
BRANCH  13  18
HETATM   18  C   UNL     1      -5.163  -0.619 -33.661  1.00  0.00     0.142 C 
BRANCH  18  19
HETATM   19  C   UNL     1      -5.947  -1.725 -34.378  1.00  0.00     0.068 C 
BRANCH  19  20
HETATM   20  C   UNL     1      -5.275  -3.056 -34.244  1.00  0.00     0.010 A 
HETATM   21  S   UNL     1      -3.813  -3.212 -33.355  1.00  0.00    -0.085 SA
HETATM   22  C   UNL     1      -3.790  -4.885 -33.715  1.00  0.00     0.166 A 
HETATM   23  N   UNL     1      -4.788  -5.330 -34.443  1.00  0.00    -0.258 NA
HETATM   24  C   UNL     1      -5.646  -4.290 -34.757  1.00  0.00     0.044 A 
HETATM   25  C   UNL     1      -6.843  -4.596 -35.587  1.00  0.00     0.071 C 
ENDBRANCH  19  20
ENDBRANCH  18  19
ENDBRANCH  13  18
ENDBRANCH   1   8
BRANCH   4  26
HETATM   26  C   UNL     1      -5.486   6.032 -32.800  1.00  0.00     0.276 C 
BRANCH  26  27
HETATM   27  C   UNL     1      -4.065   5.937 -33.279  1.00  0.00     0.004 A 
HETATM   28  C   UNL     1      -3.037   6.567 -32.567  1.00  0.00     0.107 A 
HETATM   29  C   UNL     1      -1.715   6.513 -33.004  1.00  0.00     0.102 A 
HETATM   30  C   UNL     1      -1.398   5.853 -34.184  1.00  0.00     0.039 A 
HETATM   31  C   UNL     1      -2.409   5.216 -34.907  1.00  0.00     0.003 A 
HETATM   32  C   UNL     1      -3.736   5.256 -34.460  1.00  0.00     0.012 A 
BRANCH  28  33
HETATM   33  O   UNL     1      -3.353   7.284 -31.445  1.00  0.00    -0.357 OA
HETATM   34  H   UNL     1      -4.083   7.890 -31.694  1.00  0.00     0.218 HD
ENDBRANCH  28  33
BRANCH  29  35
HETATM   35  O   UNL     1      -0.746   7.199 -32.326  1.00  0.00    -0.349 OA
BRANCH  35  36
HETATM   36  C   UNL     1      -0.002   6.331 -31.457  1.00  0.00     0.171 C 
HETATM   37  C   UNL     1       0.195   7.041 -30.132  1.00  0.00     0.034 C 
ENDBRANCH  35  36
ENDBRANCH  29  35
ENDBRANCH  26  27
ENDBRANCH   4  26
TORSDOF 10
ENDMDL
MODEL 3
REMARK VINA RESULT:      -8.3      1.721      2.916
REMARK  10 active torsions:
REMARK  status: ('A' for Active; 'I' for Inactive)
REMARK    1  A    between atoms: C_2  and  C_3 
REMARK    2  A    between atoms: C_3  and  C_4 
REMARK    3  A    between atoms: N_7  and  C_9 
REMARK    4  A    between atoms: C_9  and  C_10 
REMARK    5  A    between atoms: C_11  and  O_12 
REMARK    6  A    between atoms: C_13  and  O_14 
REMARK    7  A    between atoms: O_14  and  C_15 
REMARK    8  A    between atoms: N_25  and  C_26 
REMARK    9  A    between atoms: C_26  and  C_27 
REMARK   10  A    between atoms: C_27  and  C_28 
ROOT
HETATM    1  C   UNL     1      -7.606   3.606 -32.466  1.00  0.00     0.026 C 
HETATM    2  C   UNL     1      -7.497   4.746 -33.496  1.00  0.00     0.035 C 
HETATM    3  C   UNL     1      -6.285   5.652 -33.309  1.00  0.00     0.235 C 
HETATM    4  N   UNL     1      -6.160   6.156 -31.892  1.00  0.00    -0.067 N 
HETATM    5  H   UNL     1      -6.928   6.813 -31.711  1.00  0.00     0.280 HD
HETATM    6  C   UNL     1      -6.271   5.074 -30.847  1.00  0.00     0.235 C 
HETATM    7  C   UNL     1      -7.519   4.240 -31.066  1.00  0.00     0.035 C 
ENDROOT
BRANCH   1   8
HETATM    8  C   UNL     1      -6.652   2.392 -32.719  1.00  0.00     0.119 C 
HETATM    9  N   UNL     1      -6.424   1.576 -31.538  1.00  0.00    -0.324 N 
HETATM   10  C   UNL     1      -6.690   0.243 -31.776  1.00  0.00     0.326 C 
HETATM   11  H   UNL     1      -5.677   1.735 -30.872  1.00  0.00     0.165 HD
HETATM   12  O   UNL     1      -6.356  -0.640 -31.006  1.00  0.00    -0.247 OA
HETATM   13  N   UNL     1      -7.343   0.127 -32.958  1.00  0.00    -0.268 N 
HETATM   14  C   UNL     1      -7.334   1.326 -33.617  1.00  0.00     0.256 C 
HETATM   15  O   UNL     1      -7.787   1.546 -34.730  1.00  0.00    -0.270 OA
BRANCH   8  16
HETATM   16  C   UNL     1      -5.270   2.750 -33.315  1.00  0.00     0.037 C 
HETATM   17  C   UNL     1      -4.073   2.532 -32.401  1.00  0.00     0.008 C 
ENDBRANCH   8  16
BRANCH  13  18
HETATM   18  C   UNL     1      -7.754  -1.137 -33.553  1.00  0.00     0.142 C 
BRANCH  18  19
HETATM   19  C   UNL     1      -6.964  -1.489 -34.819  1.00  0.00     0.068 C 
BRANCH  19  20
HETATM   20  C   UNL     1      -6.023  -2.630 -34.585  1.00  0.00     0.010 A 
HETATM   21  S   UNL     1      -6.469  -4.233 -35.013  1.00  0.00    -0.085 SA
HETATM   22  C   UNL     1      -4.956  -4.790 -34.438  1.00  0.00     0.166 A 
HETATM   23  N   UNL     1      -4.150  -3.872 -33.957  1.00  0.00    -0.258 NA
HETATM   24  C   UNL     1      -4.752  -2.627 -34.031  1.00  0.00     0.044 A 
HETATM   25  C   UNL     1      -3.993  -1.452 -33.526  1.00  0.00     0.071 C 
ENDBRANCH  19  20
ENDBRANCH  18  19
ENDBRANCH  13  18
ENDBRANCH   1   8
BRANCH   4  26
HETATM   26  C   UNL     1      -4.867   6.971 -31.764  1.00  0.00     0.276 C 
BRANCH  26  27
HETATM   27  C   UNL     1      -3.603   6.289 -32.201  1.00  0.00     0.004 A 
HETATM   28  C   UNL     1      -2.721   5.761 -31.249  1.00  0.00     0.107 A 
HETATM   29  C   UNL     1      -1.530   5.145 -31.629  1.00  0.00     0.102 A 
HETATM   30  C   UNL     1      -1.181   5.072 -32.971  1.00  0.00     0.039 A 
HETATM   31  C   UNL     1      -2.048   5.589 -33.936  1.00  0.00     0.003 A 
HETATM   32  C   UNL     1      -3.253   6.195 -33.556  1.00  0.00     0.012 A 
BRANCH  28  33
HETATM   33  O   UNL     1      -3.022   5.898 -29.922  1.00  0.00    -0.357 OA
HETATM   34  H   UNL     1      -3.480   6.760 -29.824  1.00  0.00     0.218 HD
ENDBRANCH  28  33
BRANCH  29  35
HETATM   35  O   UNL     1      -0.656   4.705 -30.674  1.00  0.00    -0.349 OA
BRANCH  35  36
HETATM   36  C   UNL     1       0.621   5.350 -30.797  1.00  0.00     0.171 C 
HETATM   37  C   UNL     1       0.479   6.780 -30.314  1.00  0.00     0.034 C 
ENDBRANCH  35  36
ENDBRANCH  29  35
ENDBRANCH  26  27
ENDBRANCH   4  26
TORSDOF 10
ENDMDL
MODEL 4
REMARK VINA RESULT:      -8.2      4.499     10.135
REMARK  10 active torsions:
REMARK  status: ('A' for Active; 'I' for Inactive)
REMARK    1  A    between atoms: C_2  and  C_3 
REMARK    2  A    between atoms: C_3  and  C_4 
REMARK    3  A    between atoms: N_7  and  C_9 
REMARK    4  A    between atoms: C_9  and  C_10 
REMARK    5  A    between atoms: C_11  and  O_12 
REMARK    6  A    between atoms: C_13  and  O_14 
REMARK    7  A    between atoms: O_14  and  C_15 
REMARK    8  A    between atoms: N_25  and  C_26 
REMARK    9  A    between atoms: C_26  and  C_27 
REMARK   10  A    between atoms: C_27  and  C_28 
ROOT
HETATM    1  C   UNL     1      -7.776   1.129 -31.798  1.00  0.00     0.026 C 
HETATM    2  C   UNL     1      -8.986   0.258 -32.183  1.00  0.00     0.035 C 
HETATM    3  C   UNL     1     -10.039   0.974 -33.020  1.00  0.00     0.235 C 
HETATM    4  N   UNL     1     -10.461   2.287 -32.408  1.00  0.00    -0.067 N 
HETATM    5  H   UNL     1     -10.989   2.092 -31.549  1.00  0.00     0.280 HD
HETATM    6  C   UNL     1      -9.307   3.172 -32.005  1.00  0.00     0.235 C 
HETATM    7  C   UNL     1      -8.321   2.410 -31.139  1.00  0.00     0.035 C 
ENDROOT
BRANCH   1   8
HETATM    8  C   UNL     1      -6.728   1.350 -32.939  1.00  0.00     0.119 C 
HETATM    9  N   UNL     1      -6.966   2.549 -33.723  1.00  0.00    -0.324 N 
HETATM   10  C   UNL     1      -5.845   3.351 -33.789  1.00  0.00     0.326 C 
HETATM   11  H   UNL     1      -7.543   2.579 -34.556  1.00  0.00     0.165 HD
HETATM   12  O   UNL     1      -5.748   4.281 -34.569  1.00  0.00    -0.247 OA
HETATM   13  N   UNL     1      -4.939   2.918 -32.879  1.00  0.00    -0.268 N 
HETATM   14  C   UNL     1      -5.339   1.719 -32.355  1.00  0.00     0.256 C 
HETATM   15  O   UNL     1      -4.720   1.035 -31.552  1.00  0.00    -0.270 OA
BRANCH   8  16
HETATM   16  C   UNL     1      -6.567   0.168 -33.925  1.00  0.00     0.037 C 
HETATM   17  C   UNL     1      -7.108   0.394 -35.329  1.00  0.00     0.008 C 
ENDBRANCH   8  16
BRANCH  13  18
HETATM   18  C   UNL     1      -3.618   3.501 -32.687  1.00  0.00     0.142 C 
BRANCH  18  19
HETATM   19  C   UNL     1      -3.635   4.744 -31.789  1.00  0.00     0.068 C 
BRANCH  19  20
HETATM   20  C   UNL     1      -2.936   5.901 -32.433  1.00  0.00     0.010 A 
HETATM   21  S   UNL     1      -2.203   5.730 -33.977  1.00  0.00    -0.085 SA
HETATM   22  C   UNL     1      -1.705   7.366 -33.905  1.00  0.00     0.166 A 
HETATM   23  N   UNL     1      -2.047   8.023 -32.821  1.00  0.00    -0.258 NA
HETATM   24  C   UNL     1      -2.750   7.193 -31.965  1.00  0.00     0.044 A 
HETATM   25  C   UNL     1      -3.222   7.758 -30.672  1.00  0.00     0.071 C 
ENDBRANCH  19  20
ENDBRANCH  18  19
ENDBRANCH  13  18
ENDBRANCH   1   8
BRANCH   4  26
HETATM   26  C   UNL     1     -11.440   2.990 -33.356  1.00  0.00     0.276 C 
BRANCH  26  27
HETATM   27  C   UNL     1     -12.794   2.355 -33.505  1.00  0.00     0.004 A 
HETATM   28  C   UNL     1     -13.767   2.528 -32.512  1.00  0.00     0.107 A 
HETATM   29  C   UNL     1     -15.021   1.930 -32.616  1.00  0.00     0.102 A 
HETATM   30  C   UNL     1     -15.318   1.119 -33.703  1.00  0.00     0.039 A 
HETATM   31  C   UNL     1     -14.363   0.937 -34.705  1.00  0.00     0.003 A 
HETATM   32  C   UNL     1     -13.107   1.550 -34.610  1.00  0.00     0.012 A 
BRANCH  28  33
HETATM   33  O   UNL     1     -13.453   3.263 -31.401  1.00  0.00    -0.357 OA
HETATM   34  H   UNL     1     -12.500   3.114 -31.224  1.00  0.00     0.218 HD
ENDBRANCH  28  33
BRANCH  29  35
HETATM   35  O   UNL     1     -15.922   2.058 -31.596  1.00  0.00    -0.349 OA
BRANCH  35  36
HETATM   36  C   UNL     1     -17.155   2.632 -32.057  1.00  0.00     0.171 C 
HETATM   37  C   UNL     1     -17.081   4.134 -31.865  1.00  0.00     0.034 C 
ENDBRANCH  35  36
ENDBRANCH  29  35
ENDBRANCH  26  27
ENDBRANCH   4  26
TORSDOF 10
ENDMDL
MODEL 5
REMARK VINA RESULT:      -8.2      3.017      8.739
REMARK  10 active torsions:
REMARK  status: ('A' for Active; 'I' for Inactive)
REMARK    1  A    between atoms: C_2  and  C_3 
REMARK    2  A    between atoms: C_3  and  C_4 
REMARK    3  A    between atoms: N_7  and  C_9 
REMARK    4  A    between atoms: C_9  and  C_10 
REMARK    5  A    between atoms: C_11  and  O_12 
REMARK    6  A    between atoms: C_13  and  O_14 
REMARK    7  A    between atoms: O_14  and  C_15 
REMARK    8  A    between atoms: N_25  and  C_26 
REMARK    9  A    between atoms: C_26  and  C_27 
REMARK   10  A    between atoms: C_27  and  C_28 
ROOT
HETATM    1  C   UNL     1      -6.516   4.657 -31.463  1.00  0.00     0.026 C 
HETATM    2  C   UNL     1      -6.878   4.050 -30.095  1.00  0.00     0.035 C 
HETATM    3  C   UNL     1      -6.865   2.526 -30.057  1.00  0.00     0.235 C 
HETATM    4  N   UNL     1      -7.675   1.919 -31.176  1.00  0.00    -0.067 N 
HETATM    5  H   UNL     1      -8.668   2.114 -31.003  1.00  0.00     0.280 HD
HETATM    6  C   UNL     1      -7.362   2.491 -32.537  1.00  0.00     0.235 C 
HETATM    7  C   UNL     1      -7.435   4.006 -32.513  1.00  0.00     0.035 C 
ENDROOT
BRANCH   1   8
HETATM    8  C   UNL     1      -4.989   4.655 -31.807  1.00  0.00     0.119 C 
HETATM    9  N   UNL     1      -4.711   4.881 -33.215  1.00  0.00    -0.324 N 
HETATM   10  C   UNL     1      -3.818   5.916 -33.403  1.00  0.00     0.326 C 
HETATM   11  H   UNL     1      -4.636   4.142 -33.906  1.00  0.00     0.165 HD
HETATM   12  O   UNL     1      -3.274   6.129 -34.472  1.00  0.00    -0.247 OA
HETATM   13  N   UNL     1      -3.675   6.592 -32.237  1.00  0.00    -0.268 N 
HETATM   14  C   UNL     1      -4.286   5.908 -31.221  1.00  0.00     0.256 C 
HETATM   15  O   UNL     1      -4.294   6.218 -30.039  1.00  0.00    -0.270 OA
BRANCH   8  16
HETATM   16  C   UNL     1      -4.216   3.388 -31.372  1.00  0.00     0.037 C 
HETATM   17  C   UNL     1      -3.221   2.836 -32.382  1.00  0.00     0.008 C 
ENDBRANCH   8  16
BRANCH  13  18
HETATM   18  C   UNL     1      -2.784   7.728 -32.045  1.00  0.00     0.142 C 
BRANCH  18  19
HETATM   19  C   UNL     1      -1.303   7.330 -32.009  1.00  0.00     0.068 C 
BRANCH  19  20
HETATM   20  C   UNL     1      -0.820   7.117 -30.609  1.00  0.00     0.010 A 
HETATM   21  S   UNL     1      -1.358   8.136 -29.334  1.00  0.00    -0.085 SA
HETATM   22  C   UNL     1      -0.389   7.249 -28.237  1.00  0.00     0.166 A 
HETATM   23  N   UNL     1       0.298   6.255 -28.750  1.00  0.00    -0.258 NA
HETATM   24  C   UNL     1       0.063   6.170 -30.112  1.00  0.00     0.044 A 
HETATM   25  C   UNL     1       0.760   5.102 -30.877  1.00  0.00     0.071 C 
ENDBRANCH  19  20
ENDBRANCH  18  19
ENDBRANCH  13  18
ENDBRANCH   1   8
BRANCH   4  26
HETATM   26  C   UNL     1      -7.528   0.393 -31.129  1.00  0.00     0.276 C 
BRANCH  26  27
HETATM   27  C   UNL     1      -6.394  -0.192 -31.923  1.00  0.00     0.004 A 
HETATM   28  C   UNL     1      -6.639  -0.792 -33.165  1.00  0.00     0.107 A 
HETATM   29  C   UNL     1      -5.608  -1.363 -33.908  1.00  0.00     0.102 A 
HETATM   30  C   UNL     1      -4.312  -1.374 -33.408  1.00  0.00     0.039 A 
HETATM   31  C   UNL     1      -4.048  -0.778 -32.173  1.00  0.00     0.003 A 
HETATM   32  C   UNL     1      -5.080  -0.190 -31.432  1.00  0.00     0.012 A 
BRANCH  28  33
HETATM   33  O   UNL     1      -7.925  -0.853 -33.628  1.00  0.00    -0.357 OA
HETATM   34  H   UNL     1      -8.490  -0.425 -32.949  1.00  0.00     0.218 HD
ENDBRANCH  28  33
BRANCH  29  35
HETATM   35  O   UNL     1      -5.890  -2.004 -35.082  1.00  0.00    -0.349 OA
BRANCH  35  36
HETATM   36  C   UNL     1      -5.425  -3.362 -35.060  1.00  0.00     0.171 C 
HETATM   37  C   UNL     1      -6.630  -4.276 -34.961  1.00  0.00     0.034 C 
ENDBRANCH  35  36
ENDBRANCH  29  35
ENDBRANCH  26  27
ENDBRANCH   4  26
TORSDOF 10
ENDMDL
MODEL 6
REMARK VINA RESULT:      -8.2      3.310      7.752
REMARK  10 active torsions:
REMARK  status: ('A' for Active; 'I' for Inactive)
REMARK    1  A    between atoms: C_2  and  C_3 
REMARK    2  A    between atoms: C_3  and  C_4 
REMARK    3  A    between atoms: N_7  and  C_9 
REMARK    4  A    between atoms: C_9  and  C_10 
REMARK    5  A    between atoms: C_11  and  O_12 
REMARK    6  A    between atoms: C_13  and  O_14 
REMARK    7  A    between atoms: O_14  and  C_15 
REMARK    8  A    between atoms: N_25  and  C_26 
REMARK    9  A    between atoms: C_26  and  C_27 
REMARK   10  A    between atoms: C_27  and  C_28 
ROOT
HETATM    1  C   UNL     1      -8.223   5.005 -32.263  1.00  0.00     0.026 C 
HETATM    2  C   UNL     1      -9.466   4.455 -31.540  1.00  0.00     0.035 C 
HETATM    3  C   UNL     1      -9.584   2.935 -31.555  1.00  0.00     0.235 C 
HETATM    4  N   UNL     1      -9.438   2.363 -32.944  1.00  0.00    -0.067 N 
HETATM    5  H   UNL     1     -10.262   2.632 -33.495  1.00  0.00     0.280 HD
HETATM    6  C   UNL     1      -8.238   2.882 -33.696  1.00  0.00     0.235 C 
HETATM    7  C   UNL     1      -8.207   4.399 -33.678  1.00  0.00     0.035 C 
ENDROOT
BRANCH   1   8
HETATM    8  C   UNL     1      -6.883   4.888 -31.462  1.00  0.00     0.119 C 
HETATM    9  N   UNL     1      -6.635   3.557 -30.937  1.00  0.00    -0.324 N 
HETATM   10  C   UNL     1      -5.392   3.083 -31.304  1.00  0.00     0.326 C 
HETATM   11  H   UNL     1      -6.945   3.237 -30.026  1.00  0.00     0.165 HD
HETATM   12  O   UNL     1      -4.889   2.097 -30.795  1.00  0.00    -0.247 OA
HETATM   13  N   UNL     1      -4.882   3.885 -32.269  1.00  0.00    -0.268 N 
HETATM   14  C   UNL     1      -5.658   5.004 -32.407  1.00  0.00     0.256 C 
HETATM   15  O   UNL     1      -5.443   5.950 -33.150  1.00  0.00    -0.270 OA
BRANCH   8  16
HETATM   16  C   UNL     1      -6.722   5.891 -30.295  1.00  0.00     0.037 C 
HETATM   17  C   UNL     1      -6.701   5.288 -28.898  1.00  0.00     0.008 C 
ENDBRANCH   8  16
BRANCH  13  18
HETATM   18  C   UNL     1      -3.568   3.716 -32.875  1.00  0.00     0.142 C 
BRANCH  18  19
HETATM   19  C   UNL     1      -2.432   4.282 -32.015  1.00  0.00     0.068 C 
BRANCH  19  20
HETATM   20  C   UNL     1      -2.084   5.682 -32.410  1.00  0.00     0.010 A 
HETATM   21  S   UNL     1      -2.285   6.980 -31.302  1.00  0.00    -0.085 SA
HETATM   22  C   UNL     1      -1.709   8.066 -32.493  1.00  0.00     0.166 A 
HETATM   23  N   UNL     1      -1.379   7.532 -33.646  1.00  0.00    -0.258 NA
HETATM   24  C   UNL     1      -1.593   6.165 -33.614  1.00  0.00     0.044 A 
HETATM   25  C   UNL     1      -1.281   5.379 -34.838  1.00  0.00     0.071 C 
ENDBRANCH  19  20
ENDBRANCH  18  19
ENDBRANCH  13  18
ENDBRANCH   1   8
BRANCH   4  26
HETATM   26  C   UNL     1      -9.466   0.832 -32.860  1.00  0.00     0.276 C 
BRANCH  26  27
HETATM   27  C   UNL     1      -8.198   0.121 -33.240  1.00  0.00     0.004 A 
HETATM   28  C   UNL     1      -7.207  -0.115 -32.279  1.00  0.00     0.107 A 
HETATM   29  C   UNL     1      -6.012  -0.751 -32.612  1.00  0.00     0.102 A 
HETATM   30  C   UNL     1      -5.771  -1.136 -33.925  1.00  0.00     0.039 A 
HETATM   31  C   UNL     1      -6.749  -0.912 -34.897  1.00  0.00     0.003 A 
HETATM   32  C   UNL     1      -7.956  -0.287 -34.560  1.00  0.00     0.012 A 
BRANCH  28  33
HETATM   33  O   UNL     1      -7.406   0.331 -31.001  1.00  0.00    -0.357 OA
HETATM   34  H   UNL     1      -6.548   0.694 -30.692  1.00  0.00     0.218 HD
ENDBRANCH  28  33
BRANCH  29  35
HETATM   35  O   UNL     1      -5.035  -0.902 -31.668  1.00  0.00    -0.349 OA
BRANCH  35  36
HETATM   36  C   UNL     1      -3.881  -1.560 -32.211  1.00  0.00     0.171 C 
HETATM   37  C   UNL     1      -2.651  -0.771 -31.809  1.00  0.00     0.034 C 
ENDBRANCH  35  36
ENDBRANCH  29  35
ENDBRANCH  26  27
ENDBRANCH   4  26
TORSDOF 10
ENDMDL
MODEL 7
REMARK VINA RESULT:      -8.1      1.396      1.592
REMARK  10 active torsions:
REMARK  status: ('A' for Active; 'I' for Inactive)
REMARK    1  A    between atoms: C_2  and  C_3 
REMARK    2  A    between atoms: C_3  and  C_4 
REMARK    3  A    between atoms: N_7  and  C_9 
REMARK    4  A    between atoms: C_9  and  C_10 
REMARK    5  A    between atoms: C_11  and  O_12 
REMARK    6  A    between atoms: C_13  and  O_14 
REMARK    7  A    between atoms: O_14  and  C_15 
REMARK    8  A    between atoms: N_25  and  C_26 
REMARK    9  A    between atoms: C_26  and  C_27 
REMARK   10  A    between atoms: C_27  and  C_28 
ROOT
HETATM    1  C   UNL     1      -6.846   2.218 -30.222  1.00  0.00     0.026 C 
HETATM    2  C   UNL     1      -7.288   3.682 -30.046  1.00  0.00     0.035 C 
HETATM    3  C   UNL     1      -6.497   4.685 -30.877  1.00  0.00     0.235 C 
HETATM    4  N   UNL     1      -5.007   4.521 -30.706  1.00  0.00    -0.067 N 
HETATM    5  H   UNL     1      -4.754   4.810 -29.753  1.00  0.00     0.280 HD
HETATM    6  C   UNL     1      -4.527   3.099 -30.860  1.00  0.00     0.235 C 
HETATM    7  C   UNL     1      -5.327   2.162 -29.974  1.00  0.00     0.035 C 
ENDROOT
BRANCH   1   8
HETATM    8  C   UNL     1      -7.342   1.529 -31.537  1.00  0.00     0.119 C 
HETATM    9  N   UNL     1      -7.127   2.330 -32.729  1.00  0.00    -0.324 N 
HETATM   10  C   UNL     1      -6.446   1.629 -33.704  1.00  0.00     0.326 C 
HETATM   11  H   UNL     1      -7.796   2.997 -33.095  1.00  0.00     0.165 HD
HETATM   12  O   UNL     1      -6.357   2.021 -34.854  1.00  0.00    -0.247 OA
HETATM   13  N   UNL     1      -5.941   0.495 -33.160  1.00  0.00    -0.268 N 
HETATM   14  C   UNL     1      -6.446   0.315 -31.901  1.00  0.00     0.256 C 
HETATM   15  O   UNL     1      -6.236  -0.637 -31.163  1.00  0.00    -0.270 OA
BRANCH   8  16
HETATM   16  C   UNL     1      -8.823   1.084 -31.531  1.00  0.00     0.037 C 
HETATM   17  C   UNL     1      -9.780   1.941 -32.346  1.00  0.00     0.008 C 
ENDBRANCH   8  16
BRANCH  13  18
HETATM   18  C   UNL     1      -5.193  -0.513 -33.898  1.00  0.00     0.142 C 
BRANCH  18  19
HETATM   19  C   UNL     1      -6.064  -1.684 -34.369  1.00  0.00     0.068 C 
BRANCH  19  20
HETATM   20  C   UNL     1      -5.351  -2.993 -34.234  1.00  0.00     0.010 A 
HETATM   21  S   UNL     1      -3.883  -3.103 -33.348  1.00  0.00    -0.085 SA
HETATM   22  C   UNL     1      -3.810  -4.775 -33.705  1.00  0.00     0.166 A 
HETATM   23  N   UNL     1      -4.796  -5.251 -34.429  1.00  0.00    -0.258 NA
HETATM   24  C   UNL     1      -5.686  -4.239 -34.743  1.00  0.00     0.044 A 
HETATM   25  C   UNL     1      -6.875  -4.583 -35.569  1.00  0.00     0.071 C 
ENDBRANCH  19  20
ENDBRANCH  18  19
ENDBRANCH  13  18
ENDBRANCH   1   8
BRANCH   4  26
HETATM   26  C   UNL     1      -4.285   5.493 -31.648  1.00  0.00     0.276 C 
BRANCH  26  27
HETATM   27  C   UNL     1      -2.814   5.685 -31.408  1.00  0.00     0.004 A 
HETATM   28  C   UNL     1      -2.363   6.233 -30.200  1.00  0.00     0.107 A 
HETATM   29  C   UNL     1      -1.006   6.443 -29.963  1.00  0.00     0.102 A 
HETATM   30  C   UNL     1      -0.072   6.138 -30.945  1.00  0.00     0.039 A 
HETATM   31  C   UNL     1      -0.502   5.587 -32.154  1.00  0.00     0.003 A 
HETATM   32  C   UNL     1      -1.864   5.361 -32.388  1.00  0.00     0.012 A 
BRANCH  28  33
HETATM   33  O   UNL     1      -3.283   6.608 -29.259  1.00  0.00    -0.357 OA
HETATM   34  H   UNL     1      -2.966   6.258 -28.400  1.00  0.00     0.218 HD
ENDBRANCH  28  33
BRANCH  29  35
HETATM   35  O   UNL     1      -0.603   7.047 -28.805  1.00  0.00    -0.349 OA
BRANCH  35  36
HETATM   36  C   UNL     1       0.385   6.260 -28.121  1.00  0.00     0.171 C 
HETATM   37  C   UNL     1       1.072   7.144 -27.099  1.00  0.00     0.034 C 
ENDBRANCH  35  36
ENDBRANCH  29  35
ENDBRANCH  26  27
ENDBRANCH   4  26
TORSDOF 10
ENDMDL
MODEL 8
REMARK VINA RESULT:      -7.9      4.332      7.690
REMARK  10 active torsions:
REMARK  status: ('A' for Active; 'I' for Inactive)
REMARK    1  A    between atoms: C_2  and  C_3 
REMARK    2  A    between atoms: C_3  and  C_4 
REMARK    3  A    between atoms: N_7  and  C_9 
REMARK    4  A    between atoms: C_9  and  C_10 
REMARK    5  A    between atoms: C_11  and  O_12 
REMARK    6  A    between atoms: C_13  and  O_14 
REMARK    7  A    between atoms: O_14  and  C_15 
REMARK    8  A    between atoms: N_25  and  C_26 
REMARK    9  A    between atoms: C_26  and  C_27 
REMARK   10  A    between atoms: C_27  and  C_28 
ROOT
HETATM    1  C   UNL     1      -6.317   1.870 -31.018  1.00  0.00     0.026 C 
HETATM    2  C   UNL     1      -4.939   2.255 -30.450  1.00  0.00     0.035 C 
HETATM    3  C   UNL     1      -3.779   1.431 -30.994  1.00  0.00     0.235 C 
HETATM    4  N   UNL     1      -4.036  -0.053 -30.897  1.00  0.00    -0.067 N 
HETATM    5  H   UNL     1      -4.022  -0.322 -29.906  1.00  0.00     0.280 HD
HETATM    6  C   UNL     1      -5.381  -0.477 -31.433  1.00  0.00     0.235 C 
HETATM    7  C   UNL     1      -6.491   0.354 -30.818  1.00  0.00     0.035 C 
ENDROOT
BRANCH   1   8
HETATM    8  C   UNL     1      -6.611   2.400 -32.461  1.00  0.00     0.119 C 
HETATM    9  N   UNL     1      -6.415   1.401 -33.497  1.00  0.00    -0.324 N 
HETATM   10  C   UNL     1      -7.527   1.275 -34.306  1.00  0.00     0.326 C 
HETATM   11  H   UNL     1      -5.537   1.244 -33.978  1.00  0.00     0.165 HD
HETATM   12  O   UNL     1      -7.505   0.669 -35.363  1.00  0.00    -0.247 OA
HETATM   13  N   UNL     1      -8.568   1.923 -33.729  1.00  0.00    -0.268 N 
HETATM   14  C   UNL     1      -8.128   2.657 -32.661  1.00  0.00     0.256 C 
HETATM   15  O   UNL     1      -8.804   3.398 -31.962  1.00  0.00    -0.270 OA
BRANCH   8  16
HETATM   16  C   UNL     1      -5.822   3.665 -32.874  1.00  0.00     0.037 C 
HETATM   17  C   UNL     1      -6.498   4.568 -33.895  1.00  0.00     0.008 C 
ENDBRANCH   8  16
BRANCH  13  18
HETATM   18  C   UNL     1      -9.897   2.035 -34.314  1.00  0.00     0.142 C 
BRANCH  18  19
HETATM   19  C   UNL     1     -10.882   0.994 -33.770  1.00  0.00     0.068 C 
BRANCH  19  20
HETATM   20  C   UNL     1     -12.210   1.605 -33.445  1.00  0.00     0.010 A 
HETATM   21  S   UNL     1     -12.329   3.266 -33.027  1.00  0.00    -0.085 SA
HETATM   22  C   UNL     1     -14.020   3.083 -32.839  1.00  0.00     0.166 A 
HETATM   23  N   UNL     1     -14.496   1.880 -33.066  1.00  0.00    -0.258 NA
HETATM   24  C   UNL     1     -13.467   1.021 -33.411  1.00  0.00     0.044 A 
HETATM   25  C   UNL     1     -13.809  -0.398 -33.703  1.00  0.00     0.071 C 
ENDBRANCH  19  20
ENDBRANCH  18  19
ENDBRANCH  13  18
ENDBRANCH   1   8
BRANCH   4  26
HETATM   26  C   UNL     1      -2.874  -0.807 -31.556  1.00  0.00     0.276 C 
BRANCH  26  27
HETATM   27  C   UNL     1      -3.230  -2.062 -32.300  1.00  0.00     0.004 A 
HETATM   28  C   UNL     1      -3.930  -1.990 -33.511  1.00  0.00     0.107 A 
HETATM   29  C   UNL     1      -4.294  -3.141 -34.208  1.00  0.00     0.102 A 
HETATM   30  C   UNL     1      -3.991  -4.393 -33.689  1.00  0.00     0.039 A 
HETATM   31  C   UNL     1      -3.290  -4.486 -32.484  1.00  0.00     0.003 A 
HETATM   32  C   UNL     1      -2.911  -3.330 -31.791  1.00  0.00     0.012 A 
BRANCH  28  33
HETATM   33  O   UNL     1      -4.299  -0.761 -33.988  1.00  0.00    -0.357 OA
HETATM   34  H   UNL     1      -4.068  -0.748 -34.941  1.00  0.00     0.218 HD
ENDBRANCH  28  33
BRANCH  29  35
HETATM   35  O   UNL     1      -5.040  -3.038 -35.348  1.00  0.00    -0.349 OA
BRANCH  35  36
HETATM   36  C   UNL     1      -6.329  -3.649 -35.186  1.00  0.00     0.171 C 
HETATM   37  C   UNL     1      -7.199  -2.712 -34.373  1.00  0.00     0.034 C 
ENDBRANCH  35  36
ENDBRANCH  29  35
ENDBRANCH  26  27
ENDBRANCH   4  26
TORSDOF 10
ENDMDL
MODEL 9
REMARK VINA RESULT:      -7.9      3.010      4.668
REMARK  10 active torsions:
REMARK  status: ('A' for Active; 'I' for Inactive)
REMARK    1  A    between atoms: C_2  and  C_3 
REMARK    2  A    between atoms: C_3  and  C_4 
REMARK    3  A    between atoms: N_7  and  C_9 
REMARK    4  A    between atoms: C_9  and  C_10 
REMARK    5  A    between atoms: C_11  and  O_12 
REMARK    6  A    between atoms: C_13  and  O_14 
REMARK    7  A    between atoms: O_14  and  C_15 
REMARK    8  A    between atoms: N_25  and  C_26 
REMARK    9  A    between atoms: C_26  and  C_27 
REMARK   10  A    between atoms: C_27  and  C_28 
ROOT
HETATM    1  C   UNL     1      -5.745   2.178 -31.080  1.00  0.00     0.026 C 
HETATM    2  C   UNL     1      -5.422   3.453 -30.280  1.00  0.00     0.035 C 
HETATM    3  C   UNL     1      -4.361   4.345 -30.913  1.00  0.00     0.235 C 
HETATM    4  N   UNL     1      -3.114   3.578 -31.282  1.00  0.00    -0.067 N 
HETATM    5  H   UNL     1      -2.641   3.291 -30.416  1.00  0.00     0.280 HD
HETATM    6  C   UNL     1      -3.382   2.313 -32.059  1.00  0.00     0.235 C 
HETATM    7  C   UNL     1      -4.413   1.454 -31.351  1.00  0.00     0.035 C 
ENDROOT
BRANCH   1   8
HETATM    8  C   UNL     1      -6.663   2.393 -32.329  1.00  0.00     0.119 C 
HETATM    9  N   UNL     1      -6.379   1.481 -33.423  1.00  0.00    -0.324 N 
HETATM   10  C   UNL     1      -7.512   0.816 -33.846  1.00  0.00     0.326 C 
HETATM   11  H   UNL     1      -5.712   1.670 -34.163  1.00  0.00     0.165 HD
HETATM   12  O   UNL     1      -7.552   0.182 -34.885  1.00  0.00    -0.247 OA
HETATM   13  N   UNL     1      -8.500   1.008 -32.939  1.00  0.00    -0.268 N 
HETATM   14  C   UNL     1      -8.122   1.957 -32.028  1.00  0.00     0.256 C 
HETATM   15  O   UNL     1      -8.803   2.400 -31.115  1.00  0.00    -0.270 OA
BRANCH   8  16
HETATM   16  C   UNL     1      -6.670   3.829 -32.904  1.00  0.00     0.037 C 
HETATM   17  C   UNL     1      -5.856   4.042 -34.172  1.00  0.00     0.008 C 
ENDBRANCH   8  16
BRANCH  13  18
HETATM   18  C   UNL     1      -9.854   0.486 -33.069  1.00  0.00     0.142 C 
BRANCH  18  19
HETATM   19  C   UNL     1     -10.672   1.202 -34.151  1.00  0.00     0.068 C 
BRANCH  19  20
HETATM   20  C   UNL     1     -12.044   1.552 -33.666  1.00  0.00     0.010 A 
HETATM   21  S   UNL     1     -13.355   0.465 -33.892  1.00  0.00    -0.085 SA
HETATM   22  C   UNL     1     -14.396   1.583 -33.119  1.00  0.00     0.166 A 
HETATM   23  N   UNL     1     -13.837   2.698 -32.707  1.00  0.00    -0.258 NA
HETATM   24  C   UNL     1     -12.488   2.695 -33.017  1.00  0.00     0.044 A 
HETATM   25  C   UNL     1     -11.679   3.882 -32.633  1.00  0.00     0.071 C 
ENDBRANCH  19  20
ENDBRANCH  18  19
ENDBRANCH  13  18
ENDBRANCH   1   8
BRANCH   4  26
HETATM   26  C   UNL     1      -2.142   4.520 -32.003  1.00  0.00     0.276 C 
BRANCH  26  27
HETATM   27  C   UNL     1      -1.596   5.661 -31.193  1.00  0.00     0.004 A 
HETATM   28  C   UNL     1      -0.605   5.431 -30.230  1.00  0.00     0.107 A 
HETATM   29  C   UNL     1      -0.099   6.469 -29.449  1.00  0.00     0.102 A 
HETATM   30  C   UNL     1      -0.599   7.756 -29.594  1.00  0.00     0.039 A 
HETATM   31  C   UNL     1      -1.585   8.007 -30.551  1.00  0.00     0.003 A 
HETATM   32  C   UNL     1      -2.083   6.967 -31.347  1.00  0.00     0.012 A 
BRANCH  28  33
HETATM   33  O   UNL     1      -0.163   4.151 -30.028  1.00  0.00    -0.357 OA
HETATM   34  H   UNL     1      -0.802   3.559 -30.478  1.00  0.00     0.218 HD
ENDBRANCH  28  33
BRANCH  29  35
HETATM   35  O   UNL     1       0.815   6.199 -28.469  1.00  0.00    -0.349 OA
BRANCH  35  36
HETATM   36  C   UNL     1       0.391   6.725 -27.201  1.00  0.00     0.171 C 
HETATM   37  C   UNL     1       1.534   7.531 -26.616  1.00  0.00     0.034 C 
ENDBRANCH  35  36
ENDBRANCH  29  35
ENDBRANCH  26  27
ENDBRANCH   4  26
TORSDOF 10
ENDMDL
MODEL 10
REMARK VINA RESULT:      -7.8      1.991      3.328
REMARK  10 active torsions:
REMARK  status: ('A' for Active; 'I' for Inactive)
REMARK    1  A    between atoms: C_2  and  C_3 
REMARK    2  A    between atoms: C_3  and  C_4 
REMARK    3  A    between atoms: N_7  and  C_9 
REMARK    4  A    between atoms: C_9  and  C_10 
REMARK    5  A    between atoms: C_11  and  O_12 
REMARK    6  A    between atoms: C_13  and  O_14 
REMARK    7  A    between atoms: O_14  and  C_15 
REMARK    8  A    between atoms: N_25  and  C_26 
REMARK    9  A    between atoms: C_26  and  C_27 
REMARK   10  A    between atoms: C_27  and  C_28 
ROOT
HETATM    1  C   UNL     1      -5.660   4.182 -31.410  1.00  0.00     0.026 C 
HETATM    2  C   UNL     1      -6.155   5.357 -32.273  1.00  0.00     0.035 C 
HETATM    3  C   UNL     1      -5.159   6.502 -32.413  1.00  0.00     0.235 C 
HETATM    4  N   UNL     1      -4.628   6.965 -31.078  1.00  0.00    -0.067 N 
HETATM    5  H   UNL     1      -5.390   7.427 -30.567  1.00  0.00     0.280 HD
HETATM    6  C   UNL     1      -4.139   5.846 -30.193  1.00  0.00     0.235 C 
HETATM    7  C   UNL     1      -5.195   4.763 -30.062  1.00  0.00     0.035 C 
ENDROOT
BRANCH   1   8
HETATM    8  C   UNL     1      -4.646   3.221 -32.118  1.00  0.00     0.119 C 
HETATM    9  N   UNL     1      -3.626   2.696 -31.227  1.00  0.00    -0.324 N 
HETATM   10  C   UNL     1      -3.559   1.319 -31.277  1.00  0.00     0.326 C 
HETATM   11  H   UNL     1      -2.733   3.145 -31.057  1.00  0.00     0.165 HD
HETATM   12  O   UNL     1      -2.637   0.687 -30.793  1.00  0.00    -0.247 OA
HETATM   13  N   UNL     1      -4.646   0.849 -31.937  1.00  0.00    -0.268 N 
HETATM   14  C   UNL     1      -5.329   1.886 -32.512  1.00  0.00     0.256 C 
HETATM   15  O   UNL     1      -6.321   1.797 -33.221  1.00  0.00    -0.270 OA
BRANCH   8  16
HETATM   16  C   UNL     1      -3.931   3.812 -33.356  1.00  0.00     0.037 C 
HETATM   17  C   UNL     1      -2.453   4.130 -33.182  1.00  0.00     0.008 C 
ENDBRANCH   8  16
BRANCH  13  18
HETATM   18  C   UNL     1      -4.898  -0.558 -32.216  1.00  0.00     0.142 C 
BRANCH  18  19
HETATM   19  C   UNL     1      -4.276  -1.030 -33.535  1.00  0.00     0.068 C 
BRANCH  19  20
HETATM   20  C   UNL     1      -4.979  -2.234 -34.079  1.00  0.00     0.010 A 
HETATM   21  S   UNL     1      -4.202  -3.766 -34.098  1.00  0.00    -0.085 SA
HETATM   22  C   UNL     1      -5.598  -4.449 -34.817  1.00  0.00     0.166 A 
HETATM   23  N   UNL     1      -6.592  -3.620 -35.040  1.00  0.00    -0.258 NA
HETATM   24  C   UNL     1      -6.249  -2.345 -34.625  1.00  0.00     0.044 A 
HETATM   25  C   UNL     1      -7.251  -1.259 -34.800  1.00  0.00     0.071 C 
ENDBRANCH  19  20
ENDBRANCH  18  19
ENDBRANCH  13  18
ENDBRANCH   1   8
BRANCH   4  26
HETATM   26  C   UNL     1      -3.561   8.043 -31.310  1.00  0.00     0.276 C 
BRANCH  26  27
HETATM   27  C   UNL     1      -2.155   7.683 -30.922  1.00  0.00     0.004 A 
HETATM   28  C   UNL     1      -1.725   7.846 -29.599  1.00  0.00     0.107 A 
HETATM   29  C   UNL     1      -0.419   7.542 -29.220  1.00  0.00     0.102 A 
HETATM   30  C   UNL     1       0.495   7.097 -30.166  1.00  0.00     0.039 A 
HETATM   31  C   UNL     1       0.085   6.925 -31.490  1.00  0.00     0.003 A 
HETATM   32  C   UNL     1      -1.232   7.215 -31.869  1.00  0.00     0.012 A 
BRANCH  28  33
HETATM   33  O   UNL     1      -2.599   8.357 -28.679  1.00  0.00    -0.357 OA
HETATM   34  H   UNL     1      -3.466   7.930 -28.846  1.00  0.00     0.218 HD
ENDBRANCH  28  33
BRANCH  29  35
HETATM   35  O   UNL     1      -0.010   7.781 -27.938  1.00  0.00    -0.349 OA
BRANCH  35  36
HETATM   36  C   UNL     1       1.316   8.331 -27.906  1.00  0.00     0.171 C 
HETATM   37  C   UNL     1       1.307   9.540 -26.992  1.00  0.00     0.034 C 
ENDBRANCH  35  36
ENDBRANCH  29  35
ENDBRANCH  26  27
ENDBRANCH   4  26
TORSDOF 10
ENDMDL
