MODEL 1
REMARK VINA RESULT:      -8.9      0.000      0.000
REMARK  7 active torsions:
REMARK  status: ('A' for Active; 'I' for Inactive)
REMARK    1  A    between atoms: C_11  and  N_12 
REMARK       I    between atoms: N_12  and  C_13 
REMARK    2  A    between atoms: C_13  and  C_14 
REMARK    3  A    between atoms: C_14  and  S_15 
REMARK    4  A    between atoms: S_15  and  C_16 
REMARK    5  A    between atoms: N_17  and  C_18 
REMARK    6  A    between atoms: C_18  and  C_19 
REMARK    7  A    between atoms: C_25  and  C_26 
ROOT
HETATM    1  N   UNL     1      -6.973   3.465 -32.005  1.00  0.00    -0.326 N 
HETATM    2  C   UNL     1      -7.606   2.953 -33.128  1.00  0.00     0.231 C 
HETATM    3  O   UNL     1      -7.138   2.922 -34.263  1.00  0.00    -0.272 OA
HETATM    4  H   UNL     1      -7.552   3.560 -31.178  1.00  0.00     0.169 HD
ENDROOT
BRANCH   2   5
HETATM    5  C   UNL     1      -8.958   2.322 -32.837  1.00  0.00     0.185 C 
BRANCH   5   6
HETATM    6  S   UNL     1      -8.905   0.507 -32.974  1.00  0.00    -0.081 SA
BRANCH   6   7
HETATM    7  C   UNL     1      -7.421   0.203 -32.130  1.00  0.00     0.192 A 
HETATM    8  N   UNL     1      -6.285  -0.339 -32.686  1.00  0.00    -0.307 N 
HETATM    9  C   UNL     1      -5.368  -0.378 -31.655  1.00  0.00     0.135 A 
HETATM   10  N   UNL     1      -5.938   0.112 -30.568  1.00  0.00    -0.134 NA
HETATM   11  N   UNL     1      -7.223   0.460 -30.861  1.00  0.00    -0.123 NA
BRANCH   8  12
HETATM   12  C   UNL     1      -6.091  -0.648 -34.091  1.00  0.00     0.171 C 
BRANCH  12  13
HETATM   13  C   UNL     1      -5.890  -2.114 -34.393  1.00  0.00    -0.040 A 
HETATM   14  C   UNL     1      -4.623  -2.713 -34.469  1.00  0.00     0.009 A 
HETATM   15  C   UNL     1      -4.495  -4.078 -34.736  1.00  0.00     0.001 A 
HETATM   16  C   UNL     1      -5.627  -4.868 -34.911  1.00  0.00     0.000 A 
HETATM   17  C   UNL     1      -6.893  -4.297 -34.812  1.00  0.00     0.001 A 
HETATM   18  C   UNL     1      -7.024  -2.931 -34.548  1.00  0.00     0.009 A 
ENDBRANCH  12  13
ENDBRANCH   8  12
BRANCH   9  19
HETATM   19  C   UNL     1      -3.923  -0.852 -31.545  1.00  0.00     0.057 A 
HETATM   20  C   UNL     1      -2.873  -0.354 -32.509  1.00  0.00     0.013 A 
HETATM   21  C   UNL     1      -2.783   0.009 -31.065  1.00  0.00     0.013 A 
ENDBRANCH   9  19
ENDBRANCH   6   7
ENDBRANCH   5   6
ENDBRANCH   2   5
BRANCH   1  22
HETATM   22  C   UNL     1      -5.655   3.963 -31.921  1.00  0.00     0.037 A 
HETATM   23  C   UNL     1      -4.525   3.147 -31.821  1.00  0.00     0.032 A 
HETATM   24  C   UNL     1      -3.247   3.708 -31.716  1.00  0.00     0.041 A 
HETATM   25  C   UNL     1      -3.086   5.089 -31.727  1.00  0.00     0.096 A 
HETATM   26  O   UNL     1      -1.810   5.553 -31.596  1.00  0.00    -0.335 OA
HETATM   27  C   UNL     1      -4.208   5.912 -31.823  1.00  0.00     0.070 A 
HETATM   28  C   UNL     1      -1.629   6.930 -31.921  1.00  0.00     0.217 C 
HETATM   29  C   UNL     1      -1.080   7.010 -33.344  1.00  0.00     0.050 C 
HETATM   30  C   UNL     1      -2.822   7.886 -31.787  1.00  0.00     0.251 C 
HETATM   31  N   UNL     1      -4.057   7.297 -31.810  1.00  0.00    -0.323 N 
HETATM   32  O   UNL     1      -2.706   9.109 -31.736  1.00  0.00    -0.270 OA
HETATM   33  H   UNL     1      -4.856   7.916 -31.796  1.00  0.00     0.169 HD
HETATM   34  C   UNL     1      -5.489   5.355 -31.909  1.00  0.00     0.062 A 
ENDBRANCH   1  22
TORSDOF 7
ENDMDL
MODEL 2
REMARK VINA RESULT:      -8.6      1.163      2.074
REMARK  7 active torsions:
REMARK  status: ('A' for Active; 'I' for Inactive)
REMARK    1  A    between atoms: C_11  and  N_12 
REMARK       I    between atoms: N_12  and  C_13 
REMARK    2  A    between atoms: C_13  and  C_14 
REMARK    3  A    between atoms: C_14  and  S_15 
REMARK    4  A    between atoms: S_15  and  C_16 
REMARK    5  A    between atoms: N_17  and  C_18 
REMARK    6  A    between atoms: C_18  and  C_19 
REMARK    7  A    between atoms: C_25  and  C_26 
ROOT
HETATM    1  N   UNL     1      -8.198   3.514 -31.960  1.00  0.00    -0.326 N 
HETATM    2  C   UNL     1      -8.836   2.976 -33.068  1.00  0.00     0.231 C 
HETATM    3  O   UNL     1      -8.595   3.254 -34.240  1.00  0.00    -0.272 OA
HETATM    4  H   UNL     1      -8.619   3.301 -31.063  1.00  0.00     0.169 HD
ENDROOT
BRANCH   2   5
HETATM    5  C   UNL     1      -9.855   1.900 -32.728  1.00  0.00     0.185 C 
BRANCH   5   6
HETATM    6  S   UNL     1      -9.281   0.242 -33.218  1.00  0.00    -0.081 SA
BRANCH   6   7
HETATM    7  C   UNL     1      -7.801   0.177 -32.316  1.00  0.00     0.192 A 
HETATM    8  N   UNL     1      -6.594  -0.276 -32.796  1.00  0.00    -0.307 N 
HETATM    9  C   UNL     1      -5.714  -0.127 -31.743  1.00  0.00     0.135 A 
HETATM   10  N   UNL     1      -6.371   0.381 -30.716  1.00  0.00    -0.134 NA
HETATM   11  N   UNL     1      -7.676   0.556 -31.068  1.00  0.00    -0.123 NA
BRANCH   8  12
HETATM   12  C   UNL     1      -6.320  -0.673 -34.164  1.00  0.00     0.171 C 
BRANCH  12  13
HETATM   13  C   UNL     1      -6.026  -2.143 -34.349  1.00  0.00    -0.040 A 
HETATM   14  C   UNL     1      -7.016  -3.086 -34.666  1.00  0.00     0.009 A 
HETATM   15  C   UNL     1      -6.686  -4.432 -34.841  1.00  0.00     0.001 A 
HETATM   16  C   UNL     1      -5.365  -4.852 -34.724  1.00  0.00     0.000 A 
HETATM   17  C   UNL     1      -4.366  -3.926 -34.437  1.00  0.00     0.001 A 
HETATM   18  C   UNL     1      -4.693  -2.580 -34.257  1.00  0.00     0.009 A 
ENDBRANCH  12  13
ENDBRANCH   8  12
BRANCH   9  19
HETATM   19  C   UNL     1      -4.230  -0.424 -31.558  1.00  0.00     0.057 A 
HETATM   20  C   UNL     1      -3.197   0.222 -32.452  1.00  0.00     0.013 A 
HETATM   21  C   UNL     1      -3.233   0.558 -30.998  1.00  0.00     0.013 A 
ENDBRANCH   9  19
ENDBRANCH   6   7
ENDBRANCH   5   6
ENDBRANCH   2   5
BRANCH   1  22
HETATM   22  C   UNL     1      -7.105   4.405 -31.955  1.00  0.00     0.037 A 
HETATM   23  C   UNL     1      -7.227   5.781 -32.168  1.00  0.00     0.032 A 
HETATM   24  C   UNL     1      -6.097   6.606 -32.175  1.00  0.00     0.041 A 
HETATM   25  C   UNL     1      -4.835   6.065 -31.950  1.00  0.00     0.096 A 
HETATM   26  O   UNL     1      -3.784   6.934 -31.997  1.00  0.00    -0.335 OA
HETATM   27  C   UNL     1      -4.702   4.694 -31.739  1.00  0.00     0.070 A 
HETATM   28  C   UNL     1      -2.561   6.435 -31.463  1.00  0.00     0.217 C 
HETATM   29  C   UNL     1      -2.414   6.969 -30.040  1.00  0.00     0.050 C 
HETATM   30  C   UNL     1      -2.317   4.919 -31.459  1.00  0.00     0.251 C 
HETATM   31  N   UNL     1      -3.439   4.140 -31.537  1.00  0.00    -0.323 N 
HETATM   32  O   UNL     1      -1.204   4.413 -31.321  1.00  0.00    -0.270 OA
HETATM   33  H   UNL     1      -3.305   3.141 -31.464  1.00  0.00     0.169 HD
HETATM   34  C   UNL     1      -5.828   3.863 -31.751  1.00  0.00     0.062 A 
ENDBRANCH   1  22
TORSDOF 7
ENDMDL
MODEL 3
REMARK VINA RESULT:      -8.6      2.848      8.570
REMARK  7 active torsions:
REMARK  status: ('A' for Active; 'I' for Inactive)
REMARK    1  A    between atoms: C_11  and  N_12 
REMARK       I    between atoms: N_12  and  C_13 
REMARK    2  A    between atoms: C_13  and  C_14 
REMARK    3  A    between atoms: C_14  and  S_15 
REMARK    4  A    between atoms: S_15  and  C_16 
REMARK    5  A    between atoms: N_17  and  C_18 
REMARK    6  A    between atoms: C_18  and  C_19 
REMARK    7  A    between atoms: C_25  and  C_26 
ROOT
HETATM    1  N   UNL     1      -6.669   1.389 -32.241  1.00  0.00    -0.326 N 
HETATM    2  C   UNL     1      -6.511   1.943 -30.979  1.00  0.00     0.231 C 
HETATM    3  O   UNL     1      -5.763   1.523 -30.100  1.00  0.00    -0.272 OA
HETATM    4  H   UNL     1      -7.437   1.757 -32.790  1.00  0.00     0.169 HD
ENDROOT
BRANCH   2   5
HETATM    5  C   UNL     1      -7.304   3.222 -30.766  1.00  0.00     0.185 C 
BRANCH   5   6
HETATM    6  S   UNL     1      -6.226   4.629 -30.347  1.00  0.00    -0.081 SA
BRANCH   6   7
HETATM    7  C   UNL     1      -5.638   5.016 -31.932  1.00  0.00     0.192 A 
HETATM    8  N   UNL     1      -4.327   4.927 -32.339  1.00  0.00    -0.307 N 
HETATM    9  C   UNL     1      -4.339   5.315 -33.664  1.00  0.00     0.135 A 
HETATM   10  N   UNL     1      -5.581   5.612 -34.003  1.00  0.00    -0.134 NA
HETATM   11  N   UNL     1      -6.389   5.440 -32.918  1.00  0.00    -0.123 NA
BRANCH   8  12
HETATM   12  C   UNL     1      -3.229   4.391 -31.556  1.00  0.00     0.171 C 
BRANCH  12  13
HETATM   13  C   UNL     1      -2.185   5.407 -31.155  1.00  0.00    -0.040 A 
HETATM   14  C   UNL     1      -2.506   6.700 -30.713  1.00  0.00     0.009 A 
HETATM   15  C   UNL     1      -1.501   7.594 -30.339  1.00  0.00     0.001 A 
HETATM   16  C   UNL     1      -0.165   7.206 -30.381  1.00  0.00     0.000 A 
HETATM   17  C   UNL     1       0.170   5.918 -30.790  1.00  0.00     0.001 A 
HETATM   18  C   UNL     1      -0.833   5.023 -31.169  1.00  0.00     0.009 A 
ENDBRANCH  12  13
ENDBRANCH   8  12
BRANCH   9  19
HETATM   19  C   UNL     1      -3.260   5.459 -34.731  1.00  0.00     0.057 A 
HETATM   20  C   UNL     1      -2.037   6.311 -34.480  1.00  0.00     0.013 A 
HETATM   21  C   UNL     1      -1.891   4.835 -34.641  1.00  0.00     0.013 A 
ENDBRANCH   9  19
ENDBRANCH   6   7
ENDBRANCH   5   6
ENDBRANCH   2   5
BRANCH   1  22
HETATM   22  C   UNL     1      -5.952   0.306 -32.792  1.00  0.00     0.037 A 
HETATM   23  C   UNL     1      -4.556   0.247 -32.841  1.00  0.00     0.032 A 
HETATM   24  C   UNL     1      -3.909  -0.847 -33.426  1.00  0.00     0.041 A 
HETATM   25  C   UNL     1      -4.649  -1.899 -33.951  1.00  0.00     0.096 A 
HETATM   26  O   UNL     1      -3.941  -2.915 -34.525  1.00  0.00    -0.335 OA
HETATM   27  C   UNL     1      -6.042  -1.849 -33.911  1.00  0.00     0.070 A 
HETATM   28  C   UNL     1      -4.682  -4.108 -34.769  1.00  0.00     0.217 C 
HETATM   29  C   UNL     1      -4.388  -5.087 -33.635  1.00  0.00     0.050 C 
HETATM   30  C   UNL     1      -6.200  -4.010 -34.970  1.00  0.00     0.251 C 
HETATM   31  N   UNL     1      -6.792  -2.888 -34.458  1.00  0.00    -0.323 N 
HETATM   32  O   UNL     1      -6.873  -4.901 -35.485  1.00  0.00    -0.270 OA
HETATM   33  H   UNL     1      -7.801  -2.839 -34.516  1.00  0.00     0.169 HD
HETATM   34  C   UNL     1      -6.694  -0.747 -33.344  1.00  0.00     0.062 A 
ENDBRANCH   1  22
TORSDOF 7
ENDMDL
MODEL 4
REMARK VINA RESULT:      -8.2      3.879      8.476
REMARK  7 active torsions:
REMARK  status: ('A' for Active; 'I' for Inactive)
REMARK    1  A    between atoms: C_11  and  N_12 
REMARK       I    between atoms: N_12  and  C_13 
REMARK    2  A    between atoms: C_13  and  C_14 
REMARK    3  A    between atoms: C_14  and  S_15 
REMARK    4  A    between atoms: S_15  and  C_16 
REMARK    5  A    between atoms: N_17  and  C_18 
REMARK    6  A    between atoms: C_18  and  C_19 
REMARK    7  A    between atoms: C_25  and  C_26 
ROOT
HETATM    1  N   UNL     1      -6.730   1.365 -32.188  1.00  0.00    -0.326 N 
HETATM    2  C   UNL     1      -6.833   1.708 -30.848  1.00  0.00     0.231 C 
HETATM    3  O   UNL     1      -6.347   1.084 -29.908  1.00  0.00    -0.272 OA
HETATM    4  H   UNL     1      -7.318   1.893 -32.824  1.00  0.00     0.169 HD
ENDROOT
BRANCH   2   5
HETATM    5  C   UNL     1      -7.558   3.022 -30.603  1.00  0.00     0.185 C 
BRANCH   5   6
HETATM    6  S   UNL     1      -9.364   2.842 -30.762  1.00  0.00    -0.081 SA
BRANCH   6   7
HETATM    7  C   UNL     1      -9.578   3.518 -32.344  1.00  0.00     0.192 A 
HETATM    8  N   UNL     1     -10.789   3.792 -32.936  1.00  0.00    -0.307 N 
HETATM    9  C   UNL     1     -10.470   4.328 -34.168  1.00  0.00     0.135 A 
HETATM   10  N   UNL     1      -9.154   4.362 -34.283  1.00  0.00    -0.134 NA
HETATM   11  N   UNL     1      -8.598   3.843 -33.151  1.00  0.00    -0.123 NA
BRANCH   8  12
HETATM   12  C   UNL     1     -12.090   3.669 -32.306  1.00  0.00     0.171 C 
BRANCH  12  13
HETATM   13  C   UNL     1     -12.944   2.541 -32.835  1.00  0.00    -0.040 A 
HETATM   14  C   UNL     1     -14.345   2.542 -32.758  1.00  0.00     0.009 A 
HETATM   15  C   UNL     1     -15.088   1.480 -33.279  1.00  0.00     0.001 A 
HETATM   16  C   UNL     1     -14.446   0.413 -33.901  1.00  0.00     0.000 A 
HETATM   17  C   UNL     1     -13.059   0.409 -34.011  1.00  0.00     0.001 A 
HETATM   18  C   UNL     1     -12.313   1.467 -33.488  1.00  0.00     0.009 A 
ENDBRANCH  12  13
ENDBRANCH   8  12
BRANCH   9  19
HETATM   19  C   UNL     1     -11.296   4.845 -35.340  1.00  0.00     0.057 A 
HETATM   20  C   UNL     1     -12.275   3.941 -36.051  1.00  0.00     0.013 A 
HETATM   21  C   UNL     1     -12.778   5.114 -35.278  1.00  0.00     0.013 A 
ENDBRANCH   9  19
ENDBRANCH   6   7
ENDBRANCH   5   6
ENDBRANCH   2   5
BRANCH   1  22
HETATM   22  C   UNL     1      -5.986   0.303 -32.741  1.00  0.00     0.037 A 
HETATM   23  C   UNL     1      -4.589   0.278 -32.785  1.00  0.00     0.032 A 
HETATM   24  C   UNL     1      -3.913  -0.797 -33.372  1.00  0.00     0.041 A 
HETATM   25  C   UNL     1      -4.626  -1.866 -33.905  1.00  0.00     0.096 A 
HETATM   26  O   UNL     1      -3.891  -2.862 -34.480  1.00  0.00    -0.335 OA
HETATM   27  C   UNL     1      -6.020  -1.849 -33.869  1.00  0.00     0.070 A 
HETATM   28  C   UNL     1      -4.602  -4.071 -34.732  1.00  0.00     0.217 C 
HETATM   29  C   UNL     1      -4.288  -5.047 -33.600  1.00  0.00     0.050 C 
HETATM   30  C   UNL     1      -6.122  -4.010 -34.937  1.00  0.00     0.251 C 
HETATM   31  N   UNL     1      -6.743  -2.904 -34.422  1.00  0.00    -0.323 N 
HETATM   32  O   UNL     1      -6.772  -4.915 -35.457  1.00  0.00    -0.270 OA
HETATM   33  H   UNL     1      -7.752  -2.879 -34.484  1.00  0.00     0.169 HD
HETATM   34  C   UNL     1      -6.700  -0.766 -33.300  1.00  0.00     0.062 A 
ENDBRANCH   1  22
TORSDOF 7
ENDMDL
MODEL 5
REMARK VINA RESULT:      -8.2      2.817      8.113
REMARK  7 active torsions:
REMARK  status: ('A' for Active; 'I' for Inactive)
REMARK    1  A    between atoms: C_11  and  N_12 
REMARK       I    between atoms: N_12  and  C_13 
REMARK    2  A    between atoms: C_13  and  C_14 
REMARK    3  A    between atoms: C_14  and  S_15 
REMARK    4  A    between atoms: S_15  and  C_16 
REMARK    5  A    between atoms: N_17  and  C_18 
REMARK    6  A    between atoms: C_18  and  C_19 
REMARK    7  A    between atoms: C_25  and  C_26 
ROOT
HETATM    1  N   UNL     1      -6.669   1.304 -31.854  1.00  0.00    -0.326 N 
HETATM    2  C   UNL     1      -6.725   1.538 -30.488  1.00  0.00     0.231 C 
HETATM    3  O   UNL     1      -6.216   0.835 -29.619  1.00  0.00    -0.272 OA
HETATM    4  H   UNL     1      -7.271   1.887 -32.426  1.00  0.00     0.169 HD
ENDROOT
BRANCH   2   5
HETATM    5  C   UNL     1      -7.424   2.836 -30.115  1.00  0.00     0.185 C 
BRANCH   5   6
HETATM    6  S   UNL     1      -7.435   4.024 -31.495  1.00  0.00    -0.081 SA
BRANCH   6   7
HETATM    7  C   UNL     1      -6.379   5.231 -30.837  1.00  0.00     0.192 A 
HETATM    8  N   UNL     1      -5.006   5.157 -30.804  1.00  0.00    -0.307 N 
HETATM    9  C   UNL     1      -4.599   6.336 -30.213  1.00  0.00     0.135 A 
HETATM   10  N   UNL     1      -5.671   7.050 -29.921  1.00  0.00    -0.134 NA
HETATM   11  N   UNL     1      -6.782   6.354 -30.297  1.00  0.00    -0.123 NA
BRANCH   8  12
HETATM   12  C   UNL     1      -4.198   4.113 -31.407  1.00  0.00     0.171 C 
BRANCH  12  13
HETATM   13  C   UNL     1      -3.468   4.527 -32.664  1.00  0.00    -0.040 A 
HETATM   14  C   UNL     1      -4.129   4.884 -33.849  1.00  0.00     0.009 A 
HETATM   15  C   UNL     1      -3.405   5.275 -34.978  1.00  0.00     0.001 A 
HETATM   16  C   UNL     1      -2.015   5.334 -34.934  1.00  0.00     0.000 A 
HETATM   17  C   UNL     1      -1.344   5.010 -33.759  1.00  0.00     0.001 A 
HETATM   18  C   UNL     1      -2.065   4.616 -32.629  1.00  0.00     0.009 A 
ENDBRANCH  12  13
ENDBRANCH   8  12
BRANCH   9  19
HETATM   19  C   UNL     1      -3.238   6.922 -29.854  1.00  0.00     0.057 A 
HETATM   20  C   UNL     1      -2.495   7.801 -30.834  1.00  0.00     0.013 A 
HETATM   21  C   UNL     1      -2.997   8.379 -29.553  1.00  0.00     0.013 A 
ENDBRANCH   9  19
ENDBRANCH   6   7
ENDBRANCH   5   6
ENDBRANCH   2   5
BRANCH   1  22
HETATM   22  C   UNL     1      -5.957   0.282 -32.516  1.00  0.00     0.037 A 
HETATM   23  C   UNL     1      -4.568   0.281 -32.667  1.00  0.00     0.032 A 
HETATM   24  C   UNL     1      -3.926  -0.753 -33.358  1.00  0.00     0.041 A 
HETATM   25  C   UNL     1      -4.665  -1.804 -33.889  1.00  0.00     0.096 A 
HETATM   26  O   UNL     1      -3.965  -2.759 -34.568  1.00  0.00    -0.335 OA
HETATM   27  C   UNL     1      -6.052  -1.811 -33.746  1.00  0.00     0.070 A 
HETATM   28  C   UNL     1      -4.679  -3.965 -34.827  1.00  0.00     0.217 C 
HETATM   29  C   UNL     1      -4.268  -4.992 -33.773  1.00  0.00     0.050 C 
HETATM   30  C   UNL     1      -6.211  -3.917 -34.913  1.00  0.00     0.251 C 
HETATM   31  N   UNL     1      -6.803  -2.848 -34.297  1.00  0.00    -0.323 N 
HETATM   32  O   UNL     1      -6.888  -4.804 -35.428  1.00  0.00    -0.270 OA
HETATM   33  H   UNL     1      -7.814  -2.836 -34.281  1.00  0.00     0.169 HD
HETATM   34  C   UNL     1      -6.700  -0.768 -33.073  1.00  0.00     0.062 A 
ENDBRANCH   1  22
TORSDOF 7
ENDMDL
MODEL 6
REMARK VINA RESULT:      -8.0      4.996      8.160
REMARK  7 active torsions:
REMARK  status: ('A' for Active; 'I' for Inactive)
REMARK    1  A    between atoms: C_11  and  N_12 
REMARK       I    between atoms: N_12  and  C_13 
REMARK    2  A    between atoms: C_13  and  C_14 
REMARK    3  A    between atoms: C_14  and  S_15 
REMARK    4  A    between atoms: S_15  and  C_16 
REMARK    5  A    between atoms: N_17  and  C_18 
REMARK    6  A    between atoms: C_18  and  C_19 
REMARK    7  A    between atoms: C_25  and  C_26 
ROOT
HETATM    1  N   UNL     1     -11.556   2.259 -32.872  1.00  0.00    -0.326 N 
HETATM    2  C   UNL     1     -11.061   2.101 -34.157  1.00  0.00     0.231 C 
HETATM    3  O   UNL     1     -11.606   2.487 -35.188  1.00  0.00    -0.272 OA
HETATM    4  H   UNL     1     -11.067   1.748 -32.145  1.00  0.00     0.169 HD
ENDROOT
BRANCH   2   5
HETATM    5  C   UNL     1      -9.685   1.457 -34.211  1.00  0.00     0.185 C 
BRANCH   5   6
HETATM    6  S   UNL     1      -9.532   0.080 -33.028  1.00  0.00    -0.081 SA
BRANCH   6   7
HETATM    7  C   UNL     1      -7.944   0.410 -32.414  1.00  0.00     0.192 A 
HETATM    8  N   UNL     1      -6.764   0.116 -33.057  1.00  0.00    -0.307 N 
HETATM    9  C   UNL     1      -5.774   0.569 -32.210  1.00  0.00     0.135 A 
HETATM   10  N   UNL     1      -6.345   1.093 -31.140  1.00  0.00    -0.134 NA
HETATM   11  N   UNL     1      -7.698   0.980 -31.261  1.00  0.00    -0.123 NA
BRANCH   8  12
HETATM   12  C   UNL     1      -6.640  -0.417 -34.402  1.00  0.00     0.171 C 
BRANCH  12  13
HETATM   13  C   UNL     1      -6.140  -1.841 -34.473  1.00  0.00    -0.040 A 
HETATM   14  C   UNL     1      -4.793  -2.188 -34.285  1.00  0.00     0.009 A 
HETATM   15  C   UNL     1      -4.386  -3.523 -34.346  1.00  0.00     0.001 A 
HETATM   16  C   UNL     1      -5.319  -4.531 -34.573  1.00  0.00     0.000 A 
HETATM   17  C   UNL     1      -6.663  -4.207 -34.733  1.00  0.00     0.001 A 
HETATM   18  C   UNL     1      -7.072  -2.873 -34.677  1.00  0.00     0.009 A 
ENDBRANCH  12  13
ENDBRANCH   8  12
BRANCH   9  19
HETATM   19  C   UNL     1      -4.250   0.571 -32.272  1.00  0.00     0.057 A 
HETATM   20  C   UNL     1      -3.441   1.423 -31.323  1.00  0.00     0.013 A 
HETATM   21  C   UNL     1      -3.360  -0.064 -31.235  1.00  0.00     0.013 A 
ENDBRANCH   9  19
ENDBRANCH   6   7
ENDBRANCH   5   6
ENDBRANCH   2   5
BRANCH   1  22
HETATM   22  C   UNL     1     -12.719   2.959 -32.485  1.00  0.00     0.037 A 
HETATM   23  C   UNL     1     -12.696   4.207 -31.856  1.00  0.00     0.032 A 
HETATM   24  C   UNL     1     -13.887   4.835 -31.476  1.00  0.00     0.041 A 
HETATM   25  C   UNL     1     -15.112   4.231 -31.738  1.00  0.00     0.096 A 
HETATM   26  O   UNL     1     -16.223   4.900 -31.313  1.00  0.00    -0.335 OA
HETATM   27  C   UNL     1     -15.145   2.985 -32.362  1.00  0.00     0.070 A 
HETATM   28  C   UNL     1     -17.456   4.433 -31.856  1.00  0.00     0.217 C 
HETATM   29  C   UNL     1     -17.840   5.353 -33.013  1.00  0.00     0.050 C 
HETATM   30  C   UNL     1     -17.557   2.973 -32.320  1.00  0.00     0.251 C 
HETATM   31  N   UNL     1     -16.367   2.360 -32.605  1.00  0.00    -0.323 N 
HETATM   32  O   UNL     1     -18.626   2.394 -32.503  1.00  0.00    -0.270 OA
HETATM   33  H   UNL     1     -16.416   1.423 -32.980  1.00  0.00     0.169 HD
HETATM   34  C   UNL     1     -13.955   2.343 -32.726  1.00  0.00     0.062 A 
ENDBRANCH   1  22
TORSDOF 7
ENDMDL
MODEL 7
REMARK VINA RESULT:      -8.0      3.247      5.028
REMARK  7 active torsions:
REMARK  status: ('A' for Active; 'I' for Inactive)
REMARK    1  A    between atoms: C_11  and  N_12 
REMARK       I    between atoms: N_12  and  C_13 
REMARK    2  A    between atoms: C_13  and  C_14 
REMARK    3  A    between atoms: C_14  and  S_15 
REMARK    4  A    between atoms: S_15  and  C_16 
REMARK    5  A    between atoms: N_17  and  C_18 
REMARK    6  A    between atoms: C_18  and  C_19 
REMARK    7  A    between atoms: C_25  and  C_26 
ROOT
HETATM    1  N   UNL     1      -2.714   5.882 -31.231  1.00  0.00    -0.326 N 
HETATM    2  C   UNL     1      -2.729   4.548 -31.608  1.00  0.00     0.231 C 
HETATM    3  O   UNL     1      -1.880   3.710 -31.316  1.00  0.00    -0.272 OA
HETATM    4  H   UNL     1      -3.401   6.475 -31.683  1.00  0.00     0.169 HD
ENDROOT
BRANCH   2   5
HETATM    5  C   UNL     1      -3.973   4.142 -32.383  1.00  0.00     0.185 C 
BRANCH   5   6
HETATM    6  S   UNL     1      -4.540   2.471 -31.931  1.00  0.00    -0.081 SA
BRANCH   6   7
HETATM    7  C   UNL     1      -6.065   2.457 -32.756  1.00  0.00     0.192 A 
HETATM    8  N   UNL     1      -6.904   1.372 -32.861  1.00  0.00    -0.307 N 
HETATM    9  C   UNL     1      -7.990   1.829 -33.580  1.00  0.00     0.135 A 
HETATM   10  N   UNL     1      -7.791   3.102 -33.875  1.00  0.00    -0.134 NA
HETATM   11  N   UNL     1      -6.583   3.489 -33.374  1.00  0.00    -0.123 NA
BRANCH   8  12
HETATM   12  C   UNL     1      -6.717   0.088 -32.210  1.00  0.00     0.171 C 
BRANCH  12  13
HETATM   13  C   UNL     1      -6.254  -1.022 -33.125  1.00  0.00    -0.040 A 
HETATM   14  C   UNL     1      -7.136  -1.799 -33.891  1.00  0.00     0.009 A 
HETATM   15  C   UNL     1      -6.653  -2.803 -34.734  1.00  0.00     0.001 A 
HETATM   16  C   UNL     1      -5.284  -3.032 -34.839  1.00  0.00     0.000 A 
HETATM   17  C   UNL     1      -4.393  -2.252 -34.107  1.00  0.00     0.001 A 
HETATM   18  C   UNL     1      -4.873  -1.250 -33.261  1.00  0.00     0.009 A 
ENDBRANCH  12  13
ENDBRANCH   8  12
BRANCH   9  19
HETATM   19  C   UNL     1      -9.281   1.183 -34.068  1.00  0.00     0.057 A 
HETATM   20  C   UNL     1     -10.168   0.417 -33.114  1.00  0.00     0.013 A 
HETATM   21  C   UNL     1     -10.661   1.685 -33.727  1.00  0.00     0.013 A 
ENDBRANCH   9  19
ENDBRANCH   6   7
ENDBRANCH   5   6
ENDBRANCH   2   5
BRANCH   1  22
HETATM   22  C   UNL     1      -1.787   6.517 -30.377  1.00  0.00     0.037 A 
HETATM   23  C   UNL     1      -0.452   6.748 -30.721  1.00  0.00     0.032 A 
HETATM   24  C   UNL     1       0.422   7.360 -29.816  1.00  0.00     0.041 A 
HETATM   25  C   UNL     1      -0.035   7.764 -28.567  1.00  0.00     0.096 A 
HETATM   26  O   UNL     1       0.887   8.332 -27.736  1.00  0.00    -0.335 OA
HETATM   27  C   UNL     1      -1.364   7.535 -28.213  1.00  0.00     0.070 A 
HETATM   28  C   UNL     1       0.347   9.013 -26.606  1.00  0.00     0.217 C 
HETATM   29  C   UNL     1       0.316  10.506 -26.927  1.00  0.00     0.050 C 
HETATM   30  C   UNL     1      -1.024   8.584 -26.067  1.00  0.00     0.251 C 
HETATM   31  N   UNL     1      -1.824   7.914 -26.952  1.00  0.00    -0.323 N 
HETATM   32  O   UNL     1      -1.431   8.877 -24.944  1.00  0.00    -0.270 OA
HETATM   33  H   UNL     1      -2.758   7.686 -26.640  1.00  0.00     0.169 HD
HETATM   34  C   UNL     1      -2.236   6.904 -29.107  1.00  0.00     0.062 A 
ENDBRANCH   1  22
TORSDOF 7
ENDMDL
MODEL 8
REMARK VINA RESULT:      -7.9      2.807      4.978
REMARK  7 active torsions:
REMARK  status: ('A' for Active; 'I' for Inactive)
REMARK    1  A    between atoms: C_11  and  N_12 
REMARK       I    between atoms: N_12  and  C_13 
REMARK    2  A    between atoms: C_13  and  C_14 
REMARK    3  A    between atoms: C_14  and  S_15 
REMARK    4  A    between atoms: S_15  and  C_16 
REMARK    5  A    between atoms: N_17  and  C_18 
REMARK    6  A    between atoms: C_18  and  C_19 
REMARK    7  A    between atoms: C_25  and  C_26 
ROOT
HETATM    1  N   UNL     1      -5.040   4.115 -32.808  1.00  0.00    -0.326 N 
HETATM    2  C   UNL     1      -5.983   3.746 -31.860  1.00  0.00     0.231 C 
HETATM    3  O   UNL     1      -5.893   3.931 -30.649  1.00  0.00    -0.272 OA
HETATM    4  H   UNL     1      -5.191   3.752 -33.743  1.00  0.00     0.169 HD
ENDROOT
BRANCH   2   5
HETATM    5  C   UNL     1      -7.245   3.138 -32.452  1.00  0.00     0.185 C 
BRANCH   5   6
HETATM    6  S   UNL     1      -8.538   2.896 -31.193  1.00  0.00    -0.081 SA
BRANCH   6   7
HETATM    7  C   UNL     1      -9.916   2.723 -32.232  1.00  0.00     0.192 A 
HETATM    8  N   UNL     1     -10.332   1.549 -32.815  1.00  0.00    -0.307 N 
HETATM    9  C   UNL     1     -11.462   1.887 -33.531  1.00  0.00     0.135 A 
HETATM   10  N   UNL     1     -11.687   3.179 -33.373  1.00  0.00    -0.134 NA
HETATM   11  N   UNL     1     -10.714   3.704 -32.575  1.00  0.00    -0.123 NA
BRANCH   8  12
HETATM   12  C   UNL     1      -9.763   0.235 -32.578  1.00  0.00     0.171 C 
BRANCH  12  13
HETATM   13  C   UNL     1      -8.484  -0.045 -33.332  1.00  0.00    -0.040 A 
HETATM   14  C   UNL     1      -8.328   0.229 -34.700  1.00  0.00     0.009 A 
HETATM   15  C   UNL     1      -7.118  -0.035 -35.346  1.00  0.00     0.001 A 
HETATM   16  C   UNL     1      -6.041  -0.555 -34.633  1.00  0.00     0.000 A 
HETATM   17  C   UNL     1      -6.169  -0.807 -33.270  1.00  0.00     0.001 A 
HETATM   18  C   UNL     1      -7.380  -0.548 -32.622  1.00  0.00     0.009 A 
ENDBRANCH  12  13
ENDBRANCH   8  12
BRANCH   9  19
HETATM   19  C   UNL     1     -12.428   1.103 -34.412  1.00  0.00     0.057 A 
HETATM   20  C   UNL     1     -13.229  -0.046 -33.846  1.00  0.00     0.013 A 
HETATM   21  C   UNL     1     -13.929   1.188 -34.309  1.00  0.00     0.013 A 
ENDBRANCH   9  19
ENDBRANCH   6   7
ENDBRANCH   5   6
ENDBRANCH   2   5
BRANCH   1  22
HETATM   22  C   UNL     1      -3.851   4.841 -32.590  1.00  0.00     0.037 A 
HETATM   23  C   UNL     1      -3.533   6.025 -33.262  1.00  0.00     0.032 A 
HETATM   24  C   UNL     1      -2.323   6.682 -33.016  1.00  0.00     0.041 A 
HETATM   25  C   UNL     1      -1.427   6.173 -32.083  1.00  0.00     0.096 A 
HETATM   26  O   UNL     1      -0.260   6.862 -31.921  1.00  0.00    -0.335 OA
HETATM   27  C   UNL     1      -1.733   4.991 -31.409  1.00  0.00     0.070 A 
HETATM   28  C   UNL     1       0.492   6.515 -30.761  1.00  0.00     0.217 C 
HETATM   29  C   UNL     1       0.201   7.556 -29.681  1.00  0.00     0.050 C 
HETATM   30  C   UNL     1       0.329   5.110 -30.163  1.00  0.00     0.251 C 
HETATM   31  N   UNL     1      -0.829   4.460 -30.490  1.00  0.00    -0.323 N 
HETATM   32  O   UNL     1       1.136   4.611 -29.381  1.00  0.00    -0.270 OA
HETATM   33  H   UNL     1      -0.988   3.564 -30.050  1.00  0.00     0.169 HD
HETATM   34  C   UNL     1      -2.934   4.320 -31.667  1.00  0.00     0.062 A 
ENDBRANCH   1  22
TORSDOF 7
ENDMDL
MODEL 9
REMARK VINA RESULT:      -7.9      3.184      6.349
REMARK  7 active torsions:
REMARK  status: ('A' for Active; 'I' for Inactive)
REMARK    1  A    between atoms: C_11  and  N_12 
REMARK       I    between atoms: N_12  and  C_13 
REMARK    2  A    between atoms: C_13  and  C_14 
REMARK    3  A    between atoms: C_14  and  S_15 
REMARK    4  A    between atoms: S_15  and  C_16 
REMARK    5  A    between atoms: N_17  and  C_18 
REMARK    6  A    between atoms: C_18  and  C_19 
REMARK    7  A    between atoms: C_25  and  C_26 
ROOT
HETATM    1  N   UNL     1      -7.092   4.613 -32.335  1.00  0.00    -0.326 N 
HETATM    2  C   UNL     1      -6.012   4.776 -33.190  1.00  0.00     0.231 C 
HETATM    3  O   UNL     1      -6.079   4.970 -34.401  1.00  0.00    -0.272 OA
HETATM    4  H   UNL     1      -6.868   4.304 -31.396  1.00  0.00     0.169 HD
ENDROOT
BRANCH   2   5
HETATM    5  C   UNL     1      -4.665   4.779 -32.485  1.00  0.00     0.185 C 
BRANCH   5   6
HETATM    6  S   UNL     1      -4.788   4.149 -30.780  1.00  0.00    -0.081 SA
BRANCH   6   7
HETATM    7  C   UNL     1      -4.184   2.543 -31.029  1.00  0.00     0.192 A 
HETATM    8  N   UNL     1      -4.954   1.406 -31.118  1.00  0.00    -0.307 N 
HETATM    9  C   UNL     1      -4.054   0.382 -31.331  1.00  0.00     0.135 A 
HETATM   10  N   UNL     1      -2.836   0.893 -31.362  1.00  0.00    -0.134 NA
HETATM   11  N   UNL     1      -2.916   2.239 -31.158  1.00  0.00    -0.123 NA
BRANCH   8  12
HETATM   12  C   UNL     1      -6.405   1.363 -31.131  1.00  0.00     0.171 C 
BRANCH  12  13
HETATM   13  C   UNL     1      -7.014   1.034 -32.474  1.00  0.00    -0.040 A 
HETATM   14  C   UNL     1      -6.327   1.198 -33.687  1.00  0.00     0.009 A 
HETATM   15  C   UNL     1      -6.933   0.863 -34.900  1.00  0.00     0.001 A 
HETATM   16  C   UNL     1      -8.223   0.341 -34.919  1.00  0.00     0.000 A 
HETATM   17  C   UNL     1      -8.909   0.145 -33.724  1.00  0.00     0.001 A 
HETATM   18  C   UNL     1      -8.307   0.483 -32.510  1.00  0.00     0.009 A 
ENDBRANCH  12  13
ENDBRANCH   8  12
BRANCH   9  19
HETATM   19  C   UNL     1      -4.194  -1.125 -31.517  1.00  0.00     0.057 A 
HETATM   20  C   UNL     1      -4.280  -1.726 -32.901  1.00  0.00     0.013 A 
HETATM   21  C   UNL     1      -3.099  -2.020 -32.038  1.00  0.00     0.013 A 
ENDBRANCH   9  19
ENDBRANCH   6   7
ENDBRANCH   5   6
ENDBRANCH   2   5
BRANCH   1  22
HETATM   22  C   UNL     1      -8.461   4.725 -32.659  1.00  0.00     0.037 A 
HETATM   23  C   UNL     1      -9.357   5.537 -31.958  1.00  0.00     0.032 A 
HETATM   24  C   UNL     1     -10.709   5.582 -32.317  1.00  0.00     0.041 A 
HETATM   25  C   UNL     1     -11.173   4.830 -33.390  1.00  0.00     0.096 A 
HETATM   26  O   UNL     1     -12.509   4.913 -33.658  1.00  0.00    -0.335 OA
HETATM   27  C   UNL     1     -10.288   4.014 -34.093  1.00  0.00     0.070 A 
HETATM   28  C   UNL     1     -12.906   4.397 -34.927  1.00  0.00     0.217 C 
HETATM   29  C   UNL     1     -13.053   5.573 -35.889  1.00  0.00     0.050 C 
HETATM   30  C   UNL     1     -12.047   3.310 -35.587  1.00  0.00     0.251 C 
HETATM   31  N   UNL     1     -10.751   3.237 -35.155  1.00  0.00    -0.323 N 
HETATM   32  O   UNL     1     -12.450   2.590 -36.499  1.00  0.00    -0.270 OA
HETATM   33  H   UNL     1     -10.149   2.577 -35.628  1.00  0.00     0.169 HD
HETATM   34  C   UNL     1      -8.939   3.951 -33.725  1.00  0.00     0.062 A 
ENDBRANCH   1  22
TORSDOF 7
ENDMDL
MODEL 10
REMARK VINA RESULT:      -7.8      3.693      8.830
REMARK  7 active torsions:
REMARK  status: ('A' for Active; 'I' for Inactive)
REMARK    1  A    between atoms: C_11  and  N_12 
REMARK       I    between atoms: N_12  and  C_13 
REMARK    2  A    between atoms: C_13  and  C_14 
REMARK    3  A    between atoms: C_14  and  S_15 
REMARK    4  A    between atoms: S_15  and  C_16 
REMARK    5  A    between atoms: N_17  and  C_18 
REMARK    6  A    between atoms: C_18  and  C_19 
REMARK    7  A    between atoms: C_25  and  C_26 
ROOT
HETATM    1  N   UNL     1      -5.387   3.968 -29.268  1.00  0.00    -0.326 N 
HETATM    2  C   UNL     1      -5.466   5.347 -29.145  1.00  0.00     0.231 C 
HETATM    3  O   UNL     1      -5.671   6.138 -30.062  1.00  0.00    -0.272 OA
HETATM    4  H   UNL     1      -5.057   3.471 -28.448  1.00  0.00     0.169 HD
ENDROOT
BRANCH   2   5
HETATM    5  C   UNL     1      -5.358   5.843 -27.712  1.00  0.00     0.185 C 
BRANCH   5   6
HETATM    6  S   UNL     1      -4.731   7.552 -27.631  1.00  0.00    -0.081 SA
BRANCH   6   7
HETATM    7  C   UNL     1      -3.064   7.225 -27.284  1.00  0.00     0.192 A 
HETATM    8  N   UNL     1      -2.000   7.583 -28.079  1.00  0.00    -0.307 N 
HETATM    9  C   UNL     1      -0.883   7.136 -27.403  1.00  0.00     0.135 A 
HETATM   10  N   UNL     1      -1.275   6.553 -26.284  1.00  0.00    -0.134 NA
HETATM   11  N   UNL     1      -2.637   6.595 -26.218  1.00  0.00    -0.123 NA
BRANCH   8  12
HETATM   12  C   UNL     1      -2.074   8.389 -29.284  1.00  0.00     0.171 C 
BRANCH  12  13
HETATM   13  C   UNL     1      -1.927   7.614 -30.572  1.00  0.00    -0.040 A 
HETATM   14  C   UNL     1      -1.736   8.231 -31.819  1.00  0.00     0.009 A 
HETATM   15  C   UNL     1      -1.590   7.465 -32.978  1.00  0.00     0.001 A 
HETATM   16  C   UNL     1      -1.610   6.075 -32.907  1.00  0.00     0.000 A 
HETATM   17  C   UNL     1      -1.771   5.446 -31.676  1.00  0.00     0.001 A 
HETATM   18  C   UNL     1      -1.921   6.209 -30.516  1.00  0.00     0.009 A 
ENDBRANCH  12  13
ENDBRANCH   8  12
BRANCH   9  19
HETATM   19  C   UNL     1       0.614   7.181 -27.690  1.00  0.00     0.057 A 
HETATM   20  C   UNL     1       1.333   8.503 -27.824  1.00  0.00     0.013 A 
HETATM   21  C   UNL     1       1.657   7.596 -26.684  1.00  0.00     0.013 A 
ENDBRANCH   9  19
ENDBRANCH   6   7
ENDBRANCH   5   6
ENDBRANCH   2   5
BRANCH   1  22
HETATM   22  C   UNL     1      -5.610   3.201 -30.431  1.00  0.00     0.037 A 
HETATM   23  C   UNL     1      -4.693   3.105 -31.482  1.00  0.00     0.032 A 
HETATM   24  C   UNL     1      -4.988   2.346 -32.619  1.00  0.00     0.041 A 
HETATM   25  C   UNL     1      -6.196   1.662 -32.710  1.00  0.00     0.096 A 
HETATM   26  O   UNL     1      -6.415   0.965 -33.863  1.00  0.00    -0.335 OA
HETATM   27  C   UNL     1      -7.118   1.754 -31.669  1.00  0.00     0.070 A 
HETATM   28  C   UNL     1      -7.492   0.033 -33.812  1.00  0.00     0.217 C 
HETATM   29  C   UNL     1      -6.903  -1.355 -33.564  1.00  0.00     0.050 C 
HETATM   30  C   UNL     1      -8.639   0.277 -32.821  1.00  0.00     0.251 C 
HETATM   31  N   UNL     1      -8.341   1.091 -31.763  1.00  0.00    -0.323 N 
HETATM   32  O   UNL     1      -9.737  -0.269 -32.910  1.00  0.00    -0.270 OA
HETATM   33  H   UNL     1      -9.061   1.207 -31.062  1.00  0.00     0.169 HD
HETATM   34  C   UNL     1      -6.835   2.528 -30.538  1.00  0.00     0.062 A 
ENDBRANCH   1  22
TORSDOF 7
ENDMDL
