MODEL 1
REMARK VINA RESULT:      -8.3      0.000      0.000
REMARK  7 active torsions:
REMARK  status: ('A' for Active; 'I' for Inactive)
REMARK    1  A    between atoms: C_3  and  O_4 
REMARK    2  A    between atoms: O_4  and  C_5 
REMARK    3  A    between atoms: C_5  and  C_6 
REMARK       I    between atoms: C_6  and  N_7 
REMARK    4  A    between atoms: N_7  and  C_8 
REMARK    5  A    between atoms: C_9  and  C_10 
REMARK       I    between atoms: C_10  and  N_11 
REMARK    6  A    between atoms: N_11  and  C_12 
REMARK    7  A    between atoms: C_12  and  C_13 
ROOT
HETATM    1  C   UNL     1      -4.032   2.442 -32.232  1.00  0.00     0.050 A 
HETATM    2  C   UNL     1      -5.031   3.301 -31.719  1.00  0.00     0.058 A 
HETATM    3  C   UNL     1      -4.906   4.695 -31.877  1.00  0.00     0.019 A 
HETATM    4  C   UNL     1      -3.782   5.239 -32.495  1.00  0.00     0.001 A 
HETATM    5  C   UNL     1      -2.781   4.400 -32.968  1.00  0.00     0.002 A 
HETATM    6  C   UNL     1      -2.908   3.014 -32.843  1.00  0.00     0.030 A 
ENDROOT
BRANCH   1   7
HETATM    7  N   UNL     1      -4.215   1.035 -32.169  1.00  0.00    -0.324 N 
HETATM    8  C   UNL     1      -3.361   0.099 -31.613  1.00  0.00     0.246 C 
HETATM    9  O   UNL     1      -2.401   0.358 -30.890  1.00  0.00    -0.271 OA
HETATM   10  H   UNL     1      -5.084   0.702 -32.591  1.00  0.00     0.169 HD
BRANCH   8  11
HETATM   11  C   UNL     1      -3.715  -1.343 -31.978  1.00  0.00     0.278 C 
BRANCH  11  12
HETATM   12  O   UNL     1      -4.035  -1.346 -33.365  1.00  0.00    -0.342 OA
BRANCH  12  13
HETATM   13  C   UNL     1      -4.692  -2.428 -33.880  1.00  0.00     0.075 A 
HETATM   14  C   UNL     1      -5.993  -2.180 -34.352  1.00  0.00    -0.029 A 
HETATM   15  C   UNL     1      -6.579  -0.794 -34.331  1.00  0.00     0.051 C 
HETATM   16  C   UNL     1      -6.734  -3.229 -34.917  1.00  0.00     0.009 A 
HETATM   17  C   UNL     1      -6.203  -4.514 -34.984  1.00  0.00     0.001 A 
HETATM   18  C   UNL     1      -4.924  -4.761 -34.492  1.00  0.00     0.003 A 
HETATM   19  C   UNL     1      -4.168  -3.723 -33.941  1.00  0.00     0.037 A 
ENDBRANCH  12  13
ENDBRANCH  11  12
ENDBRANCH   8  11
ENDBRANCH   1   7
BRANCH   2  20
HETATM   20  C   UNL     1      -6.221   2.741 -31.005  1.00  0.00     0.254 C 
HETATM   21  N   UNL     1      -7.446   3.249 -31.364  1.00  0.00    -0.351 N 
HETATM   22  H   UNL     1      -7.532   3.989 -32.048  1.00  0.00     0.163 HD
HETATM   23  O   UNL     1      -6.079   1.905 -30.115  1.00  0.00    -0.268 OA
BRANCH  21  24
HETATM   24  C   UNL     1      -8.679   2.759 -30.792  1.00  0.00     0.187 C 
BRANCH  24  25
HETATM   25  C   UNL     1      -9.271   1.762 -31.719  1.00  0.00     0.070 A 
HETATM   26  O   UNL     1     -10.144   2.235 -32.661  1.00  0.00    -0.325 OA
HETATM   27  C   UNL     1     -10.569   1.166 -33.382  1.00  0.00     0.142 A 
HETATM   28  C   UNL     1      -9.986   0.010 -32.919  1.00  0.00     0.027 A 
HETATM   29  C   UNL     1      -9.147   0.393 -31.845  1.00  0.00     0.036 A 
ENDBRANCH  24  25
ENDBRANCH  21  24
ENDBRANCH   2  20
TORSDOF 7
ENDMDL
MODEL 2
REMARK VINA RESULT:      -8.2      1.660      5.666
REMARK  7 active torsions:
REMARK  status: ('A' for Active; 'I' for Inactive)
REMARK    1  A    between atoms: C_3  and  O_4 
REMARK    2  A    between atoms: O_4  and  C_5 
REMARK    3  A    between atoms: C_5  and  C_6 
REMARK       I    between atoms: C_6  and  N_7 
REMARK    4  A    between atoms: N_7  and  C_8 
REMARK    5  A    between atoms: C_9  and  C_10 
REMARK       I    between atoms: C_10  and  N_11 
REMARK    6  A    between atoms: N_11  and  C_12 
REMARK    7  A    between atoms: C_12  and  C_13 
ROOT
HETATM    1  C   UNL     1      -4.797  -2.639 -33.980  1.00  0.00     0.050 A 
HETATM    2  C   UNL     1      -6.121  -2.273 -34.315  1.00  0.00     0.058 A 
HETATM    3  C   UNL     1      -7.006  -3.238 -34.834  1.00  0.00     0.019 A 
HETATM    4  C   UNL     1      -6.575  -4.543 -35.064  1.00  0.00     0.001 A 
HETATM    5  C   UNL     1      -5.264  -4.897 -34.771  1.00  0.00     0.002 A 
HETATM    6  C   UNL     1      -4.385  -3.955 -34.228  1.00  0.00     0.030 A 
ENDROOT
BRANCH   1   7
HETATM    7  N   UNL     1      -3.943  -1.693 -33.356  1.00  0.00    -0.324 N 
HETATM    8  C   UNL     1      -3.190  -1.866 -32.208  1.00  0.00     0.246 C 
HETATM    9  O   UNL     1      -2.974  -2.944 -31.659  1.00  0.00    -0.271 OA
HETATM   10  H   UNL     1      -3.896  -0.788 -33.829  1.00  0.00     0.169 HD
BRANCH   8  11
HETATM   11  C   UNL     1      -2.622  -0.560 -31.649  1.00  0.00     0.278 C 
BRANCH  11  12
HETATM   12  O   UNL     1      -3.628  -0.002 -30.812  1.00  0.00    -0.342 OA
BRANCH  12  13
HETATM   13  C   UNL     1      -4.015   1.290 -31.032  1.00  0.00     0.075 A 
HETATM   14  C   UNL     1      -5.213   1.680 -30.404  1.00  0.00    -0.029 A 
HETATM   15  C   UNL     1      -5.969   0.733 -29.511  1.00  0.00     0.051 C 
HETATM   16  C   UNL     1      -5.675   2.995 -30.557  1.00  0.00     0.009 A 
HETATM   17  C   UNL     1      -4.976   3.904 -31.348  1.00  0.00     0.001 A 
HETATM   18  C   UNL     1      -3.805   3.507 -31.988  1.00  0.00     0.003 A 
HETATM   19  C   UNL     1      -3.324   2.204 -31.831  1.00  0.00     0.037 A 
ENDBRANCH  12  13
ENDBRANCH  11  12
ENDBRANCH   8  11
ENDBRANCH   1   7
BRANCH   2  20
HETATM   20  C   UNL     1      -6.591  -0.865 -34.125  1.00  0.00     0.254 C 
HETATM   21  N   UNL     1      -7.370  -0.622 -33.020  1.00  0.00    -0.351 N 
HETATM   22  H   UNL     1      -7.642  -1.366 -32.391  1.00  0.00     0.163 HD
HETATM   23  O   UNL     1      -6.318   0.001 -34.954  1.00  0.00    -0.268 OA
BRANCH  21  24
HETATM   24  C   UNL     1      -7.844   0.702 -32.690  1.00  0.00     0.187 C 
BRANCH  24  25
HETATM   25  C   UNL     1      -9.253   0.830 -33.141  1.00  0.00     0.070 A 
HETATM   26  O   UNL     1      -9.561   1.923 -33.905  1.00  0.00    -0.325 OA
HETATM   27  C   UNL     1     -10.886   1.848 -34.190  1.00  0.00     0.142 A 
HETATM   28  C   UNL     1     -11.439   0.725 -33.621  1.00  0.00     0.027 A 
HETATM   29  C   UNL     1     -10.386   0.066 -32.943  1.00  0.00     0.036 A 
ENDBRANCH  24  25
ENDBRANCH  21  24
ENDBRANCH   2  20
TORSDOF 7
ENDMDL
MODEL 3
REMARK VINA RESULT:      -8.2      2.073      7.072
REMARK  7 active torsions:
REMARK  status: ('A' for Active; 'I' for Inactive)
REMARK    1  A    between atoms: C_3  and  O_4 
REMARK    2  A    between atoms: O_4  and  C_5 
REMARK    3  A    between atoms: C_5  and  C_6 
REMARK       I    between atoms: C_6  and  N_7 
REMARK    4  A    between atoms: N_7  and  C_8 
REMARK    5  A    between atoms: C_9  and  C_10 
REMARK       I    between atoms: C_10  and  N_11 
REMARK    6  A    between atoms: N_11  and  C_12 
REMARK    7  A    between atoms: C_12  and  C_13 
ROOT
HETATM    1  C   UNL     1      -6.816   1.913 -31.316  1.00  0.00     0.050 A 
HETATM    2  C   UNL     1      -7.084   0.672 -31.937  1.00  0.00     0.058 A 
HETATM    3  C   UNL     1      -8.408   0.324 -32.266  1.00  0.00     0.019 A 
HETATM    4  C   UNL     1      -9.465   1.172 -31.943  1.00  0.00     0.001 A 
HETATM    5  C   UNL     1      -9.209   2.376 -31.299  1.00  0.00     0.002 A 
HETATM    6  C   UNL     1      -7.896   2.746 -30.994  1.00  0.00     0.030 A 
ENDROOT
BRANCH   1   7
HETATM    7  N   UNL     1      -5.473   2.309 -31.085  1.00  0.00    -0.324 N 
HETATM    8  C   UNL     1      -4.625   2.963 -31.961  1.00  0.00     0.246 C 
HETATM    9  O   UNL     1      -4.969   3.500 -33.012  1.00  0.00    -0.271 OA
HETATM   10  H   UNL     1      -5.114   2.070 -30.158  1.00  0.00     0.169 HD
BRANCH   8  11
HETATM   11  C   UNL     1      -3.164   2.969 -31.506  1.00  0.00     0.278 C 
BRANCH  11  12
HETATM   12  O   UNL     1      -2.404   3.507 -32.582  1.00  0.00    -0.342 OA
BRANCH  12  13
HETATM   13  C   UNL     1      -1.738   4.684 -32.386  1.00  0.00     0.075 A 
HETATM   14  C   UNL     1      -1.641   5.522 -33.512  1.00  0.00    -0.029 A 
HETATM   15  C   UNL     1      -2.284   5.148 -34.820  1.00  0.00     0.051 C 
HETATM   16  C   UNL     1      -0.993   6.761 -33.396  1.00  0.00     0.009 A 
HETATM   17  C   UNL     1      -0.421   7.149 -32.187  1.00  0.00     0.001 A 
HETATM   18  C   UNL     1      -0.497   6.306 -31.082  1.00  0.00     0.003 A 
HETATM   19  C   UNL     1      -1.153   5.076 -31.178  1.00  0.00     0.037 A 
ENDBRANCH  12  13
ENDBRANCH  11  12
ENDBRANCH   8  11
ENDBRANCH   1   7
BRANCH   2  20
HETATM   20  C   UNL     1      -5.971  -0.279 -32.246  1.00  0.00     0.254 C 
HETATM   21  N   UNL     1      -5.767  -0.575 -33.573  1.00  0.00    -0.351 N 
HETATM   22  H   UNL     1      -6.365  -0.197 -34.296  1.00  0.00     0.163 HD
HETATM   23  O   UNL     1      -5.316  -0.790 -31.340  1.00  0.00    -0.268 OA
BRANCH  21  24
HETATM   24  C   UNL     1      -4.693  -1.434 -34.012  1.00  0.00     0.187 C 
BRANCH  24  25
HETATM   25  C   UNL     1      -5.256  -2.766 -34.350  1.00  0.00     0.070 A 
HETATM   26  O   UNL     1      -4.426  -3.844 -34.200  1.00  0.00    -0.325 OA
HETATM   27  C   UNL     1      -5.132  -4.943 -34.572  1.00  0.00     0.142 A 
HETATM   28  C   UNL     1      -6.402  -4.591 -34.962  1.00  0.00     0.027 A 
HETATM   29  C   UNL     1      -6.484  -3.185 -34.819  1.00  0.00     0.036 A 
ENDBRANCH  24  25
ENDBRANCH  21  24
ENDBRANCH   2  20
TORSDOF 7
ENDMDL
MODEL 4
REMARK VINA RESULT:      -8.1      1.904      5.566
REMARK  7 active torsions:
REMARK  status: ('A' for Active; 'I' for Inactive)
REMARK    1  A    between atoms: C_3  and  O_4 
REMARK    2  A    between atoms: O_4  and  C_5 
REMARK    3  A    between atoms: C_5  and  C_6 
REMARK       I    between atoms: C_6  and  N_7 
REMARK    4  A    between atoms: N_7  and  C_8 
REMARK    5  A    between atoms: C_9  and  C_10 
REMARK       I    between atoms: C_10  and  N_11 
REMARK    6  A    between atoms: N_11  and  C_12 
REMARK    7  A    between atoms: C_12  and  C_13 
ROOT
HETATM    1  C   UNL     1      -5.143  -0.557 -33.510  1.00  0.00     0.050 A 
HETATM    2  C   UNL     1      -6.542  -0.645 -33.697  1.00  0.00     0.058 A 
HETATM    3  C   UNL     1      -7.109  -1.833 -34.198  1.00  0.00     0.019 A 
HETATM    4  C   UNL     1      -6.299  -2.908 -34.557  1.00  0.00     0.001 A 
HETATM    5  C   UNL     1      -4.920  -2.811 -34.409  1.00  0.00     0.002 A 
HETATM    6  C   UNL     1      -4.349  -1.649 -33.885  1.00  0.00     0.030 A 
ENDROOT
BRANCH   1   7
HETATM    7  N   UNL     1      -4.587   0.599 -32.903  1.00  0.00    -0.324 N 
HETATM    8  C   UNL     1      -4.040   0.705 -31.637  1.00  0.00     0.246 C 
HETATM    9  O   UNL     1      -3.750  -0.242 -30.909  1.00  0.00    -0.271 OA
HETATM   10  H   UNL     1      -4.607   1.437 -33.489  1.00  0.00     0.169 HD
BRANCH   8  11
HETATM   11  C   UNL     1      -3.808   2.150 -31.191  1.00  0.00     0.278 C 
BRANCH  11  12
HETATM   12  O   UNL     1      -4.528   2.977 -32.098  1.00  0.00    -0.342 OA
BRANCH  12  13
HETATM   13  C   UNL     1      -3.822   3.796 -32.933  1.00  0.00     0.075 A 
HETATM   14  C   UNL     1      -4.564   4.388 -33.972  1.00  0.00    -0.029 A 
HETATM   15  C   UNL     1      -6.046   4.162 -34.099  1.00  0.00     0.051 C 
HETATM   16  C   UNL     1      -3.925   5.261 -34.866  1.00  0.00     0.009 A 
HETATM   17  C   UNL     1      -2.561   5.518 -34.750  1.00  0.00     0.001 A 
HETATM   18  C   UNL     1      -1.825   4.910 -33.736  1.00  0.00     0.003 A 
HETATM   19  C   UNL     1      -2.452   4.051 -32.829  1.00  0.00     0.037 A 
ENDBRANCH  12  13
ENDBRANCH  11  12
ENDBRANCH   8  11
ENDBRANCH   1   7
BRANCH   2  20
HETATM   20  C   UNL     1      -7.427   0.516 -33.369  1.00  0.00     0.254 C 
HETATM   21  N   UNL     1      -8.218   0.991 -34.388  1.00  0.00    -0.351 N 
HETATM   22  H   UNL     1      -8.173   0.598 -35.319  1.00  0.00     0.163 HD
HETATM   23  O   UNL     1      -7.397   1.029 -32.252  1.00  0.00    -0.268 OA
BRANCH  21  24
HETATM   24  C   UNL     1      -9.157   2.071 -34.192  1.00  0.00     0.187 C 
BRANCH  24  25
HETATM   25  C   UNL     1     -10.526   1.503 -34.106  1.00  0.00     0.070 A 
HETATM   26  O   UNL     1     -11.478   2.059 -34.917  1.00  0.00    -0.325 OA
HETATM   27  C   UNL     1     -12.642   1.405 -34.668  1.00  0.00     0.142 A 
HETATM   28  C   UNL     1     -12.457   0.438 -33.709  1.00  0.00     0.027 A 
HETATM   29  C   UNL     1     -11.090   0.499 -33.345  1.00  0.00     0.036 A 
ENDBRANCH  24  25
ENDBRANCH  21  24
ENDBRANCH   2  20
TORSDOF 7
ENDMDL
MODEL 5
REMARK VINA RESULT:      -8.0      1.894      5.900
REMARK  7 active torsions:
REMARK  status: ('A' for Active; 'I' for Inactive)
REMARK    1  A    between atoms: C_3  and  O_4 
REMARK    2  A    between atoms: O_4  and  C_5 
REMARK    3  A    between atoms: C_5  and  C_6 
REMARK       I    between atoms: C_6  and  N_7 
REMARK    4  A    between atoms: N_7  and  C_8 
REMARK    5  A    between atoms: C_9  and  C_10 
REMARK       I    between atoms: C_10  and  N_11 
REMARK    6  A    between atoms: N_11  and  C_12 
REMARK    7  A    between atoms: C_12  and  C_13 
ROOT
HETATM    1  C   UNL     1      -4.988  -1.897 -33.838  1.00  0.00     0.050 A 
HETATM    2  C   UNL     1      -6.397  -1.780 -33.833  1.00  0.00     0.058 A 
HETATM    3  C   UNL     1      -7.186  -2.789 -34.417  1.00  0.00     0.019 A 
HETATM    4  C   UNL     1      -6.590  -3.882 -35.042  1.00  0.00     0.001 A 
HETATM    5  C   UNL     1      -5.204  -3.982 -35.081  1.00  0.00     0.002 A 
HETATM    6  C   UNL     1      -4.411  -3.001 -34.479  1.00  0.00     0.030 A 
ENDROOT
BRANCH   1   7
HETATM    7  N   UNL     1      -4.201  -0.934 -33.153  1.00  0.00    -0.324 N 
HETATM    8  C   UNL     1      -3.382  -1.141 -32.057  1.00  0.00     0.246 C 
HETATM    9  O   UNL     1      -3.036  -2.240 -31.629  1.00  0.00    -0.271 OA
HETATM   10  H   UNL     1      -4.265   0.013 -33.533  1.00  0.00     0.169 HD
BRANCH   8  11
HETATM   11  C   UNL     1      -2.917   0.155 -31.390  1.00  0.00     0.278 C 
BRANCH  11  12
HETATM   12  O   UNL     1      -3.465   1.225 -32.150  1.00  0.00    -0.342 OA
BRANCH  12  13
HETATM   13  C   UNL     1      -4.083   2.247 -31.486  1.00  0.00     0.075 A 
HETATM   14  C   UNL     1      -3.597   3.536 -31.767  1.00  0.00    -0.029 A 
HETATM   15  C   UNL     1      -2.503   3.754 -32.778  1.00  0.00     0.051 C 
HETATM   16  C   UNL     1      -4.187   4.647 -31.146  1.00  0.00     0.009 A 
HETATM   17  C   UNL     1      -5.226   4.479 -30.234  1.00  0.00     0.001 A 
HETATM   18  C   UNL     1      -5.688   3.199 -29.939  1.00  0.00     0.003 A 
HETATM   19  C   UNL     1      -5.120   2.084 -30.562  1.00  0.00     0.037 A 
ENDBRANCH  12  13
ENDBRANCH  11  12
ENDBRANCH   8  11
ENDBRANCH   1   7
BRANCH   2  20
HETATM   20  C   UNL     1      -7.058  -0.589 -33.215  1.00  0.00     0.254 C 
HETATM   21  N   UNL     1      -7.790   0.213 -34.058  1.00  0.00    -0.351 N 
HETATM   22  H   UNL     1      -7.846   0.025 -35.050  1.00  0.00     0.163 HD
HETATM   23  O   UNL     1      -6.902  -0.337 -32.022  1.00  0.00    -0.268 OA
BRANCH  21  24
HETATM   24  C   UNL     1      -8.523   1.363 -33.581  1.00  0.00     0.187 C 
BRANCH  24  25
HETATM   25  C   UNL     1      -7.673   2.569 -33.740  1.00  0.00     0.070 A 
HETATM   26  O   UNL     1      -8.228   3.768 -33.384  1.00  0.00    -0.325 OA
HETATM   27  C   UNL     1      -7.294   4.725 -33.620  1.00  0.00     0.142 A 
HETATM   28  C   UNL     1      -6.146   4.162 -34.124  1.00  0.00     0.027 A 
HETATM   29  C   UNL     1      -6.388   2.770 -34.202  1.00  0.00     0.036 A 
ENDBRANCH  24  25
ENDBRANCH  21  24
ENDBRANCH   2  20
TORSDOF 7
ENDMDL
MODEL 6
REMARK VINA RESULT:      -7.9      2.351      5.423
REMARK  7 active torsions:
REMARK  status: ('A' for Active; 'I' for Inactive)
REMARK    1  A    between atoms: C_3  and  O_4 
REMARK    2  A    between atoms: O_4  and  C_5 
REMARK    3  A    between atoms: C_5  and  C_6 
REMARK       I    between atoms: C_6  and  N_7 
REMARK    4  A    between atoms: N_7  and  C_8 
REMARK    5  A    between atoms: C_9  and  C_10 
REMARK       I    between atoms: C_10  and  N_11 
REMARK    6  A    between atoms: N_11  and  C_12 
REMARK    7  A    between atoms: C_12  and  C_13 
ROOT
HETATM    1  C   UNL     1      -5.547   2.266 -31.540  1.00  0.00     0.050 A 
HETATM    2  C   UNL     1      -4.801   3.400 -31.144  1.00  0.00     0.058 A 
HETATM    3  C   UNL     1      -5.439   4.456 -30.464  1.00  0.00     0.019 A 
HETATM    4  C   UNL     1      -6.809   4.414 -30.216  1.00  0.00     0.001 A 
HETATM    5  C   UNL     1      -7.552   3.318 -30.636  1.00  0.00     0.002 A 
HETATM    6  C   UNL     1      -6.925   2.251 -31.287  1.00  0.00     0.030 A 
ENDROOT
BRANCH   1   7
HETATM    7  N   UNL     1      -4.883   1.158 -32.128  1.00  0.00    -0.324 N 
HETATM    8  C   UNL     1      -5.023  -0.179 -31.801  1.00  0.00     0.246 C 
HETATM    9  O   UNL     1      -5.912  -0.644 -31.090  1.00  0.00    -0.271 OA
HETATM   10  H   UNL     1      -4.229   1.404 -32.875  1.00  0.00     0.169 HD
BRANCH   8  11
HETATM   11  C   UNL     1      -3.948  -1.075 -32.418  1.00  0.00     0.278 C 
BRANCH  11  12
HETATM   12  O   UNL     1      -4.313  -1.273 -33.779  1.00  0.00    -0.342 OA
BRANCH  12  13
HETATM   13  C   UNL     1      -4.855  -2.474 -34.140  1.00  0.00     0.075 A 
HETATM   14  C   UNL     1      -6.175  -2.423 -34.624  1.00  0.00    -0.029 A 
HETATM   15  C   UNL     1      -6.900  -1.113 -34.776  1.00  0.00     0.051 C 
HETATM   16  C   UNL     1      -6.804  -3.607 -35.038  1.00  0.00     0.009 A 
HETATM   17  C   UNL     1      -6.144  -4.829 -34.944  1.00  0.00     0.001 A 
HETATM   18  C   UNL     1      -4.847  -4.879 -34.440  1.00  0.00     0.003 A 
HETATM   19  C   UNL     1      -4.202  -3.706 -34.039  1.00  0.00     0.037 A 
ENDBRANCH  12  13
ENDBRANCH  11  12
ENDBRANCH   8  11
ENDBRANCH   1   7
BRANCH   2  20
HETATM   20  C   UNL     1      -3.339   3.491 -31.446  1.00  0.00     0.254 C 
HETATM   21  N   UNL     1      -2.913   4.636 -32.075  1.00  0.00    -0.351 N 
HETATM   22  H   UNL     1      -3.562   5.361 -32.352  1.00  0.00     0.163 HD
HETATM   23  O   UNL     1      -2.586   2.557 -31.177  1.00  0.00    -0.268 OA
BRANCH  21  24
HETATM   24  C   UNL     1      -1.520   4.875 -32.375  1.00  0.00     0.187 C 
BRANCH  24  25
HETATM   25  C   UNL     1      -0.956   5.775 -31.338  1.00  0.00     0.070 A 
HETATM   26  O   UNL     1      -1.789   6.137 -30.314  1.00  0.00    -0.325 OA
HETATM   27  C   UNL     1      -1.081   6.960 -29.499  1.00  0.00     0.142 A 
HETATM   28  C   UNL     1       0.194   7.136 -29.980  1.00  0.00     0.027 A 
HETATM   29  C   UNL     1       0.278   6.371 -31.168  1.00  0.00     0.036 A 
ENDBRANCH  24  25
ENDBRANCH  21  24
ENDBRANCH   2  20
TORSDOF 7
ENDMDL
MODEL 7
REMARK VINA RESULT:      -7.9      1.767      6.123
REMARK  7 active torsions:
REMARK  status: ('A' for Active; 'I' for Inactive)
REMARK    1  A    between atoms: C_3  and  O_4 
REMARK    2  A    between atoms: O_4  and  C_5 
REMARK    3  A    between atoms: C_5  and  C_6 
REMARK       I    between atoms: C_6  and  N_7 
REMARK    4  A    between atoms: N_7  and  C_8 
REMARK    5  A    between atoms: C_9  and  C_10 
REMARK       I    between atoms: C_10  and  N_11 
REMARK    6  A    between atoms: N_11  and  C_12 
REMARK    7  A    between atoms: C_12  and  C_13 
ROOT
HETATM    1  C   UNL     1      -4.891  -2.268 -34.206  1.00  0.00     0.050 A 
HETATM    2  C   UNL     1      -6.280  -2.132 -34.431  1.00  0.00     0.058 A 
HETATM    3  C   UNL     1      -7.059  -3.270 -34.717  1.00  0.00     0.019 A 
HETATM    4  C   UNL     1      -6.466  -4.525 -34.825  1.00  0.00     0.001 A 
HETATM    5  C   UNL     1      -5.095  -4.658 -34.641  1.00  0.00     0.002 A 
HETATM    6  C   UNL     1      -4.316  -3.540 -34.328  1.00  0.00     0.030 A 
ENDROOT
BRANCH   1   7
HETATM    7  N   UNL     1      -4.129  -1.138 -33.811  1.00  0.00    -0.324 N 
HETATM    8  C   UNL     1      -4.001  -0.612 -32.537  1.00  0.00     0.246 C 
HETATM    9  O   UNL     1      -4.357  -1.169 -31.501  1.00  0.00    -0.271 OA
HETATM   10  H   UNL     1      -3.628  -0.677 -34.574  1.00  0.00     0.169 HD
BRANCH   8  11
HETATM   11  C   UNL     1      -3.352   0.774 -32.512  1.00  0.00     0.278 C 
BRANCH  11  12
HETATM   12  O   UNL     1      -4.406   1.720 -32.649  1.00  0.00    -0.342 OA
BRANCH  12  13
HETATM   13  C   UNL     1      -4.122   3.043 -32.460  1.00  0.00     0.075 A 
HETATM   14  C   UNL     1      -4.852   3.941 -33.260  1.00  0.00    -0.029 A 
HETATM   15  C   UNL     1      -5.909   3.453 -34.215  1.00  0.00     0.051 C 
HETATM   16  C   UNL     1      -4.641   5.321 -33.118  1.00  0.00     0.009 A 
HETATM   17  C   UNL     1      -3.696   5.802 -32.216  1.00  0.00     0.001 A 
HETATM   18  C   UNL     1      -2.958   4.910 -31.443  1.00  0.00     0.003 A 
HETATM   19  C   UNL     1      -3.169   3.534 -31.563  1.00  0.00     0.037 A 
ENDBRANCH  12  13
ENDBRANCH  11  12
ENDBRANCH   8  11
ENDBRANCH   1   7
BRANCH   2  20
HETATM   20  C   UNL     1      -6.931  -0.786 -34.372  1.00  0.00     0.254 C 
HETATM   21  N   UNL     1      -7.847  -0.591 -33.367  1.00  0.00    -0.351 N 
HETATM   22  H   UNL     1      -8.094  -1.334 -32.726  1.00  0.00     0.163 HD
HETATM   23  O   UNL     1      -6.675   0.069 -35.218  1.00  0.00    -0.268 OA
BRANCH  21  24
HETATM   24  C   UNL     1      -8.507   0.678 -33.164  1.00  0.00     0.187 C 
BRANCH  24  25
HETATM   25  C   UNL     1      -7.909   1.343 -31.979  1.00  0.00     0.070 A 
HETATM   26  O   UNL     1      -8.198   2.668 -31.802  1.00  0.00    -0.325 OA
HETATM   27  C   UNL     1      -7.546   3.071 -30.681  1.00  0.00     0.142 A 
HETATM   28  C   UNL     1      -6.839   2.027 -30.134  1.00  0.00     0.027 A 
HETATM   29  C   UNL     1      -7.072   0.909 -30.970  1.00  0.00     0.036 A 
ENDBRANCH  24  25
ENDBRANCH  21  24
ENDBRANCH   2  20
TORSDOF 7
ENDMDL
MODEL 8
REMARK VINA RESULT:      -7.9      2.117      6.911
REMARK  7 active torsions:
REMARK  status: ('A' for Active; 'I' for Inactive)
REMARK    1  A    between atoms: C_3  and  O_4 
REMARK    2  A    between atoms: O_4  and  C_5 
REMARK    3  A    between atoms: C_5  and  C_6 
REMARK       I    between atoms: C_6  and  N_7 
REMARK    4  A    between atoms: N_7  and  C_8 
REMARK    5  A    between atoms: C_9  and  C_10 
REMARK       I    between atoms: C_10  and  N_11 
REMARK    6  A    between atoms: N_11  and  C_12 
REMARK    7  A    between atoms: C_12  and  C_13 
ROOT
HETATM    1  C   UNL     1      -6.543  -1.542 -33.680  1.00  0.00     0.050 A 
HETATM    2  C   UNL     1      -5.251  -1.368 -33.132  1.00  0.00     0.058 A 
HETATM    3  C   UNL     1      -4.194  -2.198 -33.551  1.00  0.00     0.019 A 
HETATM    4  C   UNL     1      -4.418  -3.222 -34.470  1.00  0.00     0.001 A 
HETATM    5  C   UNL     1      -5.694  -3.419 -34.983  1.00  0.00     0.002 A 
HETATM    6  C   UNL     1      -6.745  -2.583 -34.596  1.00  0.00     0.030 A 
ENDROOT
BRANCH   1   7
HETATM    7  N   UNL     1      -7.580  -0.635 -33.337  1.00  0.00    -0.324 N 
HETATM    8  C   UNL     1      -8.074   0.407 -34.101  1.00  0.00     0.246 C 
HETATM    9  O   UNL     1      -7.840   0.583 -35.295  1.00  0.00    -0.271 OA
HETATM   10  H   UNL     1      -7.990  -0.791 -32.414  1.00  0.00     0.169 HD
BRANCH   8  11
HETATM   11  C   UNL     1      -8.975   1.364 -33.319  1.00  0.00     0.278 C 
BRANCH  11  12
HETATM   12  O   UNL     1      -9.915   1.892 -34.248  1.00  0.00    -0.342 OA
BRANCH  12  13
HETATM   13  C   UNL     1     -11.206   1.450 -34.189  1.00  0.00     0.075 A 
HETATM   14  C   UNL     1     -12.144   2.220 -34.902  1.00  0.00    -0.029 A 
HETATM   15  C   UNL     1     -11.717   3.415 -35.712  1.00  0.00     0.051 C 
HETATM   16  C   UNL     1     -13.491   1.829 -34.915  1.00  0.00     0.009 A 
HETATM   17  C   UNL     1     -13.908   0.706 -34.205  1.00  0.00     0.001 A 
HETATM   18  C   UNL     1     -12.982  -0.039 -33.480  1.00  0.00     0.003 A 
HETATM   19  C   UNL     1     -11.634   0.330 -33.471  1.00  0.00     0.037 A 
ENDBRANCH  12  13
ENDBRANCH  11  12
ENDBRANCH   8  11
ENDBRANCH   1   7
BRANCH   2  20
HETATM   20  C   UNL     1      -4.998  -0.310 -32.104  1.00  0.00     0.254 C 
HETATM   21  N   UNL     1      -3.829   0.401 -32.232  1.00  0.00    -0.351 N 
HETATM   22  H   UNL     1      -3.160   0.192 -32.961  1.00  0.00     0.163 HD
HETATM   23  O   UNL     1      -5.788  -0.137 -31.179  1.00  0.00    -0.268 OA
BRANCH  21  24
HETATM   24  C   UNL     1      -3.488   1.486 -31.341  1.00  0.00     0.187 C 
BRANCH  24  25
HETATM   25  C   UNL     1      -3.466   2.752 -32.117  1.00  0.00     0.070 A 
HETATM   26  O   UNL     1      -2.247   3.348 -32.292  1.00  0.00    -0.325 OA
HETATM   27  C   UNL     1      -2.459   4.482 -33.007  1.00  0.00     0.142 A 
HETATM   28  C   UNL     1      -3.795   4.628 -33.296  1.00  0.00     0.027 A 
HETATM   29  C   UNL     1      -4.447   3.511 -32.722  1.00  0.00     0.036 A 
ENDBRANCH  24  25
ENDBRANCH  21  24
ENDBRANCH   2  20
TORSDOF 7
ENDMDL
MODEL 9
REMARK VINA RESULT:      -7.7      1.958      6.173
REMARK  7 active torsions:
REMARK  status: ('A' for Active; 'I' for Inactive)
REMARK    1  A    between atoms: C_3  and  O_4 
REMARK    2  A    between atoms: O_4  and  C_5 
REMARK    3  A    between atoms: C_5  and  C_6 
REMARK       I    between atoms: C_6  and  N_7 
REMARK    4  A    between atoms: N_7  and  C_8 
REMARK    5  A    between atoms: C_9  and  C_10 
REMARK       I    between atoms: C_10  and  N_11 
REMARK    6  A    between atoms: N_11  and  C_12 
REMARK    7  A    between atoms: C_12  and  C_13 
ROOT
HETATM    1  C   UNL     1      -4.959   0.166 -33.345  1.00  0.00     0.050 A 
HETATM    2  C   UNL     1      -6.325   0.064 -33.698  1.00  0.00     0.058 A 
HETATM    3  C   UNL     1      -6.847  -1.171 -34.129  1.00  0.00     0.019 A 
HETATM    4  C   UNL     1      -6.019  -2.285 -34.255  1.00  0.00     0.001 A 
HETATM    5  C   UNL     1      -4.669  -2.178 -33.944  1.00  0.00     0.002 A 
HETATM    6  C   UNL     1      -4.146  -0.966 -33.487  1.00  0.00     0.030 A 
ENDROOT
BRANCH   1   7
HETATM    7  N   UNL     1      -4.461   1.382 -32.807  1.00  0.00    -0.324 N 
HETATM    8  C   UNL     1      -3.596   1.539 -31.739  1.00  0.00     0.246 C 
HETATM    9  O   UNL     1      -2.946   0.637 -31.215  1.00  0.00    -0.271 OA
HETATM   10  H   UNL     1      -4.797   2.223 -33.281  1.00  0.00     0.169 HD
BRANCH   8  11
HETATM   11  C   UNL     1      -3.501   2.981 -31.238  1.00  0.00     0.278 C 
BRANCH  11  12
HETATM   12  O   UNL     1      -2.168   3.413 -31.485  1.00  0.00    -0.342 OA
BRANCH  12  13
HETATM   13  C   UNL     1      -1.971   4.471 -32.326  1.00  0.00     0.075 A 
HETATM   14  C   UNL     1      -1.072   5.452 -31.868  1.00  0.00    -0.029 A 
HETATM   15  C   UNL     1      -0.349   5.295 -30.558  1.00  0.00     0.051 C 
HETATM   16  C   UNL     1      -0.794   6.564 -32.676  1.00  0.00     0.009 A 
HETATM   17  C   UNL     1      -1.421   6.717 -33.910  1.00  0.00     0.001 A 
HETATM   18  C   UNL     1      -2.329   5.757 -34.349  1.00  0.00     0.003 A 
HETATM   19  C   UNL     1      -2.604   4.636 -33.561  1.00  0.00     0.037 A 
ENDBRANCH  12  13
ENDBRANCH  11  12
ENDBRANCH   8  11
ENDBRANCH   1   7
BRANCH   2  20
HETATM   20  C   UNL     1      -7.220   1.260 -33.621  1.00  0.00     0.254 C 
HETATM   21  N   UNL     1      -8.391   1.105 -32.919  1.00  0.00    -0.351 N 
HETATM   22  H   UNL     1      -8.648   0.216 -32.509  1.00  0.00     0.163 HD
HETATM   23  O   UNL     1      -6.923   2.301 -34.203  1.00  0.00    -0.268 OA
BRANCH  21  24
HETATM   24  C   UNL     1      -9.319   2.194 -32.722  1.00  0.00     0.187 C 
BRANCH  24  25
HETATM   25  C   UNL     1     -10.677   1.742 -33.119  1.00  0.00     0.070 A 
HETATM   26  O   UNL     1     -11.667   2.687 -33.122  1.00  0.00    -0.325 OA
HETATM   27  C   UNL     1     -12.812   2.062 -33.498  1.00  0.00     0.142 A 
HETATM   28  C   UNL     1     -12.576   0.728 -33.736  1.00  0.00     0.027 A 
HETATM   29  C   UNL     1     -11.198   0.520 -33.493  1.00  0.00     0.036 A 
ENDBRANCH  24  25
ENDBRANCH  21  24
ENDBRANCH   2  20
TORSDOF 7
ENDMDL
MODEL 10
REMARK VINA RESULT:      -7.6      2.376      5.782
REMARK  7 active torsions:
REMARK  status: ('A' for Active; 'I' for Inactive)
REMARK    1  A    between atoms: C_3  and  O_4 
REMARK    2  A    between atoms: O_4  and  C_5 
REMARK    3  A    between atoms: C_5  and  C_6 
REMARK       I    between atoms: C_6  and  N_7 
REMARK    4  A    between atoms: N_7  and  C_8 
REMARK    5  A    between atoms: C_9  and  C_10 
REMARK       I    between atoms: C_10  and  N_11 
REMARK    6  A    between atoms: N_11  and  C_12 
REMARK    7  A    between atoms: C_12  and  C_13 
ROOT
HETATM    1  C   UNL     1      -6.711   3.518 -30.481  1.00  0.00     0.050 A 
HETATM    2  C   UNL     1      -5.479   4.195 -30.328  1.00  0.00     0.058 A 
HETATM    3  C   UNL     1      -5.404   5.335 -29.505  1.00  0.00     0.019 A 
HETATM    4  C   UNL     1      -6.543   5.831 -28.875  1.00  0.00     0.001 A 
HETATM    5  C   UNL     1      -7.763   5.189 -29.053  1.00  0.00     0.002 A 
HETATM    6  C   UNL     1      -7.844   4.040 -29.844  1.00  0.00     0.030 A 
ENDROOT
BRANCH   1   7
HETATM    7  N   UNL     1      -6.760   2.308 -31.222  1.00  0.00    -0.324 N 
HETATM    8  C   UNL     1      -7.351   2.098 -32.455  1.00  0.00     0.246 C 
HETATM    9  O   UNL     1      -7.745   2.984 -33.211  1.00  0.00    -0.271 OA
HETATM   10  H   UNL     1      -6.300   1.515 -30.769  1.00  0.00     0.169 HD
BRANCH   8  11
HETATM   11  C   UNL     1      -7.481   0.620 -32.827  1.00  0.00     0.278 C 
BRANCH  11  12
HETATM   12  O   UNL     1      -6.157   0.122 -32.988  1.00  0.00    -0.342 OA
BRANCH  12  13
HETATM   13  C   UNL     1      -5.987  -1.089 -33.598  1.00  0.00     0.075 A 
HETATM   14  C   UNL     1      -4.658  -1.543 -33.684  1.00  0.00    -0.029 A 
HETATM   15  C   UNL     1      -3.524  -0.754 -33.088  1.00  0.00     0.051 C 
HETATM   16  C   UNL     1      -4.392  -2.787 -34.277  1.00  0.00     0.009 A 
HETATM   17  C   UNL     1      -5.426  -3.556 -34.804  1.00  0.00     0.001 A 
HETATM   18  C   UNL     1      -6.737  -3.091 -34.739  1.00  0.00     0.003 A 
HETATM   19  C   UNL     1      -7.019  -1.861 -34.138  1.00  0.00     0.037 A 
ENDBRANCH  12  13
ENDBRANCH  11  12
ENDBRANCH   8  11
ENDBRANCH   1   7
BRANCH   2  20
HETATM   20  C   UNL     1      -4.253   3.712 -31.037  1.00  0.00     0.254 C 
HETATM   21  N   UNL     1      -3.605   4.626 -31.832  1.00  0.00    -0.351 N 
HETATM   22  H   UNL     1      -3.962   5.564 -31.958  1.00  0.00     0.163 HD
HETATM   23  O   UNL     1      -3.892   2.542 -30.933  1.00  0.00    -0.268 OA
BRANCH  21  24
HETATM   24  C   UNL     1      -2.380   4.307 -32.529  1.00  0.00     0.187 C 
BRANCH  24  25
HETATM   25  C   UNL     1      -1.259   5.031 -31.879  1.00  0.00     0.070 A 
HETATM   26  O   UNL     1      -0.643   4.405 -30.829  1.00  0.00    -0.325 OA
HETATM   27  C   UNL     1       0.330   5.240 -30.384  1.00  0.00     0.142 A 
HETATM   28  C   UNL     1       0.352   6.395 -31.129  1.00  0.00     0.027 A 
HETATM   29  C   UNL     1      -0.673   6.262 -32.095  1.00  0.00     0.036 A 
ENDBRANCH  24  25
ENDBRANCH  21  24
ENDBRANCH   2  20
TORSDOF 7
ENDMDL
