MODEL 1
REMARK VINA RESULT:      -8.5      0.000      0.000
REMARK  6 active torsions:
REMARK  status: ('A' for Active; 'I' for Inactive)
REMARK    1  A    between atoms: C_2  and  C_3 
REMARK       I    between atoms: C_3  and  N_4 
REMARK    2  A    between atoms: N_4  and  C_5 
REMARK    3  A    between atoms: C_8  and  N_9 
REMARK       I    between atoms: N_9  and  C_10 
REMARK    4  A    between atoms: C_10  and  C_11 
REMARK    5  A    between atoms: C_16  and  C_17 
REMARK    6  A    between atoms: C_23  and  C_24 
ROOT
HETATM    1  C   UNL     1      -9.270   3.841 -34.019  1.00  0.00     0.148 A 
HETATM    2  N   UNL     1      -9.403   2.716 -33.281  1.00  0.00    -0.165 NA
HETATM    3  N   UNL     1     -10.557   2.177 -33.722  1.00  0.00    -0.240 N 
HETATM    4  C   UNL     1     -11.174   2.924 -34.690  1.00  0.00     0.123 A 
HETATM    5  N   UNL     1     -12.354   2.549 -35.232  1.00  0.00    -0.364 N 
HETATM    6  C   UNL     1     -13.175   1.522 -34.586  1.00  0.00     0.143 C 
HETATM    7  C   UNL     1     -12.260   0.429 -34.014  1.00  0.00     0.068 C 
HETATM    8  C   UNL     1     -11.165   1.012 -33.099  1.00  0.00     0.221 C 
HETATM    9  C   UNL     1     -10.365   4.006 -34.911  1.00  0.00     0.089 A 
HETATM   10  H   UNL     1     -12.883   3.212 -35.799  1.00  0.00     0.162 HD
ENDROOT
BRANCH   1  11
HETATM   11  C   UNL     1      -8.119   4.749 -33.877  1.00  0.00     0.276 C 
HETATM   12  N   UNL     1      -6.978   4.087 -33.463  1.00  0.00    -0.322 N 
HETATM   13  H   UNL     1      -7.106   3.083 -33.359  1.00  0.00     0.169 HD
HETATM   14  O   UNL     1      -8.217   5.944 -34.139  1.00  0.00    -0.266 OA
BRANCH  12  15
HETATM   15  C   UNL     1      -5.702   4.626 -33.226  1.00  0.00     0.035 A 
HETATM   16  C   UNL     1      -4.776   4.899 -34.232  1.00  0.00     0.032 A 
HETATM   17  C   UNL     1      -3.521   5.446 -33.924  1.00  0.00     0.032 A 
HETATM   18  C   UNL     1      -3.170   5.727 -32.605  1.00  0.00     0.034 A 
HETATM   19  C   UNL     1      -4.100   5.451 -31.594  1.00  0.00     0.032 A 
HETATM   20  C   UNL     1      -5.355   4.911 -31.903  1.00  0.00     0.032 A 
BRANCH  18  21
HETATM   21  N   UNL     1      -1.935   6.286 -32.216  1.00  0.00    -0.327 N 
HETATM   22  C   UNL     1      -0.895   5.652 -31.559  1.00  0.00     0.221 C 
HETATM   23  O   UNL     1      -0.867   4.481 -31.196  1.00  0.00    -0.273 OA
HETATM   24  H   UNL     1      -1.806   7.262 -32.442  1.00  0.00     0.169 HD
BRANCH  22  25
HETATM   25  C   UNL     1       0.320   6.543 -31.350  1.00  0.00     0.098 C 
HETATM   26  C   UNL     1       0.418   7.121 -29.949  1.00  0.00     0.014 C 
ENDBRANCH  22  25
ENDBRANCH  18  21
ENDBRANCH  12  15
ENDBRANCH   1  11
BRANCH   8  27
HETATM   27  C   UNL     1     -10.147  -0.059 -32.775  1.00  0.00     0.409 C 
HETATM   28  F   UNL     1      -9.225  -0.210 -33.752  1.00  0.00    -0.169 F 
HETATM   29  F   UNL     1      -9.497   0.153 -31.611  1.00  0.00    -0.169 F 
HETATM   30  F   UNL     1     -10.771  -1.261 -32.643  1.00  0.00    -0.169 F 
ENDBRANCH   8  27
BRANCH   6  31
HETATM   31  C   UNL     1     -14.134   2.040 -33.560  1.00  0.00     0.075 A 
HETATM   32  O   UNL     1     -15.324   1.377 -33.458  1.00  0.00    -0.325 OA
HETATM   33  C   UNL     1     -16.054   2.010 -32.505  1.00  0.00     0.142 A 
HETATM   34  C   UNL     1     -15.348   3.068 -31.982  1.00  0.00     0.027 A 
HETATM   35  C   UNL     1     -14.107   3.088 -32.661  1.00  0.00     0.037 A 
ENDBRANCH   6  31
TORSDOF 6
ENDMDL
MODEL 2
REMARK VINA RESULT:      -8.5      4.734      7.796
REMARK  6 active torsions:
REMARK  status: ('A' for Active; 'I' for Inactive)
REMARK    1  A    between atoms: C_2  and  C_3 
REMARK       I    between atoms: C_3  and  N_4 
REMARK    2  A    between atoms: N_4  and  C_5 
REMARK    3  A    between atoms: C_8  and  N_9 
REMARK       I    between atoms: N_9  and  C_10 
REMARK    4  A    between atoms: C_10  and  C_11 
REMARK    5  A    between atoms: C_16  and  C_17 
REMARK    6  A    between atoms: C_23  and  C_24 
ROOT
HETATM    1  C   UNL     1      -1.838   4.850 -31.456  1.00  0.00     0.148 A 
HETATM    2  N   UNL     1      -2.647   3.782 -31.269  1.00  0.00    -0.165 NA
HETATM    3  N   UNL     1      -3.524   3.862 -32.289  1.00  0.00    -0.240 N 
HETATM    4  C   UNL     1      -3.323   4.948 -33.100  1.00  0.00     0.123 A 
HETATM    5  N   UNL     1      -4.123   5.201 -34.160  1.00  0.00    -0.364 N 
HETATM    6  C   UNL     1      -5.417   4.527 -34.291  1.00  0.00     0.143 C 
HETATM    7  C   UNL     1      -5.280   3.072 -33.818  1.00  0.00     0.068 C 
HETATM    8  C   UNL     1      -4.674   2.979 -32.403  1.00  0.00     0.221 C 
HETATM    9  C   UNL     1      -2.235   5.606 -32.592  1.00  0.00     0.089 A 
HETATM   10  H   UNL     1      -4.075   6.108 -34.623  1.00  0.00     0.162 HD
ENDROOT
BRANCH   1  11
HETATM   11  C   UNL     1      -0.704   5.149 -30.564  1.00  0.00     0.276 C 
HETATM   12  N   UNL     1      -0.971   6.208 -29.715  1.00  0.00    -0.322 N 
HETATM   13  H   UNL     1      -1.911   6.583 -29.817  1.00  0.00     0.169 HD
HETATM   14  O   UNL     1       0.323   4.479 -30.598  1.00  0.00    -0.266 OA
BRANCH  12  15
HETATM   15  C   UNL     1      -0.131   6.765 -28.736  1.00  0.00     0.035 A 
HETATM   16  C   UNL     1       0.706   7.856 -28.962  1.00  0.00     0.032 A 
HETATM   17  C   UNL     1       1.514   8.367 -27.935  1.00  0.00     0.032 A 
HETATM   18  C   UNL     1       1.502   7.792 -26.666  1.00  0.00     0.034 A 
HETATM   19  C   UNL     1       0.663   6.693 -26.439  1.00  0.00     0.032 A 
HETATM   20  C   UNL     1      -0.149   6.188 -27.464  1.00  0.00     0.032 A 
BRANCH  18  21
HETATM   21  N   UNL     1       2.276   8.252 -25.580  1.00  0.00    -0.327 N 
HETATM   22  C   UNL     1       1.978   9.289 -24.714  1.00  0.00     0.221 C 
HETATM   23  O   UNL     1       0.978   9.999 -24.742  1.00  0.00    -0.273 OA
HETATM   24  H   UNL     1       3.148   7.765 -25.427  1.00  0.00     0.169 HD
BRANCH  22  25
HETATM   25  C   UNL     1       3.012   9.474 -23.614  1.00  0.00     0.098 C 
HETATM   26  C   UNL     1       2.864   8.489 -22.468  1.00  0.00     0.014 C 
ENDBRANCH  22  25
ENDBRANCH  18  21
ENDBRANCH  12  15
ENDBRANCH   1  11
BRANCH   8  27
HETATM   27  C   UNL     1      -4.322   1.541 -32.093  1.00  0.00     0.409 C 
HETATM   28  F   UNL     1      -3.133   1.173 -32.619  1.00  0.00    -0.169 F 
HETATM   29  F   UNL     1      -4.301   1.267 -30.771  1.00  0.00    -0.169 F 
HETATM   30  F   UNL     1      -5.257   0.712 -32.633  1.00  0.00    -0.169 F 
ENDBRANCH   8  27
BRANCH   6  31
HETATM   31  C   UNL     1      -6.559   5.226 -33.621  1.00  0.00     0.075 A 
HETATM   32  O   UNL     1      -7.796   5.008 -34.156  1.00  0.00    -0.325 OA
HETATM   33  C   UNL     1      -8.679   5.744 -33.434  1.00  0.00     0.142 A 
HETATM   34  C   UNL     1      -8.031   6.426 -32.432  1.00  0.00     0.027 A 
HETATM   35  C   UNL     1      -6.660   6.093 -32.550  1.00  0.00     0.037 A 
ENDBRANCH   6  31
TORSDOF 6
ENDMDL
MODEL 3
REMARK VINA RESULT:      -8.5      5.609      8.170
REMARK  6 active torsions:
REMARK  status: ('A' for Active; 'I' for Inactive)
REMARK    1  A    between atoms: C_2  and  C_3 
REMARK       I    between atoms: C_3  and  N_4 
REMARK    2  A    between atoms: N_4  and  C_5 
REMARK    3  A    between atoms: C_8  and  N_9 
REMARK       I    between atoms: N_9  and  C_10 
REMARK    4  A    between atoms: C_10  and  C_11 
REMARK    5  A    between atoms: C_16  and  C_17 
REMARK    6  A    between atoms: C_23  and  C_24 
ROOT
HETATM    1  C   UNL     1      -3.584   6.285 -30.608  1.00  0.00     0.148 A 
HETATM    2  N   UNL     1      -3.098   5.893 -31.808  1.00  0.00    -0.165 NA
HETATM    3  N   UNL     1      -4.129   5.235 -32.373  1.00  0.00    -0.240 N 
HETATM    4  C   UNL     1      -5.241   5.172 -31.574  1.00  0.00     0.123 A 
HETATM    5  N   UNL     1      -6.363   4.530 -31.968  1.00  0.00    -0.364 N 
HETATM    6  C   UNL     1      -6.330   3.606 -33.105  1.00  0.00     0.143 C 
HETATM    7  C   UNL     1      -5.400   4.171 -34.188  1.00  0.00     0.068 C 
HETATM    8  C   UNL     1      -4.004   4.517 -33.630  1.00  0.00     0.221 C 
HETATM    9  C   UNL     1      -4.924   5.847 -30.426  1.00  0.00     0.089 A 
HETATM   10  H   UNL     1      -7.095   4.329 -31.287  1.00  0.00     0.162 HD
ENDROOT
BRANCH   1  11
HETATM   11  C   UNL     1      -2.784   7.065 -29.647  1.00  0.00     0.276 C 
HETATM   12  N   UNL     1      -1.577   6.457 -29.356  1.00  0.00    -0.322 N 
HETATM   13  H   UNL     1      -1.420   5.595 -29.875  1.00  0.00     0.169 HD
HETATM   14  O   UNL     1      -3.186   8.139 -29.212  1.00  0.00    -0.266 OA
BRANCH  12  15
HETATM   15  C   UNL     1      -0.567   6.909 -28.490  1.00  0.00     0.035 A 
HETATM   16  C   UNL     1       0.448   7.784 -28.873  1.00  0.00     0.032 A 
HETATM   17  C   UNL     1       1.422   8.202 -27.953  1.00  0.00     0.032 A 
HETATM   18  C   UNL     1       1.398   7.749 -26.636  1.00  0.00     0.034 A 
HETATM   19  C   UNL     1       0.380   6.868 -26.251  1.00  0.00     0.032 A 
HETATM   20  C   UNL     1      -0.596   6.456 -27.169  1.00  0.00     0.032 A 
BRANCH  18  21
HETATM   21  N   UNL     1       2.333   8.129 -25.650  1.00  0.00    -0.327 N 
HETATM   22  C   UNL     1       2.323   9.278 -24.880  1.00  0.00     0.221 C 
HETATM   23  O   UNL     1       1.490  10.177 -24.921  1.00  0.00    -0.273 OA
HETATM   24  H   UNL     1       3.097   7.485 -25.501  1.00  0.00     0.169 HD
BRANCH  22  25
HETATM   25  C   UNL     1       3.456   9.337 -23.867  1.00  0.00     0.098 C 
HETATM   26  C   UNL     1       3.211   8.495 -22.628  1.00  0.00     0.014 C 
ENDBRANCH  22  25
ENDBRANCH  18  21
ENDBRANCH  12  15
ENDBRANCH   1  11
BRANCH   8  27
HETATM   27  C   UNL     1      -3.223   5.301 -34.661  1.00  0.00     0.409 C 
HETATM   28  F   UNL     1      -3.055   6.595 -34.311  1.00  0.00    -0.169 F 
HETATM   29  F   UNL     1      -2.007   4.775 -34.925  1.00  0.00    -0.169 F 
HETATM   30  F   UNL     1      -3.896   5.303 -35.844  1.00  0.00    -0.169 F 
ENDBRANCH   8  27
BRANCH   6  31
HETATM   31  C   UNL     1      -5.984   2.193 -32.754  1.00  0.00     0.075 A 
HETATM   32  O   UNL     1      -6.034   1.289 -33.777  1.00  0.00    -0.325 OA
HETATM   33  C   UNL     1      -5.719   0.076 -33.254  1.00  0.00     0.142 A 
HETATM   34  C   UNL     1      -5.456   0.186 -31.909  1.00  0.00     0.027 A 
HETATM   35  C   UNL     1      -5.625   1.552 -31.584  1.00  0.00     0.037 A 
ENDBRANCH   6  31
TORSDOF 6
ENDMDL
MODEL 4
REMARK VINA RESULT:      -8.3      6.472     11.200
REMARK  6 active torsions:
REMARK  status: ('A' for Active; 'I' for Inactive)
REMARK    1  A    between atoms: C_2  and  C_3 
REMARK       I    between atoms: C_3  and  N_4 
REMARK    2  A    between atoms: N_4  and  C_5 
REMARK    3  A    between atoms: C_8  and  N_9 
REMARK       I    between atoms: N_9  and  C_10 
REMARK    4  A    between atoms: C_10  and  C_11 
REMARK    5  A    between atoms: C_16  and  C_17 
REMARK    6  A    between atoms: C_23  and  C_24 
ROOT
HETATM    1  C   UNL     1      -2.055   5.040 -31.351  1.00  0.00     0.148 A 
HETATM    2  N   UNL     1      -2.655   6.250 -31.278  1.00  0.00    -0.165 NA
HETATM    3  N   UNL     1      -1.887   6.936 -30.409  1.00  0.00    -0.240 N 
HETATM    4  C   UNL     1      -0.841   6.207 -29.909  1.00  0.00     0.123 A 
HETATM    5  N   UNL     1       0.020   6.727 -29.006  1.00  0.00    -0.364 N 
HETATM    6  C   UNL     1      -0.314   7.957 -28.284  1.00  0.00     0.143 C 
HETATM    7  C   UNL     1      -1.036   8.922 -29.236  1.00  0.00     0.068 C 
HETATM    8  C   UNL     1      -2.247   8.259 -29.923  1.00  0.00     0.221 C 
HETATM    9  C   UNL     1      -0.917   4.976 -30.503  1.00  0.00     0.089 A 
HETATM   10  H   UNL     1       0.662   6.110 -28.508  1.00  0.00     0.162 HD
ENDROOT
BRANCH   1  11
HETATM   11  C   UNL     1      -2.560   3.958 -32.215  1.00  0.00     0.276 C 
HETATM   12  N   UNL     1      -3.336   3.051 -31.519  1.00  0.00    -0.322 N 
HETATM   13  H   UNL     1      -3.464   3.293 -30.538  1.00  0.00     0.169 HD
HETATM   14  O   UNL     1      -2.308   3.936 -33.416  1.00  0.00    -0.266 OA
BRANCH  12  15
HETATM   15  C   UNL     1      -3.979   1.903 -32.013  1.00  0.00     0.035 A 
HETATM   16  C   UNL     1      -3.561   0.602 -31.741  1.00  0.00     0.032 A 
HETATM   17  C   UNL     1      -4.256  -0.500 -32.261  1.00  0.00     0.032 A 
HETATM   18  C   UNL     1      -5.379  -0.319 -33.066  1.00  0.00     0.034 A 
HETATM   19  C   UNL     1      -5.799   0.989 -33.341  1.00  0.00     0.032 A 
HETATM   20  C   UNL     1      -5.108   2.089 -32.815  1.00  0.00     0.032 A 
BRANCH  18  21
HETATM   21  N   UNL     1      -6.137  -1.373 -33.618  1.00  0.00    -0.327 N 
HETATM   22  C   UNL     1      -5.670  -2.455 -34.343  1.00  0.00     0.221 C 
HETATM   23  O   UNL     1      -4.502  -2.687 -34.636  1.00  0.00    -0.273 OA
HETATM   24  H   UNL     1      -7.135  -1.320 -33.466  1.00  0.00     0.169 HD
BRANCH  22  25
HETATM   25  C   UNL     1      -6.763  -3.438 -34.734  1.00  0.00     0.098 C 
HETATM   26  C   UNL     1      -6.255  -4.631 -35.522  1.00  0.00     0.014 C 
ENDBRANCH  22  25
ENDBRANCH  18  21
ENDBRANCH  12  15
ENDBRANCH   1  11
BRANCH   8  27
HETATM   27  C   UNL     1      -2.758   9.155 -31.029  1.00  0.00     0.409 C 
HETATM   28  F   UNL     1      -2.042   9.032 -32.169  1.00  0.00    -0.169 F 
HETATM   29  F   UNL     1      -4.059   8.949 -31.326  1.00  0.00    -0.169 F 
HETATM   30  F   UNL     1      -2.661  10.457 -30.649  1.00  0.00    -0.169 F 
ENDBRANCH   8  27
BRANCH   6  31
HETATM   31  C   UNL     1      -1.079   7.750 -27.014  1.00  0.00     0.075 A 
HETATM   32  O   UNL     1      -1.402   6.459 -26.708  1.00  0.00    -0.325 OA
HETATM   33  C   UNL     1      -2.108   6.487 -25.550  1.00  0.00     0.142 A 
HETATM   34  C   UNL     1      -2.238   7.779 -25.096  1.00  0.00     0.027 A 
HETATM   35  C   UNL     1      -1.572   8.597 -26.040  1.00  0.00     0.037 A 
ENDBRANCH   6  31
TORSDOF 6
ENDMDL
MODEL 5
REMARK VINA RESULT:      -8.1      4.691      9.974
REMARK  6 active torsions:
REMARK  status: ('A' for Active; 'I' for Inactive)
REMARK    1  A    between atoms: C_2  and  C_3 
REMARK       I    between atoms: C_3  and  N_4 
REMARK    2  A    between atoms: N_4  and  C_5 
REMARK    3  A    between atoms: C_8  and  N_9 
REMARK       I    between atoms: N_9  and  C_10 
REMARK    4  A    between atoms: C_10  and  C_11 
REMARK    5  A    between atoms: C_16  and  C_17 
REMARK    6  A    between atoms: C_23  and  C_24 
ROOT
HETATM    1  C   UNL     1      -8.951   1.466 -32.706  1.00  0.00     0.148 A 
HETATM    2  N   UNL     1      -8.077   0.961 -31.806  1.00  0.00    -0.165 NA
HETATM    3  N   UNL     1      -7.094   0.443 -32.570  1.00  0.00    -0.240 N 
HETATM    4  C   UNL     1      -7.320   0.575 -33.915  1.00  0.00     0.123 A 
HETATM    5  N   UNL     1      -6.451   0.093 -34.831  1.00  0.00    -0.364 N 
HETATM    6  C   UNL     1      -5.416  -0.867 -34.440  1.00  0.00     0.143 C 
HETATM    7  C   UNL     1      -4.872  -0.488 -33.056  1.00  0.00     0.068 C 
HETATM    8  C   UNL     1      -5.998  -0.333 -32.014  1.00  0.00     0.221 C 
HETATM    9  C   UNL     1      -8.511   1.238 -34.038  1.00  0.00     0.089 A 
HETATM   10  H   UNL     1      -6.734   0.030 -35.810  1.00  0.00     0.162 HD
ENDROOT
BRANCH   1  11
HETATM   11  C   UNL     1     -10.191   2.153 -32.303  1.00  0.00     0.276 C 
HETATM   12  N   UNL     1     -11.278   1.758 -33.061  1.00  0.00    -0.322 N 
HETATM   13  H   UNL     1     -11.057   1.036 -33.743  1.00  0.00     0.169 HD
HETATM   14  O   UNL     1     -10.199   2.954 -31.374  1.00  0.00    -0.266 OA
BRANCH  12  15
HETATM   15  C   UNL     1     -12.609   2.196 -32.958  1.00  0.00     0.035 A 
HETATM   16  C   UNL     1     -13.715   1.385 -33.211  1.00  0.00     0.032 A 
HETATM   17  C   UNL     1     -15.019   1.887 -33.081  1.00  0.00     0.032 A 
HETATM   18  C   UNL     1     -15.239   3.209 -32.700  1.00  0.00     0.034 A 
HETATM   19  C   UNL     1     -14.128   4.025 -32.448  1.00  0.00     0.032 A 
HETATM   20  C   UNL     1     -12.826   3.521 -32.572  1.00  0.00     0.032 A 
BRANCH  18  21
HETATM   21  N   UNL     1     -16.517   3.785 -32.538  1.00  0.00    -0.327 N 
HETATM   22  C   UNL     1     -17.635   3.203 -31.970  1.00  0.00     0.221 C 
HETATM   23  O   UNL     1     -17.713   2.071 -31.504  1.00  0.00    -0.273 OA
HETATM   24  H   UNL     1     -16.617   4.729 -32.884  1.00  0.00     0.169 HD
BRANCH  22  25
HETATM   25  C   UNL     1     -18.834   4.137 -31.902  1.00  0.00     0.098 C 
HETATM   26  C   UNL     1     -18.621   5.456 -32.623  1.00  0.00     0.014 C 
ENDBRANCH  22  25
ENDBRANCH  18  21
ENDBRANCH  12  15
ENDBRANCH   1  11
BRANCH   8  27
HETATM   27  C   UNL     1      -5.442   0.286 -30.751  1.00  0.00     0.409 C 
HETATM   28  F   UNL     1      -5.298   1.627 -30.850  1.00  0.00    -0.169 F 
HETATM   29  F   UNL     1      -6.184   0.023 -29.654  1.00  0.00    -0.169 F 
HETATM   30  F   UNL     1      -4.204  -0.218 -30.497  1.00  0.00    -0.169 F 
ENDBRANCH   8  27
BRANCH   6  31
HETATM   31  C   UNL     1      -5.837  -2.302 -34.501  1.00  0.00     0.075 A 
HETATM   32  O   UNL     1      -4.832  -3.226 -34.507  1.00  0.00    -0.325 OA
HETATM   33  C   UNL     1      -5.413  -4.449 -34.592  1.00  0.00     0.142 A 
HETATM   34  C   UNL     1      -6.782  -4.330 -34.631  1.00  0.00     0.027 A 
HETATM   35  C   UNL     1      -7.059  -2.943 -34.571  1.00  0.00     0.037 A 
ENDBRANCH   6  31
TORSDOF 6
ENDMDL
MODEL 6
REMARK VINA RESULT:      -8.0      5.851     10.937
REMARK  6 active torsions:
REMARK  status: ('A' for Active; 'I' for Inactive)
REMARK    1  A    between atoms: C_2  and  C_3 
REMARK       I    between atoms: C_3  and  N_4 
REMARK    2  A    between atoms: N_4  and  C_5 
REMARK    3  A    between atoms: C_8  and  N_9 
REMARK       I    between atoms: N_9  and  C_10 
REMARK    4  A    between atoms: C_10  and  C_11 
REMARK    5  A    between atoms: C_16  and  C_17 
REMARK    6  A    between atoms: C_23  and  C_24 
ROOT
HETATM    1  C   UNL     1      -3.053   5.235 -31.524  1.00  0.00     0.148 A 
HETATM    2  N   UNL     1      -3.658   5.488 -30.341  1.00  0.00    -0.165 NA
HETATM    3  N   UNL     1      -3.128   6.665 -29.955  1.00  0.00    -0.240 N 
HETATM    4  C   UNL     1      -2.195   7.158 -30.829  1.00  0.00     0.123 A 
HETATM    5  N   UNL     1      -1.543   8.318 -30.592  1.00  0.00    -0.364 N 
HETATM    6  C   UNL     1      -1.558   8.919 -29.256  1.00  0.00     0.143 C 
HETATM    7  C   UNL     1      -2.949   8.730 -28.633  1.00  0.00     0.068 C 
HETATM    8  C   UNL     1      -3.396   7.254 -28.653  1.00  0.00     0.221 C 
HETATM    9  C   UNL     1      -2.126   6.259 -31.859  1.00  0.00     0.089 A 
HETATM   10  H   UNL     1      -0.724   8.559 -31.150  1.00  0.00     0.162 HD
ENDROOT
BRANCH   1  11
HETATM   11  C   UNL     1      -3.350   4.034 -32.324  1.00  0.00     0.276 C 
HETATM   12  N   UNL     1      -4.518   3.412 -31.920  1.00  0.00    -0.322 N 
HETATM   13  H   UNL     1      -4.998   3.900 -31.168  1.00  0.00     0.169 HD
HETATM   14  O   UNL     1      -2.621   3.692 -33.249  1.00  0.00    -0.266 OA
BRANCH  12  15
HETATM   15  C   UNL     1      -5.108   2.253 -32.451  1.00  0.00     0.035 A 
HETATM   16  C   UNL     1      -5.873   2.235 -33.616  1.00  0.00     0.032 A 
HETATM   17  C   UNL     1      -6.427   1.038 -34.094  1.00  0.00     0.032 A 
HETATM   18  C   UNL     1      -6.229  -0.161 -33.413  1.00  0.00     0.034 A 
HETATM   19  C   UNL     1      -5.462  -0.143 -32.241  1.00  0.00     0.032 A 
HETATM   20  C   UNL     1      -4.903   1.051 -31.768  1.00  0.00     0.032 A 
BRANCH  18  21
HETATM   21  N   UNL     1      -6.743  -1.406 -33.833  1.00  0.00    -0.327 N 
HETATM   22  C   UNL     1      -6.041  -2.464 -34.382  1.00  0.00     0.221 C 
HETATM   23  O   UNL     1      -4.835  -2.503 -34.603  1.00  0.00    -0.273 OA
HETATM   24  H   UNL     1      -7.740  -1.527 -33.721  1.00  0.00     0.169 HD
BRANCH  22  25
HETATM   25  C   UNL     1      -6.907  -3.683 -34.664  1.00  0.00     0.098 C 
HETATM   26  C   UNL     1      -6.265  -4.680 -35.611  1.00  0.00     0.014 C 
ENDBRANCH  22  25
ENDBRANCH  18  21
ENDBRANCH  12  15
ENDBRANCH   1  11
BRANCH   8  27
HETATM   27  C   UNL     1      -4.857   7.159 -28.272  1.00  0.00     0.409 C 
HETATM   28  F   UNL     1      -5.681   7.381 -29.321  1.00  0.00    -0.169 F 
HETATM   29  F   UNL     1      -5.190   5.973 -27.719  1.00  0.00    -0.169 F 
HETATM   30  F   UNL     1      -5.152   8.105 -27.341  1.00  0.00    -0.169 F 
ENDBRANCH   8  27
BRANCH   6  31
HETATM   31  C   UNL     1      -0.470   8.448 -28.343  1.00  0.00     0.075 A 
HETATM   32  O   UNL     1      -0.670   8.656 -27.009  1.00  0.00    -0.325 OA
HETATM   33  C   UNL     1       0.430   8.191 -26.362  1.00  0.00     0.142 A 
HETATM   34  C   UNL     1       1.334   7.675 -27.261  1.00  0.00     0.027 A 
HETATM   35  C   UNL     1       0.755   7.840 -28.542  1.00  0.00     0.037 A 
ENDBRANCH   6  31
TORSDOF 6
ENDMDL
MODEL 7
REMARK VINA RESULT:      -8.0      3.440      5.232
REMARK  6 active torsions:
REMARK  status: ('A' for Active; 'I' for Inactive)
REMARK    1  A    between atoms: C_2  and  C_3 
REMARK       I    between atoms: C_3  and  N_4 
REMARK    2  A    between atoms: N_4  and  C_5 
REMARK    3  A    between atoms: C_8  and  N_9 
REMARK       I    between atoms: N_9  and  C_10 
REMARK    4  A    between atoms: C_10  and  C_11 
REMARK    5  A    between atoms: C_16  and  C_17 
REMARK    6  A    between atoms: C_23  and  C_24 
ROOT
HETATM    1  C   UNL     1      -4.770   3.660 -32.700  1.00  0.00     0.148 A 
HETATM    2  N   UNL     1      -4.637   2.383 -32.274  1.00  0.00    -0.165 NA
HETATM    3  N   UNL     1      -5.385   1.676 -33.144  1.00  0.00    -0.240 N 
HETATM    4  C   UNL     1      -6.006   2.451 -34.088  1.00  0.00     0.123 A 
HETATM    5  N   UNL     1      -6.815   1.914 -35.028  1.00  0.00    -0.364 N 
HETATM    6  C   UNL     1      -7.320   0.547 -34.879  1.00  0.00     0.143 C 
HETATM    7  C   UNL     1      -6.217  -0.338 -34.282  1.00  0.00     0.068 C 
HETATM    8  C   UNL     1      -5.642   0.255 -32.979  1.00  0.00     0.221 C 
HETATM    9  C   UNL     1      -5.624   3.741 -33.833  1.00  0.00     0.089 A 
HETATM   10  H   UNL     1      -7.412   2.523 -35.587  1.00  0.00     0.162 HD
ENDROOT
BRANCH   1  11
HETATM   11  C   UNL     1      -4.094   4.789 -32.036  1.00  0.00     0.276 C 
HETATM   12  N   UNL     1      -2.817   4.464 -31.620  1.00  0.00    -0.322 N 
HETATM   13  H   UNL     1      -2.537   3.517 -31.869  1.00  0.00     0.169 HD
HETATM   14  O   UNL     1      -4.646   5.879 -31.922  1.00  0.00    -0.266 OA
BRANCH  12  15
HETATM   15  C   UNL     1      -1.887   5.284 -30.959  1.00  0.00     0.035 A 
HETATM   16  C   UNL     1      -0.508   5.202 -31.147  1.00  0.00     0.032 A 
HETATM   17  C   UNL     1       0.364   6.059 -30.459  1.00  0.00     0.032 A 
HETATM   18  C   UNL     1      -0.129   7.011 -29.568  1.00  0.00     0.034 A 
HETATM   19  C   UNL     1      -1.514   7.092 -29.377  1.00  0.00     0.032 A 
HETATM   20  C   UNL     1      -2.384   6.240 -30.070  1.00  0.00     0.032 A 
BRANCH  18  21
HETATM   21  N   UNL     1       0.680   7.915 -28.847  1.00  0.00    -0.327 N 
HETATM   22  C   UNL     1       1.049   7.835 -27.516  1.00  0.00     0.221 C 
HETATM   23  O   UNL     1       0.733   6.955 -26.722  1.00  0.00    -0.273 OA
HETATM   24  H   UNL     1       1.019   8.710 -29.369  1.00  0.00     0.169 HD
BRANCH  22  25
HETATM   25  C   UNL     1       1.983   8.953 -27.080  1.00  0.00     0.098 C 
HETATM   26  C   UNL     1       2.404   8.863 -25.624  1.00  0.00     0.014 C 
ENDBRANCH  22  25
ENDBRANCH  18  21
ENDBRANCH  12  15
ENDBRANCH   1  11
BRANCH   8  27
HETATM   27  C   UNL     1      -4.399  -0.508 -32.578  1.00  0.00     0.409 C 
HETATM   28  F   UNL     1      -3.301  -0.104 -33.255  1.00  0.00    -0.169 F 
HETATM   29  F   UNL     1      -4.129  -0.435 -31.257  1.00  0.00    -0.169 F 
HETATM   30  F   UNL     1      -4.561  -1.830 -32.855  1.00  0.00    -0.169 F 
ENDBRANCH   8  27
BRANCH   6  31
HETATM   31  C   UNL     1      -8.602   0.432 -34.116  1.00  0.00     0.075 A 
HETATM   32  O   UNL     1      -9.605   1.280 -34.491  1.00  0.00    -0.325 OA
HETATM   33  C   UNL     1     -10.659   1.041 -33.669  1.00  0.00     0.142 A 
HETATM   34  C   UNL     1     -10.354   0.043 -32.774  1.00  0.00     0.027 A 
HETATM   35  C   UNL     1      -9.026  -0.353 -33.061  1.00  0.00     0.037 A 
ENDBRANCH   6  31
TORSDOF 6
ENDMDL
MODEL 8
REMARK VINA RESULT:      -7.9      3.576     10.822
REMARK  6 active torsions:
REMARK  status: ('A' for Active; 'I' for Inactive)
REMARK    1  A    between atoms: C_2  and  C_3 
REMARK       I    between atoms: C_3  and  N_4 
REMARK    2  A    between atoms: N_4  and  C_5 
REMARK    3  A    between atoms: C_8  and  N_9 
REMARK       I    between atoms: N_9  and  C_10 
REMARK    4  A    between atoms: C_10  and  C_11 
REMARK    5  A    between atoms: C_16  and  C_17 
REMARK    6  A    between atoms: C_23  and  C_24 
ROOT
HETATM    1  C   UNL     1      -5.148   4.608 -32.860  1.00  0.00     0.148 A 
HETATM    2  N   UNL     1      -4.249   5.410 -33.475  1.00  0.00    -0.165 NA
HETATM    3  N   UNL     1      -3.118   5.228 -32.764  1.00  0.00    -0.240 N 
HETATM    4  C   UNL     1      -3.268   4.365 -31.710  1.00  0.00     0.123 A 
HETATM    5  N   UNL     1      -2.245   4.082 -30.874  1.00  0.00    -0.364 N 
HETATM    6  C   UNL     1      -1.045   4.924 -30.856  1.00  0.00     0.143 C 
HETATM    7  C   UNL     1      -0.709   5.356 -32.291  1.00  0.00     0.068 C 
HETATM    8  C   UNL     1      -1.915   6.011 -32.995  1.00  0.00     0.221 C 
HETATM    9  C   UNL     1      -4.568   3.941 -31.747  1.00  0.00     0.089 A 
HETATM   10  H   UNL     1      -2.430   3.599 -29.995  1.00  0.00     0.162 HD
ENDROOT
BRANCH   1  11
HETATM   11  C   UNL     1      -6.540   4.480 -33.324  1.00  0.00     0.276 C 
HETATM   12  N   UNL     1      -7.258   3.562 -32.580  1.00  0.00    -0.322 N 
HETATM   13  H   UNL     1      -6.725   3.153 -31.816  1.00  0.00     0.169 HD
HETATM   14  O   UNL     1      -6.964   5.161 -34.253  1.00  0.00    -0.266 OA
BRANCH  12  15
HETATM   15  C   UNL     1      -8.603   3.186 -32.733  1.00  0.00     0.035 A 
HETATM   16  C   UNL     1      -9.679   4.041 -32.497  1.00  0.00     0.032 A 
HETATM   17  C   UNL     1     -10.999   3.601 -32.679  1.00  0.00     0.032 A 
HETATM   18  C   UNL     1     -11.265   2.298 -33.095  1.00  0.00     0.034 A 
HETATM   19  C   UNL     1     -10.185   1.439 -33.330  1.00  0.00     0.032 A 
HETATM   20  C   UNL     1      -8.867   1.881 -33.155  1.00  0.00     0.032 A 
BRANCH  18  21
HETATM   21  N   UNL     1     -12.562   1.784 -33.309  1.00  0.00    -0.327 N 
HETATM   22  C   UNL     1     -13.167   1.507 -34.521  1.00  0.00     0.221 C 
HETATM   23  O   UNL     1     -12.677   1.664 -35.635  1.00  0.00    -0.273 OA
HETATM   24  H   UNL     1     -13.104   1.605 -32.475  1.00  0.00     0.169 HD
BRANCH  22  25
HETATM   25  C   UNL     1     -14.555   0.901 -34.380  1.00  0.00     0.098 C 
HETATM   26  C   UNL     1     -15.310   1.387 -33.156  1.00  0.00     0.014 C 
ENDBRANCH  22  25
ENDBRANCH  18  21
ENDBRANCH  12  15
ENDBRANCH   1  11
BRANCH   8  27
HETATM   27  C   UNL     1      -1.616   6.179 -34.468  1.00  0.00     0.409 C 
HETATM   28  F   UNL     1      -0.317   6.471 -34.702  1.00  0.00    -0.169 F 
HETATM   29  F   UNL     1      -1.944   5.099 -35.208  1.00  0.00    -0.169 F 
HETATM   30  F   UNL     1      -2.342   7.214 -34.970  1.00  0.00    -0.169 F 
ENDBRANCH   8  27
BRANCH   6  31
HETATM   31  C   UNL     1      -1.113   6.092 -29.923  1.00  0.00     0.075 A 
HETATM   32  O   UNL     1       0.078   6.531 -29.419  1.00  0.00    -0.325 OA
HETATM   33  C   UNL     1      -0.198   7.564 -28.583  1.00  0.00     0.142 A 
HETATM   34  C   UNL     1      -1.550   7.806 -28.548  1.00  0.00     0.027 A 
HETATM   35  C   UNL     1      -2.144   6.857 -29.413  1.00  0.00     0.037 A 
ENDBRANCH   6  31
TORSDOF 6
ENDMDL
MODEL 9
REMARK VINA RESULT:      -7.8      3.113     10.155
REMARK  6 active torsions:
REMARK  status: ('A' for Active; 'I' for Inactive)
REMARK    1  A    between atoms: C_2  and  C_3 
REMARK       I    between atoms: C_3  and  N_4 
REMARK    2  A    between atoms: N_4  and  C_5 
REMARK    3  A    between atoms: C_8  and  N_9 
REMARK       I    between atoms: N_9  and  C_10 
REMARK    4  A    between atoms: C_10  and  C_11 
REMARK    5  A    between atoms: C_16  and  C_17 
REMARK    6  A    between atoms: C_23  and  C_24 
ROOT
HETATM    1  C   UNL     1      -7.770   1.965 -31.916  1.00  0.00     0.148 A 
HETATM    2  N   UNL     1      -6.875   1.176 -32.552  1.00  0.00    -0.165 NA
HETATM    3  N   UNL     1      -5.683   1.607 -32.092  1.00  0.00    -0.240 N 
HETATM    4  C   UNL     1      -5.783   2.652 -31.211  1.00  0.00     0.123 A 
HETATM    5  N   UNL     1      -4.689   3.229 -30.666  1.00  0.00    -0.364 N 
HETATM    6  C   UNL     1      -3.361   2.988 -31.237  1.00  0.00     0.143 C 
HETATM    7  C   UNL     1      -3.261   1.523 -31.685  1.00  0.00     0.068 C 
HETATM    8  C   UNL     1      -4.419   1.124 -32.622  1.00  0.00     0.221 C 
HETATM    9  C   UNL     1      -7.121   2.905 -31.070  1.00  0.00     0.089 A 
HETATM   10  H   UNL     1      -4.779   4.118 -30.175  1.00  0.00     0.162 HD
ENDROOT
BRANCH   1  11
HETATM   11  C   UNL     1      -9.224   1.828 -32.111  1.00  0.00     0.276 C 
HETATM   12  N   UNL     1      -9.870   3.050 -32.114  1.00  0.00    -0.322 N 
HETATM   13  H   UNL     1      -9.239   3.843 -32.018  1.00  0.00     0.169 HD
HETATM   14  O   UNL     1      -9.741   0.727 -32.277  1.00  0.00    -0.266 OA
BRANCH  12  15
HETATM   15  C   UNL     1     -11.242   3.304 -32.277  1.00  0.00     0.035 A 
HETATM   16  C   UNL     1     -11.945   3.043 -33.451  1.00  0.00     0.032 A 
HETATM   17  C   UNL     1     -13.319   3.313 -33.541  1.00  0.00     0.032 A 
HETATM   18  C   UNL     1     -14.012   3.853 -32.459  1.00  0.00     0.034 A 
HETATM   19  C   UNL     1     -13.305   4.117 -31.279  1.00  0.00     0.032 A 
HETATM   20  C   UNL     1     -11.934   3.840 -31.188  1.00  0.00     0.032 A 
BRANCH  18  21
HETATM   21  N   UNL     1     -15.393   4.143 -32.467  1.00  0.00    -0.327 N 
HETATM   22  C   UNL     1     -16.431   3.306 -32.102  1.00  0.00     0.221 C 
HETATM   23  O   UNL     1     -16.330   2.149 -31.705  1.00  0.00    -0.273 OA
HETATM   24  H   UNL     1     -15.642   5.071 -32.781  1.00  0.00     0.169 HD
BRANCH  22  25
HETATM   25  C   UNL     1     -17.798   3.969 -32.175  1.00  0.00     0.098 C 
HETATM   26  C   UNL     1     -18.787   3.229 -33.057  1.00  0.00     0.014 C 
ENDBRANCH  22  25
ENDBRANCH  18  21
ENDBRANCH  12  15
ENDBRANCH   1  11
BRANCH   8  27
HETATM   27  C   UNL     1      -4.419  -0.376 -32.821  1.00  0.00     0.409 C 
HETATM   28  F   UNL     1      -3.171  -0.888 -32.901  1.00  0.00    -0.169 F 
HETATM   29  F   UNL     1      -5.087  -1.044 -31.857  1.00  0.00    -0.169 F 
HETATM   30  F   UNL     1      -5.040  -0.684 -33.991  1.00  0.00    -0.169 F 
ENDBRANCH   8  27
BRANCH   6  31
HETATM   31  C   UNL     1      -2.967   3.933 -32.329  1.00  0.00     0.075 A 
HETATM   32  O   UNL     1      -1.652   4.298 -32.365  1.00  0.00    -0.325 OA
HETATM   33  C   UNL     1      -1.507   5.169 -33.396  1.00  0.00     0.142 A 
HETATM   34  C   UNL     1      -2.709   5.365 -34.033  1.00  0.00     0.027 A 
HETATM   35  C   UNL     1      -3.655   4.567 -33.346  1.00  0.00     0.037 A 
ENDBRANCH   6  31
TORSDOF 6
ENDMDL
MODEL 10
REMARK VINA RESULT:      -7.7      3.961     10.742
REMARK  6 active torsions:
REMARK  status: ('A' for Active; 'I' for Inactive)
REMARK    1  A    between atoms: C_2  and  C_3 
REMARK       I    between atoms: C_3  and  N_4 
REMARK    2  A    between atoms: N_4  and  C_5 
REMARK    3  A    between atoms: C_8  and  N_9 
REMARK       I    between atoms: N_9  and  C_10 
REMARK    4  A    between atoms: C_10  and  C_11 
REMARK    5  A    between atoms: C_16  and  C_17 
REMARK    6  A    between atoms: C_23  and  C_24 
ROOT
HETATM    1  C   UNL     1      -5.410   5.273 -32.379  1.00  0.00     0.148 A 
HETATM    2  N   UNL     1      -4.392   5.850 -33.056  1.00  0.00    -0.165 NA
HETATM    3  N   UNL     1      -3.522   6.202 -32.089  1.00  0.00    -0.240 N 
HETATM    4  C   UNL     1      -3.955   5.895 -30.826  1.00  0.00     0.123 A 
HETATM    5  N   UNL     1      -3.222   6.196 -29.731  1.00  0.00    -0.364 N 
HETATM    6  C   UNL     1      -2.108   7.144 -29.821  1.00  0.00     0.143 C 
HETATM    7  C   UNL     1      -1.370   6.933 -31.151  1.00  0.00     0.068 C 
HETATM    8  C   UNL     1      -2.328   6.987 -32.359  1.00  0.00     0.221 C 
HETATM    9  C   UNL     1      -5.172   5.287 -30.978  1.00  0.00     0.089 A 
HETATM   10  H   UNL     1      -3.648   6.138 -28.806  1.00  0.00     0.162 HD
ENDROOT
BRANCH   1  11
HETATM   11  C   UNL     1      -6.595   4.717 -33.055  1.00  0.00     0.276 C 
HETATM   12  N   UNL     1      -7.371   3.949 -32.206  1.00  0.00    -0.322 N 
HETATM   13  H   UNL     1      -7.021   3.920 -31.251  1.00  0.00     0.169 HD
HETATM   14  O   UNL     1      -6.829   4.969 -34.233  1.00  0.00    -0.266 OA
BRANCH  12  15
HETATM   15  C   UNL     1      -8.565   3.270 -32.502  1.00  0.00     0.035 A 
HETATM   16  C   UNL     1      -8.620   1.942 -32.920  1.00  0.00     0.032 A 
HETATM   17  C   UNL     1      -9.850   1.324 -33.191  1.00  0.00     0.032 A 
HETATM   18  C   UNL     1     -11.046   2.025 -33.051  1.00  0.00     0.034 A 
HETATM   19  C   UNL     1     -10.991   3.361 -32.633  1.00  0.00     0.032 A 
HETATM   20  C   UNL     1      -9.763   3.975 -32.356  1.00  0.00     0.032 A 
BRANCH  18  21
HETATM   21  N   UNL     1     -12.321   1.473 -33.293  1.00  0.00    -0.327 N 
HETATM   22  C   UNL     1     -12.944   1.299 -34.516  1.00  0.00     0.221 C 
HETATM   23  O   UNL     1     -12.491   1.600 -35.615  1.00  0.00    -0.273 OA
HETATM   24  H   UNL     1     -12.833   1.178 -32.473  1.00  0.00     0.169 HD
BRANCH  22  25
HETATM   25  C   UNL     1     -14.297   0.613 -34.414  1.00  0.00     0.098 C 
HETATM   26  C   UNL     1     -15.274   1.325 -33.496  1.00  0.00     0.014 C 
ENDBRANCH  22  25
ENDBRANCH  18  21
ENDBRANCH  12  15
ENDBRANCH   1  11
BRANCH   8  27
HETATM   27  C   UNL     1      -1.606   6.521 -33.603  1.00  0.00     0.409 C 
HETATM   28  F   UNL     1      -2.327   6.725 -34.728  1.00  0.00    -0.169 F 
HETATM   29  F   UNL     1      -0.396   7.098 -33.768  1.00  0.00    -0.169 F 
HETATM   30  F   UNL     1      -1.376   5.182 -33.528  1.00  0.00    -0.169 F 
ENDBRANCH   8  27
BRANCH   6  31
HETATM   31  C   UNL     1      -2.486   8.577 -29.614  1.00  0.00     0.075 A 
HETATM   32  O   UNL     1      -1.549   9.367 -29.013  1.00  0.00    -0.325 OA
HETATM   33  C   UNL     1      -2.088  10.607 -28.892  1.00  0.00     0.142 A 
HETATM   34  C   UNL     1      -3.359  10.632 -29.417  1.00  0.00     0.027 A 
HETATM   35  C   UNL     1      -3.618   9.322 -29.885  1.00  0.00     0.037 A 
ENDBRANCH   6  31
TORSDOF 6
ENDMDL
