MODEL 1
REMARK VINA RESULT:      -8.6      0.000      0.000
REMARK  3 active torsions:
REMARK  status: ('A' for Active; 'I' for Inactive)
REMARK    1  A    between atoms: C_3  and  N_4 
REMARK       I    between atoms: N_4  and  C_5 
REMARK    2  A    between atoms: C_5  and  C_6 
REMARK    3  A    between atoms: C_7  and  C_8 
ROOT
HETATM    1  C   UNL     1      -8.204   1.523 -33.045  1.00  0.00     0.062 A 
HETATM    2  C   UNL     1      -7.501   2.839 -32.729  1.00  0.00     0.199 A 
HETATM    3  N   UNL     1      -8.259   3.617 -31.752  1.00  0.00    -0.092 N 
HETATM    4  C   UNL     1      -9.460   3.238 -31.219  1.00  0.00     0.735 A 
HETATM    5  N   UNL     1      -9.984   2.045 -31.560  1.00  0.00    -0.191 N 
HETATM    6  N   UNL     1      -7.971   4.877 -31.392  1.00  0.00     0.012 NA
HETATM    7  N   UNL     1      -8.953   5.220 -30.564  1.00  0.00     0.033 NA
HETATM    8  N   UNL     1      -9.891   4.209 -30.453  1.00  0.00     0.030 NA
HETATM    9  C   UNL     1      -9.377   1.175 -32.461  1.00  0.00     0.037 A 
HETATM   10  C   UNL     1     -10.112  -0.115 -32.726  1.00  0.00     0.070 C 
HETATM   11  H   UNL     1     -10.868   1.756 -31.148  1.00  0.00     0.184 HD
ENDROOT
BRANCH   1  12
HETATM   12  C   UNL     1      -7.489   0.573 -33.936  1.00  0.00     0.256 C 
HETATM   13  N   UNL     1      -7.050  -0.552 -33.274  1.00  0.00    -0.323 N 
HETATM   14  H   UNL     1      -7.159  -0.573 -32.271  1.00  0.00     0.169 HD
HETATM   15  O   UNL     1      -7.354   0.859 -35.118  1.00  0.00    -0.267 OA
BRANCH  13  16
HETATM   16  C   UNL     1      -6.424  -1.691 -33.841  1.00  0.00     0.041 A 
HETATM   17  C   UNL     1      -5.011  -1.761 -33.844  1.00  0.00    -0.035 A 
HETATM   18  C   UNL     1      -4.144  -0.676 -33.264  1.00  0.00     0.050 C 
HETATM   19  C   UNL     1      -4.377  -2.891 -34.393  1.00  0.00     0.009 A 
HETATM   20  C   UNL     1      -5.120  -3.938 -34.933  1.00  0.00     0.001 A 
HETATM   21  C   UNL     1      -6.507  -3.870 -34.927  1.00  0.00     0.002 A 
HETATM   22  C   UNL     1      -7.152  -2.755 -34.385  1.00  0.00     0.030 A 
ENDBRANCH  13  16
ENDBRANCH   1  12
BRANCH   2  23
HETATM   23  C   UNL     1      -6.063   2.686 -32.276  1.00  0.00    -0.011 A 
HETATM   24  C   UNL     1      -5.775   2.026 -31.081  1.00  0.00     0.125 A 
HETATM   25  N   UNL     1      -4.531   1.859 -30.583  1.00  0.00    -0.272 NA
HETATM   26  C   UNL     1      -3.512   2.358 -31.313  1.00  0.00     0.116 A 
HETATM   27  C   UNL     1      -3.682   3.011 -32.521  1.00  0.00     0.020 A 
HETATM   28  C   UNL     1      -4.975   3.173 -33.010  1.00  0.00     0.012 A 
ENDBRANCH   2  23
TORSDOF 3
ENDMDL
MODEL 2
REMARK VINA RESULT:      -8.1      1.702      3.910
REMARK  3 active torsions:
REMARK  status: ('A' for Active; 'I' for Inactive)
REMARK    1  A    between atoms: C_3  and  N_4 
REMARK       I    between atoms: N_4  and  C_5 
REMARK    2  A    between atoms: C_5  and  C_6 
REMARK    3  A    between atoms: C_7  and  C_8 
ROOT
HETATM    1  C   UNL     1      -6.153   1.851 -31.142  1.00  0.00     0.062 A 
HETATM    2  C   UNL     1      -7.580   2.367 -30.992  1.00  0.00     0.199 A 
HETATM    3  N   UNL     1      -7.599   3.819 -30.826  1.00  0.00    -0.092 N 
HETATM    4  C   UNL     1      -6.485   4.609 -30.773  1.00  0.00     0.735 A 
HETATM    5  N   UNL     1      -5.270   4.047 -30.932  1.00  0.00    -0.191 N 
HETATM    6  N   UNL     1      -8.690   4.538 -30.523  1.00  0.00     0.012 NA
HETATM    7  N   UNL     1      -8.242   5.781 -30.383  1.00  0.00     0.033 NA
HETATM    8  N   UNL     1      -6.867   5.839 -30.530  1.00  0.00     0.030 NA
HETATM    9  C   UNL     1      -5.081   2.682 -31.120  1.00  0.00     0.037 A 
HETATM   10  C   UNL     1      -3.650   2.231 -31.274  1.00  0.00     0.070 C 
HETATM   11  H   UNL     1      -4.444   4.639 -30.911  1.00  0.00     0.184 HD
ENDROOT
BRANCH   1  12
HETATM   12  C   UNL     1      -5.986   0.404 -31.436  1.00  0.00     0.256 C 
HETATM   13  N   UNL     1      -5.601   0.165 -32.736  1.00  0.00    -0.323 N 
HETATM   14  H   UNL     1      -5.573   0.954 -33.365  1.00  0.00     0.169 HD
HETATM   15  O   UNL     1      -6.198  -0.408 -30.546  1.00  0.00    -0.267 OA
BRANCH  13  16
HETATM   16  C   UNL     1      -5.264  -1.085 -33.315  1.00  0.00     0.041 A 
HETATM   17  C   UNL     1      -6.055  -1.580 -34.376  1.00  0.00    -0.035 A 
HETATM   18  C   UNL     1      -7.241  -0.831 -34.922  1.00  0.00     0.050 C 
HETATM   19  C   UNL     1      -5.724  -2.814 -34.967  1.00  0.00     0.009 A 
HETATM   20  C   UNL     1      -4.631  -3.552 -34.520  1.00  0.00     0.001 A 
HETATM   21  C   UNL     1      -3.852  -3.064 -33.479  1.00  0.00     0.002 A 
HETATM   22  C   UNL     1      -4.166  -1.839 -32.883  1.00  0.00     0.030 A 
ENDBRANCH  13  16
ENDBRANCH   1  12
BRANCH   2  23
HETATM   23  C   UNL     1      -8.515   1.954 -32.110  1.00  0.00    -0.011 A 
HETATM   24  C   UNL     1      -8.501   2.647 -33.321  1.00  0.00     0.125 A 
HETATM   25  N   UNL     1      -9.308   2.370 -34.367  1.00  0.00    -0.272 NA
HETATM   26  C   UNL     1     -10.169   1.342 -34.215  1.00  0.00     0.116 A 
HETATM   27  C   UNL     1     -10.252   0.575 -33.066  1.00  0.00     0.020 A 
HETATM   28  C   UNL     1      -9.411   0.884 -32.001  1.00  0.00     0.012 A 
ENDBRANCH   2  23
TORSDOF 3
ENDMDL
MODEL 3
REMARK VINA RESULT:      -8.0      1.506      3.787
REMARK  3 active torsions:
REMARK  status: ('A' for Active; 'I' for Inactive)
REMARK    1  A    between atoms: C_3  and  N_4 
REMARK       I    between atoms: N_4  and  C_5 
REMARK    2  A    between atoms: C_5  and  C_6 
REMARK    3  A    between atoms: C_7  and  C_8 
ROOT
HETATM    1  C   UNL     1      -6.826   2.546 -32.616  1.00  0.00     0.062 A 
HETATM    2  C   UNL     1      -8.209   2.562 -31.975  1.00  0.00     0.199 A 
HETATM    3  N   UNL     1      -8.392   3.756 -31.152  1.00  0.00    -0.092 N 
HETATM    4  C   UNL     1      -7.439   4.715 -30.951  1.00  0.00     0.735 A 
HETATM    5  N   UNL     1      -6.252   4.606 -31.581  1.00  0.00    -0.191 N 
HETATM    6  N   UNL     1      -9.444   3.974 -30.348  1.00  0.00     0.012 NA
HETATM    7  N   UNL     1      -9.161   5.118 -29.733  1.00  0.00     0.033 NA
HETATM    8  N   UNL     1      -7.911   5.587 -30.096  1.00  0.00     0.030 NA
HETATM    9  C   UNL     1      -5.927   3.541 -32.415  1.00  0.00     0.037 A 
HETATM   10  C   UNL     1      -4.551   3.585 -33.031  1.00  0.00     0.070 C 
HETATM   11  H   UNL     1      -5.551   5.330 -31.445  1.00  0.00     0.184 HD
ENDROOT
BRANCH   1  12
HETATM   12  C   UNL     1      -6.540   1.448 -33.576  1.00  0.00     0.256 C 
HETATM   13  N   UNL     1      -6.230   0.260 -32.951  1.00  0.00    -0.323 N 
HETATM   14  H   UNL     1      -6.128   0.276 -31.947  1.00  0.00     0.169 HD
HETATM   15  O   UNL     1      -6.597   1.682 -34.775  1.00  0.00    -0.267 OA
BRANCH  13  16
HETATM   16  C   UNL     1      -6.002  -0.997 -33.565  1.00  0.00     0.041 A 
HETATM   17  C   UNL     1      -4.676  -1.479 -33.660  1.00  0.00    -0.035 A 
HETATM   18  C   UNL     1      -3.494  -0.711 -33.131  1.00  0.00     0.050 C 
HETATM   19  C   UNL     1      -4.438  -2.732 -34.256  1.00  0.00     0.009 A 
HETATM   20  C   UNL     1      -5.487  -3.500 -34.753  1.00  0.00     0.001 A 
HETATM   21  C   UNL     1      -6.789  -3.028 -34.657  1.00  0.00     0.002 A 
HETATM   22  C   UNL     1      -7.043  -1.787 -34.066  1.00  0.00     0.030 A 
ENDBRANCH  13  16
ENDBRANCH   1  12
BRANCH   2  23
HETATM   23  C   UNL     1      -9.355   2.420 -32.956  1.00  0.00    -0.011 A 
HETATM   24  C   UNL     1      -9.616   3.437 -33.874  1.00  0.00     0.125 A 
HETATM   25  N   UNL     1     -10.625   3.412 -34.772  1.00  0.00    -0.272 NA
HETATM   26  C   UNL     1     -11.411   2.316 -34.773  1.00  0.00     0.116 A 
HETATM   27  C   UNL     1     -11.230   1.241 -33.921  1.00  0.00     0.020 A 
HETATM   28  C   UNL     1     -10.184   1.293 -33.003  1.00  0.00     0.012 A 
ENDBRANCH   2  23
TORSDOF 3
ENDMDL
MODEL 4
REMARK VINA RESULT:      -7.8      2.715      6.692
REMARK  3 active torsions:
REMARK  status: ('A' for Active; 'I' for Inactive)
REMARK    1  A    between atoms: C_3  and  N_4 
REMARK       I    between atoms: N_4  and  C_5 
REMARK    2  A    between atoms: C_5  and  C_6 
REMARK    3  A    between atoms: C_7  and  C_8 
ROOT
HETATM    1  C   UNL     1      -4.470   1.676 -32.584  1.00  0.00     0.062 A 
HETATM    2  C   UNL     1      -5.569   1.844 -33.628  1.00  0.00     0.199 A 
HETATM    3  N   UNL     1      -6.197   0.561 -33.940  1.00  0.00    -0.092 N 
HETATM    4  C   UNL     1      -5.825  -0.638 -33.400  1.00  0.00     0.735 A 
HETATM    5  N   UNL     1      -4.847  -0.668 -32.473  1.00  0.00    -0.191 N 
HETATM    6  N   UNL     1      -7.089   0.368 -34.924  1.00  0.00     0.012 NA
HETATM    7  N   UNL     1      -7.323  -0.940 -34.909  1.00  0.00     0.033 NA
HETATM    8  N   UNL     1      -6.537  -1.580 -33.968  1.00  0.00     0.030 NA
HETATM    9  C   UNL     1      -4.163   0.468 -32.050  1.00  0.00     0.037 A 
HETATM   10  C   UNL     1      -3.095   0.242 -31.009  1.00  0.00     0.070 C 
HETATM   11  H   UNL     1      -4.584  -1.558 -32.059  1.00  0.00     0.184 HD
ENDROOT
BRANCH   1  12
HETATM   12  C   UNL     1      -3.822   2.915 -32.082  1.00  0.00     0.256 C 
HETATM   13  N   UNL     1      -2.866   3.404 -32.943  1.00  0.00    -0.323 N 
HETATM   14  H   UNL     1      -2.633   2.841 -33.748  1.00  0.00     0.169 HD
HETATM   15  O   UNL     1      -4.172   3.367 -31.000  1.00  0.00    -0.267 OA
BRANCH  13  16
HETATM   16  C   UNL     1      -2.134   4.612 -32.815  1.00  0.00     0.041 A 
HETATM   17  C   UNL     1      -2.299   5.616 -33.797  1.00  0.00    -0.035 A 
HETATM   18  C   UNL     1      -3.225   5.456 -34.973  1.00  0.00     0.050 C 
HETATM   19  C   UNL     1      -1.587   6.824 -33.676  1.00  0.00     0.009 A 
HETATM   20  C   UNL     1      -0.725   7.043 -32.605  1.00  0.00     0.001 A 
HETATM   21  C   UNL     1      -0.565   6.058 -31.639  1.00  0.00     0.002 A 
HETATM   22  C   UNL     1      -1.266   4.854 -31.744  1.00  0.00     0.030 A 
ENDBRANCH  13  16
ENDBRANCH   1  12
BRANCH   2  23
HETATM   23  C   UNL     1      -6.624   2.870 -33.265  1.00  0.00    -0.011 A 
HETATM   24  C   UNL     1      -7.520   2.611 -32.227  1.00  0.00     0.125 A 
HETATM   25  N   UNL     1      -8.506   3.450 -31.844  1.00  0.00    -0.272 NA
HETATM   26  C   UNL     1      -8.604   4.618 -32.513  1.00  0.00     0.116 A 
HETATM   27  C   UNL     1      -7.757   4.985 -33.544  1.00  0.00     0.020 A 
HETATM   28  C   UNL     1      -6.751   4.099 -33.921  1.00  0.00     0.012 A 
ENDBRANCH   2  23
TORSDOF 3
ENDMDL
MODEL 5
REMARK VINA RESULT:      -7.7      2.128      2.799
REMARK  3 active torsions:
REMARK  status: ('A' for Active; 'I' for Inactive)
REMARK    1  A    between atoms: C_3  and  N_4 
REMARK       I    between atoms: N_4  and  C_5 
REMARK    2  A    between atoms: C_5  and  C_6 
REMARK    3  A    between atoms: C_7  and  C_8 
ROOT
HETATM    1  C   UNL     1      -8.177   1.635 -33.103  1.00  0.00     0.062 A 
HETATM    2  C   UNL     1      -7.535   2.994 -33.365  1.00  0.00     0.199 A 
HETATM    3  N   UNL     1      -8.517   3.947 -33.878  1.00  0.00    -0.092 N 
HETATM    4  C   UNL     1      -9.828   3.654 -34.128  1.00  0.00     0.735 A 
HETATM    5  N   UNL     1     -10.293   2.422 -33.845  1.00  0.00    -0.191 N 
HETATM    6  N   UNL     1      -8.221   5.172 -34.340  1.00  0.00     0.012 NA
HETATM    7  N   UNL     1      -9.380   5.651 -34.781  1.00  0.00     0.033 NA
HETATM    8  N   UNL     1     -10.389   4.712 -34.661  1.00  0.00     0.030 NA
HETATM    9  C   UNL     1      -9.494   1.405 -33.332  1.00  0.00     0.037 A 
HETATM   10  C   UNL     1     -10.185   0.088 -33.082  1.00  0.00     0.070 C 
HETATM   11  H   UNL     1     -11.274   2.211 -34.014  1.00  0.00     0.184 HD
ENDROOT
BRANCH   1  12
HETATM   12  C   UNL     1      -7.325   0.598 -32.467  1.00  0.00     0.256 C 
HETATM   13  N   UNL     1      -6.349   0.118 -33.312  1.00  0.00    -0.323 N 
HETATM   14  H   UNL     1      -6.373   0.427 -34.272  1.00  0.00     0.169 HD
HETATM   15  O   UNL     1      -7.554   0.273 -31.310  1.00  0.00    -0.267 OA
BRANCH  13  16
HETATM   16  C   UNL     1      -5.316  -0.800 -32.994  1.00  0.00     0.041 A 
HETATM   17  C   UNL     1      -5.245  -2.019 -33.706  1.00  0.00    -0.035 A 
HETATM   18  C   UNL     1      -6.222  -2.382 -34.793  1.00  0.00     0.050 C 
HETATM   19  C   UNL     1      -4.217  -2.934 -33.409  1.00  0.00     0.009 A 
HETATM   20  C   UNL     1      -3.272  -2.654 -32.426  1.00  0.00     0.001 A 
HETATM   21  C   UNL     1      -3.340  -1.455 -31.729  1.00  0.00     0.002 A 
HETATM   22  C   UNL     1      -4.353  -0.536 -32.013  1.00  0.00     0.030 A 
ENDBRANCH  13  16
ENDBRANCH   1  12
BRANCH   2  23
HETATM   23  C   UNL     1      -6.806   3.581 -32.174  1.00  0.00    -0.011 A 
HETATM   24  C   UNL     1      -5.426   3.774 -32.228  1.00  0.00     0.125 A 
HETATM   25  N   UNL     1      -4.685   4.269 -31.213  1.00  0.00    -0.272 NA
HETATM   26  C   UNL     1      -5.346   4.607 -30.087  1.00  0.00     0.116 A 
HETATM   27  C   UNL     1      -6.715   4.478 -29.933  1.00  0.00     0.020 A 
HETATM   28  C   UNL     1      -7.455   3.961 -30.993  1.00  0.00     0.012 A 
ENDBRANCH   2  23
TORSDOF 3
ENDMDL
MODEL 6
REMARK VINA RESULT:      -7.5      2.847      5.585
REMARK  3 active torsions:
REMARK  status: ('A' for Active; 'I' for Inactive)
REMARK    1  A    between atoms: C_3  and  N_4 
REMARK       I    between atoms: N_4  and  C_5 
REMARK    2  A    between atoms: C_5  and  C_6 
REMARK    3  A    between atoms: C_7  and  C_8 
ROOT
HETATM    1  C   UNL     1      -8.216   3.711 -32.718  1.00  0.00     0.062 A 
HETATM    2  C   UNL     1      -7.235   3.412 -33.846  1.00  0.00     0.199 A 
HETATM    3  N   UNL     1      -6.125   4.363 -33.842  1.00  0.00    -0.092 N 
HETATM    4  C   UNL     1      -5.999   5.407 -32.969  1.00  0.00     0.735 A 
HETATM    5  N   UNL     1      -6.921   5.569 -32.000  1.00  0.00    -0.191 N 
HETATM    6  N   UNL     1      -5.188   4.445 -34.799  1.00  0.00     0.012 NA
HETATM    7  N   UNL     1      -4.441   5.486 -34.445  1.00  0.00     0.033 NA
HETATM    8  N   UNL     1      -4.939   6.098 -33.309  1.00  0.00     0.030 NA
HETATM    9  C   UNL     1      -8.027   4.739 -31.853  1.00  0.00     0.037 A 
HETATM   10  C   UNL     1      -8.957   5.076 -30.714  1.00  0.00     0.070 C 
HETATM   11  H   UNL     1      -6.816   6.336 -31.339  1.00  0.00     0.184 HD
ENDROOT
BRANCH   1  12
HETATM   12  C   UNL     1      -9.336   2.753 -32.526  1.00  0.00     0.256 C 
HETATM   13  N   UNL     1     -10.275   2.822 -33.532  1.00  0.00    -0.323 N 
HETATM   14  H   UNL     1     -10.170   3.556 -34.216  1.00  0.00     0.169 HD
HETATM   15  O   UNL     1      -9.330   2.028 -31.541  1.00  0.00    -0.267 OA
BRANCH  13  16
HETATM   16  C   UNL     1     -11.408   1.987 -33.704  1.00  0.00     0.041 A 
HETATM   17  C   UNL     1     -12.600   2.553 -34.211  1.00  0.00    -0.035 A 
HETATM   18  C   UNL     1     -12.714   4.008 -34.579  1.00  0.00     0.050 C 
HETATM   19  C   UNL     1     -13.728   1.733 -34.399  1.00  0.00     0.009 A 
HETATM   20  C   UNL     1     -13.686   0.375 -34.092  1.00  0.00     0.001 A 
HETATM   21  C   UNL     1     -12.515  -0.181 -33.597  1.00  0.00     0.002 A 
HETATM   22  C   UNL     1     -11.385   0.619 -33.407  1.00  0.00     0.030 A 
ENDBRANCH  13  16
ENDBRANCH   1  12
BRANCH   2  23
HETATM   23  C   UNL     1      -6.708   1.991 -33.857  1.00  0.00    -0.011 A 
HETATM   24  C   UNL     1      -5.807   1.575 -32.876  1.00  0.00     0.125 A 
HETATM   25  N   UNL     1      -5.267   0.339 -32.813  1.00  0.00    -0.272 NA
HETATM   26  C   UNL     1      -5.648  -0.541 -33.763  1.00  0.00     0.116 A 
HETATM   27  C   UNL     1      -6.551  -0.240 -34.768  1.00  0.00     0.020 A 
HETATM   28  C   UNL     1      -7.091   1.042 -34.812  1.00  0.00     0.012 A 
ENDBRANCH   2  23
TORSDOF 3
ENDMDL
MODEL 7
REMARK VINA RESULT:      -7.5      2.302      6.981
REMARK  3 active torsions:
REMARK  status: ('A' for Active; 'I' for Inactive)
REMARK    1  A    between atoms: C_3  and  N_4 
REMARK       I    between atoms: N_4  and  C_5 
REMARK    2  A    between atoms: C_5  and  C_6 
REMARK    3  A    between atoms: C_7  and  C_8 
ROOT
HETATM    1  C   UNL     1      -5.250   0.835 -32.852  1.00  0.00     0.062 A 
HETATM    2  C   UNL     1      -6.122   0.261 -33.964  1.00  0.00     0.199 A 
HETATM    3  N   UNL     1      -5.786  -1.137 -34.225  1.00  0.00    -0.092 N 
HETATM    4  C   UNL     1      -4.796  -1.831 -33.588  1.00  0.00     0.735 A 
HETATM    5  N   UNL     1      -4.094  -1.227 -32.608  1.00  0.00    -0.191 N 
HETATM    6  N   UNL     1      -6.277  -1.862 -35.242  1.00  0.00     0.012 NA
HETATM    7  N   UNL     1      -5.646  -3.029 -35.155  1.00  0.00     0.033 NA
HETATM    8  N   UNL     1      -4.715  -3.021 -34.131  1.00  0.00     0.030 NA
HETATM    9  C   UNL     1      -4.304   0.094 -32.223  1.00  0.00     0.037 A 
HETATM   10  C   UNL     1      -3.421   0.603 -31.112  1.00  0.00     0.070 C 
HETATM   11  H   UNL     1      -3.370  -1.750 -32.122  1.00  0.00     0.184 HD
ENDROOT
BRANCH   1  12
HETATM   12  C   UNL     1      -5.560   2.215 -32.397  1.00  0.00     0.256 C 
HETATM   13  N   UNL     1      -6.113   2.249 -31.136  1.00  0.00    -0.323 N 
HETATM   14  H   UNL     1      -6.342   1.366 -30.705  1.00  0.00     0.169 HD
HETATM   15  O   UNL     1      -5.313   3.152 -33.143  1.00  0.00    -0.267 OA
BRANCH  13  16
HETATM   16  C   UNL     1      -6.433   3.399 -30.371  1.00  0.00     0.041 A 
HETATM   17  C   UNL     1      -7.790   3.776 -30.242  1.00  0.00    -0.035 A 
HETATM   18  C   UNL     1      -8.911   3.000 -30.880  1.00  0.00     0.050 C 
HETATM   19  C   UNL     1      -8.123   4.908 -29.475  1.00  0.00     0.009 A 
HETATM   20  C   UNL     1      -7.135   5.662 -28.846  1.00  0.00     0.001 A 
HETATM   21  C   UNL     1      -5.803   5.291 -28.971  1.00  0.00     0.002 A 
HETATM   22  C   UNL     1      -5.457   4.168 -29.727  1.00  0.00     0.030 A 
ENDBRANCH  13  16
ENDBRANCH   1  12
BRANCH   2  23
HETATM   23  C   UNL     1      -7.612   0.407 -33.728  1.00  0.00    -0.011 A 
HETATM   24  C   UNL     1      -8.357   1.293 -34.506  1.00  0.00     0.125 A 
HETATM   25  N   UNL     1      -9.682   1.509 -34.358  1.00  0.00    -0.272 NA
HETATM   26  C   UNL     1     -10.310   0.799 -33.398  1.00  0.00     0.116 A 
HETATM   27  C   UNL     1      -9.673  -0.121 -32.584  1.00  0.00     0.020 A 
HETATM   28  C   UNL     1      -8.306  -0.322 -32.755  1.00  0.00     0.012 A 
ENDBRANCH   2  23
TORSDOF 3
ENDMDL
MODEL 8
REMARK VINA RESULT:      -7.5      2.409      6.927
REMARK  3 active torsions:
REMARK  status: ('A' for Active; 'I' for Inactive)
REMARK    1  A    between atoms: C_3  and  N_4 
REMARK       I    between atoms: N_4  and  C_5 
REMARK    2  A    between atoms: C_5  and  C_6 
REMARK    3  A    between atoms: C_7  and  C_8 
ROOT
HETATM    1  C   UNL     1      -4.425   0.461 -32.607  1.00  0.00     0.062 A 
HETATM    2  C   UNL     1      -5.571   0.256 -33.593  1.00  0.00     0.199 A 
HETATM    3  N   UNL     1      -5.666  -1.144 -34.004  1.00  0.00    -0.092 N 
HETATM    4  C   UNL     1      -4.818  -2.134 -33.592  1.00  0.00     0.735 A 
HETATM    5  N   UNL     1      -3.846  -1.842 -32.705  1.00  0.00    -0.191 N 
HETATM    6  N   UNL     1      -6.476  -1.601 -34.971  1.00  0.00     0.012 NA
HETATM    7  N   UNL     1      -6.177  -2.892 -35.072  1.00  0.00     0.033 NA
HETATM    8  N   UNL     1      -5.141  -3.236 -34.222  1.00  0.00     0.030 NA
HETATM    9  C   UNL     1      -3.634  -0.563 -32.200  1.00  0.00     0.037 A 
HETATM   10  C   UNL     1      -2.495  -0.423 -31.221  1.00  0.00     0.070 C 
HETATM   11  H   UNL     1      -3.228  -2.584 -32.386  1.00  0.00     0.184 HD
ENDROOT
BRANCH   1  12
HETATM   12  C   UNL     1      -4.281   1.814 -32.012  1.00  0.00     0.256 C 
HETATM   13  N   UNL     1      -3.480   2.645 -32.763  1.00  0.00    -0.323 N 
HETATM   14  H   UNL     1      -3.004   2.240 -33.555  1.00  0.00     0.169 HD
HETATM   15  O   UNL     1      -4.853   2.060 -30.959  1.00  0.00    -0.267 OA
BRANCH  13  16
HETATM   16  C   UNL     1      -3.216   4.019 -32.533  1.00  0.00     0.041 A 
HETATM   17  C   UNL     1      -3.971   4.986 -33.238  1.00  0.00    -0.035 A 
HETATM   18  C   UNL     1      -5.049   4.613 -34.221  1.00  0.00     0.050 C 
HETATM   19  C   UNL     1      -3.727   6.353 -33.010  1.00  0.00     0.009 A 
HETATM   20  C   UNL     1      -2.754   6.765 -32.103  1.00  0.00     0.001 A 
HETATM   21  C   UNL     1      -2.015   5.817 -31.410  1.00  0.00     0.002 A 
HETATM   22  C   UNL     1      -2.246   4.455 -31.623  1.00  0.00     0.030 A 
ENDBRANCH  13  16
ENDBRANCH   1  12
BRANCH   2  23
HETATM   23  C   UNL     1      -6.916   0.750 -33.100  1.00  0.00    -0.011 A 
HETATM   24  C   UNL     1      -7.549   1.810 -33.749  1.00  0.00     0.125 A 
HETATM   25  N   UNL     1      -8.735   2.335 -33.373  1.00  0.00    -0.272 NA
HETATM   26  C   UNL     1      -9.337   1.773 -32.305  1.00  0.00     0.116 A 
HETATM   27  C   UNL     1      -8.809   0.705 -31.601  1.00  0.00     0.020 A 
HETATM   28  C   UNL     1      -7.583   0.185 -32.007  1.00  0.00     0.012 A 
ENDBRANCH   2  23
TORSDOF 3
ENDMDL
MODEL 9
REMARK VINA RESULT:      -7.5      2.553      5.548
REMARK  3 active torsions:
REMARK  status: ('A' for Active; 'I' for Inactive)
REMARK    1  A    between atoms: C_3  and  N_4 
REMARK       I    between atoms: N_4  and  C_5 
REMARK    2  A    between atoms: C_5  and  C_6 
REMARK    3  A    between atoms: C_7  and  C_8 
ROOT
HETATM    1  C   UNL     1      -7.131   3.123 -32.431  1.00  0.00     0.062 A 
HETATM    2  C   UNL     1      -7.495   1.698 -32.026  1.00  0.00     0.199 A 
HETATM    3  N   UNL     1      -8.740   1.274 -32.663  1.00  0.00    -0.092 N 
HETATM    4  C   UNL     1      -9.501   2.059 -33.483  1.00  0.00     0.735 A 
HETATM    5  N   UNL     1      -9.074   3.301 -33.786  1.00  0.00    -0.191 N 
HETATM    6  N   UNL     1      -9.389   0.133 -32.383  1.00  0.00     0.012 NA
HETATM    7  N   UNL     1     -10.498   0.193 -33.114  1.00  0.00     0.033 NA
HETATM    8  N   UNL     1     -10.583   1.391 -33.800  1.00  0.00     0.030 NA
HETATM    9  C   UNL     1      -7.900   3.849 -33.280  1.00  0.00     0.037 A 
HETATM   10  C   UNL     1      -7.585   5.255 -33.724  1.00  0.00     0.070 C 
HETATM   11  H   UNL     1      -9.632   3.877 -34.412  1.00  0.00     0.184 HD
ENDROOT
BRANCH   1  12
HETATM   12  C   UNL     1      -5.826   3.647 -31.952  1.00  0.00     0.256 C 
HETATM   13  N   UNL     1      -4.880   3.716 -32.950  1.00  0.00    -0.323 N 
HETATM   14  H   UNL     1      -5.121   3.322 -33.847  1.00  0.00     0.169 HD
HETATM   15  O   UNL     1      -5.709   3.953 -30.774  1.00  0.00    -0.267 OA
BRANCH  13  16
HETATM   16  C   UNL     1      -3.572   4.257 -32.856  1.00  0.00     0.041 A 
HETATM   17  C   UNL     1      -3.051   4.976 -33.957  1.00  0.00    -0.035 A 
HETATM   18  C   UNL     1      -3.833   5.196 -35.225  1.00  0.00     0.050 C 
HETATM   19  C   UNL     1      -1.760   5.528 -33.872  1.00  0.00     0.009 A 
HETATM   20  C   UNL     1      -0.989   5.374 -32.722  1.00  0.00     0.001 A 
HETATM   21  C   UNL     1      -1.501   4.671 -31.641  1.00  0.00     0.002 A 
HETATM   22  C   UNL     1      -2.783   4.118 -31.708  1.00  0.00     0.030 A 
ENDBRANCH  13  16
ENDBRANCH   1  12
BRANCH   2  23
HETATM   23  C   UNL     1      -6.403   0.678 -32.276  1.00  0.00    -0.011 A 
HETATM   24  C   UNL     1      -6.074   0.316 -33.582  1.00  0.00     0.125 A 
HETATM   25  N   UNL     1      -5.133  -0.597 -33.906  1.00  0.00    -0.272 NA
HETATM   26  C   UNL     1      -4.469  -1.175 -32.883  1.00  0.00     0.116 A 
HETATM   27  C   UNL     1      -4.700  -0.874 -31.552  1.00  0.00     0.020 A 
HETATM   28  C   UNL     1      -5.678   0.068 -31.246  1.00  0.00     0.012 A 
ENDBRANCH   2  23
TORSDOF 3
ENDMDL
MODEL 10
REMARK VINA RESULT:      -7.4      2.462      5.573
REMARK  3 active torsions:
REMARK  status: ('A' for Active; 'I' for Inactive)
REMARK    1  A    between atoms: C_3  and  N_4 
REMARK       I    between atoms: N_4  and  C_5 
REMARK    2  A    between atoms: C_5  and  C_6 
REMARK    3  A    between atoms: C_7  and  C_8 
ROOT
HETATM    1  C   UNL     1      -6.676   0.060 -32.439  1.00  0.00     0.062 A 
HETATM    2  C   UNL     1      -5.681   0.738 -31.502  1.00  0.00     0.199 A 
HETATM    3  N   UNL     1      -4.349   0.151 -31.638  1.00  0.00    -0.092 N 
HETATM    4  C   UNL     1      -4.041  -0.892 -32.466  1.00  0.00     0.735 A 
HETATM    5  N   UNL     1      -4.998  -1.406 -33.262  1.00  0.00    -0.191 N 
HETATM    6  N   UNL     1      -3.306   0.435 -30.843  1.00  0.00     0.012 NA
HETATM    7  N   UNL     1      -2.339  -0.376 -31.260  1.00  0.00     0.033 NA
HETATM    8  N   UNL     1      -2.786  -1.213 -32.267  1.00  0.00     0.030 NA
HETATM    9  C   UNL     1      -6.311  -0.948 -33.269  1.00  0.00     0.037 A 
HETATM   10  C   UNL     1      -7.247  -1.647 -34.224  1.00  0.00     0.070 C 
HETATM   11  H   UNL     1      -4.762  -2.170 -33.891  1.00  0.00     0.184 HD
ENDROOT
BRANCH   1  12
HETATM   12  C   UNL     1      -8.046   0.632 -32.495  1.00  0.00     0.256 C 
HETATM   13  N   UNL     1      -8.280   1.346 -33.649  1.00  0.00    -0.323 N 
HETATM   14  H   UNL     1      -7.498   1.494 -34.270  1.00  0.00     0.169 HD
HETATM   15  O   UNL     1      -8.808   0.433 -31.558  1.00  0.00    -0.267 OA
BRANCH  13  16
HETATM   16  C   UNL     1      -9.503   1.934 -34.061  1.00  0.00     0.041 A 
HETATM   17  C   UNL     1      -9.578   3.341 -34.172  1.00  0.00    -0.035 A 
HETATM   18  C   UNL     1      -8.409   4.242 -33.875  1.00  0.00     0.050 C 
HETATM   19  C   UNL     1     -10.782   3.937 -34.592  1.00  0.00     0.009 A 
HETATM   20  C   UNL     1     -11.898   3.161 -34.896  1.00  0.00     0.001 A 
HETATM   21  C   UNL     1     -11.823   1.779 -34.789  1.00  0.00     0.002 A 
HETATM   22  C   UNL     1     -10.634   1.171 -34.376  1.00  0.00     0.030 A 
ENDBRANCH  13  16
ENDBRANCH   1  12
BRANCH   2  23
HETATM   23  C   UNL     1      -5.609   2.244 -31.650  1.00  0.00    -0.011 A 
HETATM   24  C   UNL     1      -5.038   2.805 -32.793  1.00  0.00     0.125 A 
HETATM   25  N   UNL     1      -4.908   4.132 -33.007  1.00  0.00    -0.272 NA
HETATM   26  C   UNL     1      -5.382   4.952 -32.046  1.00  0.00     0.116 A 
HETATM   27  C   UNL     1      -5.985   4.504 -30.884  1.00  0.00     0.020 A 
HETATM   28  C   UNL     1      -6.103   3.130 -30.687  1.00  0.00     0.012 A 
ENDBRANCH   2  23
TORSDOF 3
ENDMDL
