MODEL 1
REMARK VINA RESULT:      -9.0      0.000      0.000
REMARK  5 active torsions:
REMARK  status: ('A' for Active; 'I' for Inactive)
REMARK    1  A    between atoms: C_9  and  C_10 
REMARK    2  A    between atoms: C_13  and  O_14 
REMARK    3  A    between atoms: O_14  and  C_15 
REMARK    4  A    between atoms: C_20  and  C_21 
REMARK       I    between atoms: C_21  and  N_22 
REMARK    5  A    between atoms: N_22  and  C_23 
ROOT
HETATM    1  C   UNL     1      -6.079   1.063 -29.829  1.00  0.00     0.070 C 
HETATM    2  C   UNL     1      -5.853   2.046 -30.953  1.00  0.00     0.037 C 
HETATM    3  N   UNL     1      -6.756   3.107 -31.013  1.00  0.00    -0.192 N 
HETATM    4  C   UNL     1      -6.861   3.904 -32.095  1.00  0.00     0.725 A 
HETATM    5  N   UNL     1      -5.896   3.842 -33.060  1.00  0.00    -0.084 N 
HETATM    6  N   UNL     1      -6.200   4.619 -34.120  1.00  0.00    -0.149 NA
HETATM    7  C   UNL     1      -7.345   5.168 -33.695  1.00  0.00     0.275 A 
HETATM    8  N   UNL     1      -7.784   4.757 -32.462  1.00  0.00    -0.054 NA
HETATM    9  C   UNL     1      -4.695   3.011 -32.957  1.00  0.00     0.202 C 
HETATM   10  C   UNL     1      -4.860   1.943 -31.876  1.00  0.00     0.062 C 
HETATM   11  H   UNL     1      -7.551   3.068 -30.377  1.00  0.00     0.184 HD
ENDROOT
BRANCH   9  12
HETATM   12  C   UNL     1      -3.489   3.929 -32.725  1.00  0.00    -0.028 A 
HETATM   13  C   UNL     1      -3.176   4.432 -31.453  1.00  0.00     0.012 A 
HETATM   14  C   UNL     1      -2.083   5.284 -31.274  1.00  0.00     0.037 A 
HETATM   15  C   UNL     1      -1.287   5.663 -32.355  1.00  0.00     0.074 A 
HETATM   16  C   UNL     1      -1.599   5.184 -33.628  1.00  0.00     0.037 A 
HETATM   17  C   UNL     1      -2.691   4.325 -33.810  1.00  0.00     0.012 A 
BRANCH  15  18
HETATM   18  O   UNL     1      -0.268   6.512 -32.034  1.00  0.00    -0.290 OA
BRANCH  18  19
HETATM   19  C   UNL     1       0.378   6.307 -30.790  1.00  0.00     0.505 C 
HETATM   20  F   UNL     1       1.267   5.291 -30.905  1.00  0.00    -0.184 F 
HETATM   21  F   UNL     1       1.098   7.424 -30.518  1.00  0.00    -0.184 F 
ENDBRANCH  18  19
ENDBRANCH  15  18
ENDBRANCH   9  12
BRANCH  10  22
HETATM   22  C   UNL     1      -4.061   0.685 -32.000  1.00  0.00     0.256 C 
HETATM   23  N   UNL     1      -4.709  -0.353 -32.635  1.00  0.00    -0.323 N 
HETATM   24  H   UNL     1      -5.622  -0.181 -33.032  1.00  0.00     0.169 HD
HETATM   25  O   UNL     1      -2.944   0.637 -31.497  1.00  0.00    -0.267 OA
BRANCH  23  26
HETATM   26  C   UNL     1      -4.240  -1.675 -32.802  1.00  0.00     0.035 A 
HETATM   27  C   UNL     1      -3.418  -2.339 -31.889  1.00  0.00     0.029 A 
HETATM   28  C   UNL     1      -3.008  -3.655 -32.128  1.00  0.00     0.002 A 
HETATM   29  C   UNL     1      -3.424  -4.323 -33.277  1.00  0.00     0.000 A 
HETATM   30  C   UNL     1      -4.243  -3.671 -34.194  1.00  0.00     0.002 A 
HETATM   31  C   UNL     1      -4.643  -2.353 -33.962  1.00  0.00     0.029 A 
ENDBRANCH  23  26
ENDBRANCH  10  22
TORSDOF 5
ENDMDL
MODEL 2
REMARK VINA RESULT:      -8.9      1.996      2.683
REMARK  5 active torsions:
REMARK  status: ('A' for Active; 'I' for Inactive)
REMARK    1  A    between atoms: C_9  and  C_10 
REMARK    2  A    between atoms: C_13  and  O_14 
REMARK    3  A    between atoms: O_14  and  C_15 
REMARK    4  A    between atoms: C_20  and  C_21 
REMARK       I    between atoms: C_21  and  N_22 
REMARK    5  A    between atoms: N_22  and  C_23 
ROOT
HETATM    1  C   UNL     1      -5.663   0.337 -29.584  1.00  0.00     0.070 C 
HETATM    2  C   UNL     1      -6.215   1.446 -30.448  1.00  0.00     0.037 C 
HETATM    3  N   UNL     1      -7.014   2.379 -29.787  1.00  0.00    -0.192 N 
HETATM    4  C   UNL     1      -7.794   3.257 -30.448  1.00  0.00     0.725 A 
HETATM    5  N   UNL     1      -7.618   3.418 -31.794  1.00  0.00    -0.084 N 
HETATM    6  N   UNL     1      -8.541   4.248 -32.322  1.00  0.00    -0.149 NA
HETATM    7  C   UNL     1      -9.211   4.597 -31.216  1.00  0.00     0.275 A 
HETATM    8  N   UNL     1      -8.786   4.013 -30.049  1.00  0.00    -0.054 NA
HETATM    9  C   UNL     1      -6.568   2.747 -32.562  1.00  0.00     0.202 C 
HETATM   10  C   UNL     1      -5.990   1.566 -31.783  1.00  0.00     0.062 C 
HETATM   11  H   UNL     1      -7.251   2.174 -28.817  1.00  0.00     0.184 HD
ENDROOT
BRANCH   9  12
HETATM   12  C   UNL     1      -5.515   3.788 -32.957  1.00  0.00    -0.028 A 
HETATM   13  C   UNL     1      -5.376   4.235 -34.280  1.00  0.00     0.012 A 
HETATM   14  C   UNL     1      -4.394   5.170 -34.616  1.00  0.00     0.037 A 
HETATM   15  C   UNL     1      -3.521   5.670 -33.649  1.00  0.00     0.074 A 
HETATM   16  C   UNL     1      -3.637   5.219 -32.334  1.00  0.00     0.037 A 
HETATM   17  C   UNL     1      -4.625   4.287 -31.991  1.00  0.00     0.012 A 
BRANCH  15  18
HETATM   18  O   UNL     1      -2.602   6.560 -34.125  1.00  0.00    -0.290 OA
BRANCH  18  19
HETATM   19  C   UNL     1      -1.280   6.087 -34.313  1.00  0.00     0.505 C 
HETATM   20  F   UNL     1      -0.877   5.424 -33.202  1.00  0.00    -0.184 F 
HETATM   21  F   UNL     1      -1.314   5.176 -35.318  1.00  0.00    -0.184 F 
ENDBRANCH  18  19
ENDBRANCH  15  18
ENDBRANCH   9  12
BRANCH  10  22
HETATM   22  C   UNL     1      -5.377   0.442 -32.557  1.00  0.00     0.256 C 
HETATM   23  N   UNL     1      -6.264  -0.529 -32.969  1.00  0.00    -0.323 N 
HETATM   24  H   UNL     1      -7.250  -0.388 -32.795  1.00  0.00     0.169 HD
HETATM   25  O   UNL     1      -4.162   0.425 -32.721  1.00  0.00    -0.267 OA
BRANCH  23  26
HETATM   26  C   UNL     1      -5.955  -1.743 -33.623  1.00  0.00     0.035 A 
HETATM   27  C   UNL     1      -4.675  -2.299 -33.686  1.00  0.00     0.029 A 
HETATM   28  C   UNL     1      -4.460  -3.512 -34.346  1.00  0.00     0.002 A 
HETATM   29  C   UNL     1      -5.523  -4.188 -34.941  1.00  0.00     0.000 A 
HETATM   30  C   UNL     1      -6.803  -3.643 -34.885  1.00  0.00     0.002 A 
HETATM   31  C   UNL     1      -7.017  -2.425 -34.236  1.00  0.00     0.029 A 
ENDBRANCH  23  26
ENDBRANCH  10  22
TORSDOF 5
ENDMDL
MODEL 3
REMARK VINA RESULT:      -8.9      5.107      6.988
REMARK  5 active torsions:
REMARK  status: ('A' for Active; 'I' for Inactive)
REMARK    1  A    between atoms: C_9  and  C_10 
REMARK    2  A    between atoms: C_13  and  O_14 
REMARK    3  A    between atoms: O_14  and  C_15 
REMARK    4  A    between atoms: C_20  and  C_21 
REMARK       I    between atoms: C_21  and  N_22 
REMARK    5  A    between atoms: N_22  and  C_23 
ROOT
HETATM    1  C   UNL     1      -3.732   2.151 -32.815  1.00  0.00     0.070 C 
HETATM    2  C   UNL     1      -5.094   2.342 -32.191  1.00  0.00     0.037 C 
HETATM    3  N   UNL     1      -5.378   3.637 -31.756  1.00  0.00    -0.192 N 
HETATM    4  C   UNL     1      -6.418   3.913 -30.945  1.00  0.00     0.725 A 
HETATM    5  N   UNL     1      -7.371   2.955 -30.738  1.00  0.00    -0.084 N 
HETATM    6  N   UNL     1      -8.282   3.347 -29.824  1.00  0.00    -0.149 NA
HETATM    7  C   UNL     1      -7.843   4.585 -29.562  1.00  0.00     0.275 A 
HETATM    8  N   UNL     1      -6.705   4.970 -30.226  1.00  0.00    -0.054 NA
HETATM    9  C   UNL     1      -7.378   1.658 -31.416  1.00  0.00     0.202 C 
HETATM   10  C   UNL     1      -6.012   1.353 -32.029  1.00  0.00     0.062 C 
HETATM   11  H   UNL     1      -4.613   4.309 -31.787  1.00  0.00     0.184 HD
ENDROOT
BRANCH   9  12
HETATM   12  C   UNL     1      -8.519   1.650 -32.439  1.00  0.00    -0.028 A 
HETATM   13  C   UNL     1      -8.711   2.709 -33.340  1.00  0.00     0.012 A 
HETATM   14  C   UNL     1      -9.773   2.686 -34.248  1.00  0.00     0.037 A 
HETATM   15  C   UNL     1     -10.672   1.619 -34.272  1.00  0.00     0.074 A 
HETATM   16  C   UNL     1     -10.502   0.570 -33.368  1.00  0.00     0.037 A 
HETATM   17  C   UNL     1      -9.435   0.586 -32.460  1.00  0.00     0.012 A 
BRANCH  15  18
HETATM   18  O   UNL     1     -11.667   1.742 -35.198  1.00  0.00    -0.290 OA
BRANCH  18  19
HETATM   19  C   UNL     1     -13.001   1.742 -34.718  1.00  0.00     0.505 C 
HETATM   20  F   UNL     1     -13.440   0.465 -34.608  1.00  0.00    -0.184 F 
HETATM   21  F   UNL     1     -12.979   2.255 -33.462  1.00  0.00    -0.184 F 
ENDBRANCH  18  19
ENDBRANCH  15  18
ENDBRANCH   9  12
BRANCH  10  22
HETATM   22  C   UNL     1      -5.632  -0.080 -32.228  1.00  0.00     0.256 C 
HETATM   23  N   UNL     1      -5.858  -0.568 -33.497  1.00  0.00    -0.323 N 
HETATM   24  H   UNL     1      -6.184   0.071 -34.210  1.00  0.00     0.169 HD
HETATM   25  O   UNL     1      -5.212  -0.724 -31.273  1.00  0.00    -0.267 OA
BRANCH  23  26
HETATM   26  C   UNL     1      -5.690  -1.899 -33.941  1.00  0.00     0.035 A 
HETATM   27  C   UNL     1      -4.467  -2.574 -33.956  1.00  0.00     0.029 A 
HETATM   28  C   UNL     1      -4.391  -3.897 -34.401  1.00  0.00     0.002 A 
HETATM   29  C   UNL     1      -5.539  -4.563 -34.827  1.00  0.00     0.000 A 
HETATM   30  C   UNL     1      -6.763  -3.900 -34.816  1.00  0.00     0.002 A 
HETATM   31  C   UNL     1      -6.837  -2.574 -34.383  1.00  0.00     0.029 A 
ENDBRANCH  23  26
ENDBRANCH  10  22
TORSDOF 5
ENDMDL
MODEL 4
REMARK VINA RESULT:      -8.8      2.375      3.014
REMARK  5 active torsions:
REMARK  status: ('A' for Active; 'I' for Inactive)
REMARK    1  A    between atoms: C_9  and  C_10 
REMARK    2  A    between atoms: C_13  and  O_14 
REMARK    3  A    between atoms: O_14  and  C_15 
REMARK    4  A    between atoms: C_20  and  C_21 
REMARK       I    between atoms: C_21  and  N_22 
REMARK    5  A    between atoms: N_22  and  C_23 
ROOT
HETATM    1  C   UNL     1      -9.429   0.160 -32.408  1.00  0.00     0.070 C 
HETATM    2  C   UNL     1      -8.745   1.441 -32.821  1.00  0.00     0.037 C 
HETATM    3  N   UNL     1      -9.327   2.614 -32.337  1.00  0.00    -0.192 N 
HETATM    4  C   UNL     1      -9.011   3.829 -32.826  1.00  0.00     0.725 A 
HETATM    5  N   UNL     1      -7.918   3.955 -33.636  1.00  0.00    -0.084 N 
HETATM    6  N   UNL     1      -7.801   5.207 -34.124  1.00  0.00    -0.149 NA
HETATM    7  C   UNL     1      -8.836   5.800 -33.516  1.00  0.00     0.275 A 
HETATM    8  N   UNL     1      -9.602   4.993 -32.714  1.00  0.00    -0.054 NA
HETATM    9  C   UNL     1      -7.006   2.853 -33.947  1.00  0.00     0.202 C 
HETATM   10  C   UNL     1      -7.644   1.505 -33.615  1.00  0.00     0.062 C 
HETATM   11  H   UNL     1     -10.217   2.517 -31.852  1.00  0.00     0.184 HD
ENDROOT
BRANCH   9  12
HETATM   12  C   UNL     1      -5.683   3.097 -33.213  1.00  0.00    -0.028 A 
HETATM   13  C   UNL     1      -4.713   3.981 -33.710  1.00  0.00     0.012 A 
HETATM   14  C   UNL     1      -3.506   4.168 -33.031  1.00  0.00     0.037 A 
HETATM   15  C   UNL     1      -3.232   3.472 -31.854  1.00  0.00     0.074 A 
HETATM   16  C   UNL     1      -4.180   2.576 -31.360  1.00  0.00     0.037 A 
HETATM   17  C   UNL     1      -5.394   2.390 -32.034  1.00  0.00     0.012 A 
BRANCH  15  18
HETATM   18  O   UNL     1      -2.009   3.741 -31.312  1.00  0.00    -0.290 OA
BRANCH  18  19
HETATM   19  C   UNL     1      -1.453   5.019 -31.570  1.00  0.00     0.505 C 
HETATM   20  F   UNL     1      -1.719   5.845 -30.529  1.00  0.00    -0.184 F 
HETATM   21  F   UNL     1      -0.104   4.872 -31.615  1.00  0.00    -0.184 F 
ENDBRANCH  18  19
ENDBRANCH  15  18
ENDBRANCH   9  12
BRANCH  10  22
HETATM   22  C   UNL     1      -7.173   0.298 -34.363  1.00  0.00     0.256 C 
HETATM   23  N   UNL     1      -6.749  -0.746 -33.570  1.00  0.00    -0.323 N 
HETATM   24  H   UNL     1      -6.850  -0.664 -32.568  1.00  0.00     0.169 HD
HETATM   25  O   UNL     1      -7.140   0.331 -35.588  1.00  0.00    -0.267 OA
BRANCH  23  26
HETATM   26  C   UNL     1      -6.164  -1.959 -33.998  1.00  0.00     0.035 A 
HETATM   27  C   UNL     1      -4.793  -2.225 -33.970  1.00  0.00     0.029 A 
HETATM   28  C   UNL     1      -4.300  -3.459 -34.404  1.00  0.00     0.002 A 
HETATM   29  C   UNL     1      -5.172  -4.444 -34.860  1.00  0.00     0.000 A 
HETATM   30  C   UNL     1      -6.541  -4.191 -34.892  1.00  0.00     0.002 A 
HETATM   31  C   UNL     1      -7.033  -2.953 -34.471  1.00  0.00     0.029 A 
ENDBRANCH  23  26
ENDBRANCH  10  22
TORSDOF 5
ENDMDL
MODEL 5
REMARK VINA RESULT:      -8.7      5.403      8.013
REMARK  5 active torsions:
REMARK  status: ('A' for Active; 'I' for Inactive)
REMARK    1  A    between atoms: C_9  and  C_10 
REMARK    2  A    between atoms: C_13  and  O_14 
REMARK    3  A    between atoms: O_14  and  C_15 
REMARK    4  A    between atoms: C_20  and  C_21 
REMARK       I    between atoms: C_21  and  N_22 
REMARK    5  A    between atoms: N_22  and  C_23 
ROOT
HETATM    1  C   UNL     1      -9.426   3.073 -30.415  1.00  0.00     0.070 C 
HETATM    2  C   UNL     1      -8.213   2.930 -31.303  1.00  0.00     0.037 C 
HETATM    3  N   UNL     1      -6.990   3.226 -30.700  1.00  0.00    -0.192 N 
HETATM    4  C   UNL     1      -5.861   3.412 -31.413  1.00  0.00     0.725 A 
HETATM    5  N   UNL     1      -5.845   3.059 -32.733  1.00  0.00    -0.084 N 
HETATM    6  N   UNL     1      -4.684   3.405 -33.327  1.00  0.00    -0.149 NA
HETATM    7  C   UNL     1      -4.022   3.915 -32.281  1.00  0.00     0.275 A 
HETATM    8  N   UNL     1      -4.706   3.939 -31.092  1.00  0.00    -0.054 NA
HETATM    9  C   UNL     1      -6.964   2.407 -33.414  1.00  0.00     0.202 C 
HETATM   10  C   UNL     1      -8.255   2.555 -32.609  1.00  0.00     0.062 C 
HETATM   11  H   UNL     1      -7.026   3.621 -29.762  1.00  0.00     0.184 HD
ENDROOT
BRANCH   9  12
HETATM   12  C   UNL     1      -6.583   0.948 -33.688  1.00  0.00    -0.028 A 
HETATM   13  C   UNL     1      -6.966   0.292 -34.868  1.00  0.00     0.012 A 
HETATM   14  C   UNL     1      -6.622  -1.045 -35.082  1.00  0.00     0.037 A 
HETATM   15  C   UNL     1      -5.903  -1.761 -34.125  1.00  0.00     0.074 A 
HETATM   16  C   UNL     1      -5.533  -1.126 -32.940  1.00  0.00     0.037 A 
HETATM   17  C   UNL     1      -5.870   0.217 -32.724  1.00  0.00     0.012 A 
BRANCH  15  18
HETATM   18  O   UNL     1      -5.656  -3.061 -34.462  1.00  0.00    -0.290 OA
BRANCH  18  19
HETATM   19  C   UNL     1      -6.728  -3.800 -35.021  1.00  0.00     0.505 C 
HETATM   20  F   UNL     1      -6.263  -4.985 -35.487  1.00  0.00    -0.184 F 
HETATM   21  F   UNL     1      -7.589  -4.089 -34.014  1.00  0.00    -0.184 F 
ENDBRANCH  18  19
ENDBRANCH  15  18
ENDBRANCH   9  12
BRANCH  10  22
HETATM   22  C   UNL     1      -9.556   2.503 -33.346  1.00  0.00     0.256 C 
HETATM   23  N   UNL     1     -10.539   1.756 -32.733  1.00  0.00    -0.323 N 
HETATM   24  H   UNL     1     -10.351   1.367 -31.820  1.00  0.00     0.169 HD
HETATM   25  O   UNL     1      -9.647   3.059 -34.435  1.00  0.00    -0.267 OA
BRANCH  23  26
HETATM   26  C   UNL     1     -11.821   1.453 -33.244  1.00  0.00     0.035 A 
HETATM   27  C   UNL     1     -12.257   0.164 -33.559  1.00  0.00     0.029 A 
HETATM   28  C   UNL     1     -13.549  -0.049 -34.051  1.00  0.00     0.002 A 
HETATM   29  C   UNL     1     -14.421   1.023 -34.222  1.00  0.00     0.000 A 
HETATM   30  C   UNL     1     -13.998   2.312 -33.911  1.00  0.00     0.002 A 
HETATM   31  C   UNL     1     -12.703   2.527 -33.432  1.00  0.00     0.029 A 
ENDBRANCH  23  26
ENDBRANCH  10  22
TORSDOF 5
ENDMDL
MODEL 6
REMARK VINA RESULT:      -8.6      5.231      7.855
REMARK  5 active torsions:
REMARK  status: ('A' for Active; 'I' for Inactive)
REMARK    1  A    between atoms: C_9  and  C_10 
REMARK    2  A    between atoms: C_13  and  O_14 
REMARK    3  A    between atoms: O_14  and  C_15 
REMARK    4  A    between atoms: C_20  and  C_21 
REMARK       I    between atoms: C_21  and  N_22 
REMARK    5  A    between atoms: N_22  and  C_23 
ROOT
HETATM    1  C   UNL     1      -9.628   3.134 -30.421  1.00  0.00     0.070 C 
HETATM    2  C   UNL     1      -8.651   3.024 -31.566  1.00  0.00     0.037 C 
HETATM    3  N   UNL     1      -7.544   3.870 -31.493  1.00  0.00    -0.192 N 
HETATM    4  C   UNL     1      -6.735   4.092 -32.547  1.00  0.00     0.725 A 
HETATM    5  N   UNL     1      -6.840   3.285 -33.645  1.00  0.00    -0.084 N 
HETATM    6  N   UNL     1      -6.040   3.701 -34.648  1.00  0.00    -0.149 NA
HETATM    7  C   UNL     1      -5.435   4.740 -34.058  1.00  0.00     0.275 A 
HETATM    8  N   UNL     1      -5.832   5.013 -32.773  1.00  0.00    -0.054 NA
HETATM    9  C   UNL     1      -7.732   2.126 -33.720  1.00  0.00     0.202 C 
HETATM   10  C   UNL     1      -8.798   2.186 -32.627  1.00  0.00     0.062 C 
HETATM   11  H   UNL     1      -7.546   4.563 -30.746  1.00  0.00     0.184 HD
ENDROOT
BRANCH   9  12
HETATM   12  C   UNL     1      -6.880   0.854 -33.670  1.00  0.00    -0.028 A 
HETATM   13  C   UNL     1      -5.950   0.626 -32.643  1.00  0.00     0.012 A 
HETATM   14  C   UNL     1      -5.171  -0.534 -32.634  1.00  0.00     0.037 A 
HETATM   15  C   UNL     1      -5.290  -1.485 -33.648  1.00  0.00     0.074 A 
HETATM   16  C   UNL     1      -6.197  -1.260 -34.684  1.00  0.00     0.037 A 
HETATM   17  C   UNL     1      -6.985  -0.101 -34.694  1.00  0.00     0.012 A 
BRANCH  15  18
HETATM   18  O   UNL     1      -4.454  -2.556 -33.518  1.00  0.00    -0.290 OA
BRANCH  18  19
HETATM   19  C   UNL     1      -4.501  -3.541 -34.535  1.00  0.00     0.505 C 
HETATM   20  F   UNL     1      -3.370  -4.286 -34.493  1.00  0.00    -0.184 F 
HETATM   21  F   UNL     1      -5.529  -4.377 -34.243  1.00  0.00    -0.184 F 
ENDBRANCH  18  19
ENDBRANCH  15  18
ENDBRANCH   9  12
BRANCH  10  22
HETATM   22  C   UNL     1     -10.095   1.481 -32.866  1.00  0.00     0.256 C 
HETATM   23  N   UNL     1     -11.137   2.299 -33.247  1.00  0.00    -0.323 N 
HETATM   24  H   UNL     1     -10.948   3.278 -33.410  1.00  0.00     0.169 HD
HETATM   25  O   UNL     1     -10.164   0.274 -32.662  1.00  0.00    -0.267 OA
BRANCH  23  26
HETATM   26  C   UNL     1     -12.486   1.925 -33.442  1.00  0.00     0.035 A 
HETATM   27  C   UNL     1     -12.910   0.954 -34.352  1.00  0.00     0.029 A 
HETATM   28  C   UNL     1     -14.266   0.637 -34.472  1.00  0.00     0.002 A 
HETATM   29  C   UNL     1     -15.212   1.281 -33.678  1.00  0.00     0.000 A 
HETATM   30  C   UNL     1     -14.801   2.251 -32.767  1.00  0.00     0.002 A 
HETATM   31  C   UNL     1     -13.447   2.576 -32.655  1.00  0.00     0.029 A 
ENDBRANCH  23  26
ENDBRANCH  10  22
TORSDOF 5
ENDMDL
MODEL 7
REMARK VINA RESULT:      -8.5      4.028      7.536
REMARK  5 active torsions:
REMARK  status: ('A' for Active; 'I' for Inactive)
REMARK    1  A    between atoms: C_9  and  C_10 
REMARK    2  A    between atoms: C_13  and  O_14 
REMARK    3  A    between atoms: O_14  and  C_15 
REMARK    4  A    between atoms: C_20  and  C_21 
REMARK       I    between atoms: C_21  and  N_22 
REMARK    5  A    between atoms: N_22  and  C_23 
ROOT
HETATM    1  C   UNL     1      -5.189   5.057 -34.349  1.00  0.00     0.070 C 
HETATM    2  C   UNL     1      -5.712   3.879 -33.563  1.00  0.00     0.037 C 
HETATM    3  N   UNL     1      -7.093   3.686 -33.620  1.00  0.00    -0.192 N 
HETATM    4  C   UNL     1      -7.741   2.863 -32.771  1.00  0.00     0.725 A 
HETATM    5  N   UNL     1      -7.015   2.001 -31.999  1.00  0.00    -0.084 N 
HETATM    6  N   UNL     1      -7.798   1.326 -31.133  1.00  0.00    -0.149 NA
HETATM    7  C   UNL     1      -9.003   1.796 -31.483  1.00  0.00     0.275 A 
HETATM    8  N   UNL     1      -9.012   2.738 -32.481  1.00  0.00    -0.054 NA
HETATM    9  C   UNL     1      -5.561   1.854 -32.092  1.00  0.00     0.202 C 
HETATM   10  C   UNL     1      -4.937   3.041 -32.825  1.00  0.00     0.062 C 
HETATM   11  H   UNL     1      -7.638   4.411 -34.082  1.00  0.00     0.184 HD
ENDROOT
BRANCH   9  12
HETATM   12  C   UNL     1      -5.251   0.504 -32.746  1.00  0.00    -0.028 A 
HETATM   13  C   UNL     1      -5.956   0.047 -33.871  1.00  0.00     0.012 A 
HETATM   14  C   UNL     1      -5.666  -1.198 -34.435  1.00  0.00     0.037 A 
HETATM   15  C   UNL     1      -4.681  -2.020 -33.887  1.00  0.00     0.074 A 
HETATM   16  C   UNL     1      -3.986  -1.585 -32.759  1.00  0.00     0.037 A 
HETATM   17  C   UNL     1      -4.269  -0.334 -32.194  1.00  0.00     0.012 A 
BRANCH  15  18
HETATM   18  O   UNL     1      -4.521  -3.213 -34.531  1.00  0.00    -0.290 OA
BRANCH  18  19
HETATM   19  C   UNL     1      -5.648  -4.069 -34.598  1.00  0.00     0.505 C 
HETATM   20  F   UNL     1      -6.021  -4.221 -35.892  1.00  0.00    -0.184 F 
HETATM   21  F   UNL     1      -5.256  -5.291 -34.160  1.00  0.00    -0.184 F 
ENDBRANCH  18  19
ENDBRANCH  15  18
ENDBRANCH   9  12
BRANCH  10  22
HETATM   22  C   UNL     1      -3.513   3.386 -32.526  1.00  0.00     0.256 C 
HETATM   23  N   UNL     1      -3.324   4.631 -31.965  1.00  0.00    -0.323 N 
HETATM   24  H   UNL     1      -4.136   5.183 -31.729  1.00  0.00     0.169 HD
HETATM   25  O   UNL     1      -2.630   2.595 -32.838  1.00  0.00    -0.267 OA
BRANCH  23  26
HETATM   26  C   UNL     1      -2.090   5.256 -31.674  1.00  0.00     0.035 A 
HETATM   27  C   UNL     1      -1.117   4.718 -30.828  1.00  0.00     0.029 A 
HETATM   28  C   UNL     1       0.084   5.400 -30.604  1.00  0.00     0.002 A 
HETATM   29  C   UNL     1       0.327   6.620 -31.230  1.00  0.00     0.000 A 
HETATM   30  C   UNL     1      -0.635   7.165 -32.075  1.00  0.00     0.002 A 
HETATM   31  C   UNL     1      -1.840   6.490 -32.290  1.00  0.00     0.029 A 
ENDBRANCH  23  26
ENDBRANCH  10  22
TORSDOF 5
ENDMDL
MODEL 8
REMARK VINA RESULT:      -8.3      3.123      3.904
REMARK  5 active torsions:
REMARK  status: ('A' for Active; 'I' for Inactive)
REMARK    1  A    between atoms: C_9  and  C_10 
REMARK    2  A    between atoms: C_13  and  O_14 
REMARK    3  A    between atoms: O_14  and  C_15 
REMARK    4  A    between atoms: C_20  and  C_21 
REMARK       I    between atoms: C_21  and  N_22 
REMARK    5  A    between atoms: N_22  and  C_23 
ROOT
HETATM    1  C   UNL     1     -10.375  -0.495 -32.705  1.00  0.00     0.070 C 
HETATM    2  C   UNL     1      -9.916   0.887 -33.106  1.00  0.00     0.037 C 
HETATM    3  N   UNL     1     -10.762   1.932 -32.733  1.00  0.00    -0.192 N 
HETATM    4  C   UNL     1     -10.641   3.174 -33.242  1.00  0.00     0.725 A 
HETATM    5  N   UNL     1      -9.516   3.495 -33.948  1.00  0.00    -0.084 N 
HETATM    6  N   UNL     1      -9.596   4.733 -34.477  1.00  0.00    -0.149 NA
HETATM    7  C   UNL     1     -10.784   5.123 -33.998  1.00  0.00     0.275 A 
HETATM    8  N   UNL     1     -11.456   4.199 -33.238  1.00  0.00    -0.054 NA
HETATM    9  C   UNL     1      -8.379   2.589 -34.121  1.00  0.00     0.202 C 
HETATM   10  C   UNL     1      -8.772   1.149 -33.793  1.00  0.00     0.062 C 
HETATM   11  H   UNL     1     -11.662   1.671 -32.332  1.00  0.00     0.184 HD
ENDROOT
BRANCH   9  12
HETATM   12  C   UNL     1      -7.212   3.108 -33.274  1.00  0.00    -0.028 A 
HETATM   13  C   UNL     1      -7.243   3.076 -31.871  1.00  0.00     0.012 A 
HETATM   14  C   UNL     1      -6.174   3.575 -31.124  1.00  0.00     0.037 A 
HETATM   15  C   UNL     1      -5.058   4.128 -31.753  1.00  0.00     0.074 A 
HETATM   16  C   UNL     1      -5.023   4.184 -33.146  1.00  0.00     0.037 A 
HETATM   17  C   UNL     1      -6.091   3.678 -33.900  1.00  0.00     0.012 A 
BRANCH  15  18
HETATM   18  O   UNL     1      -4.101   4.593 -30.897  1.00  0.00    -0.290 OA
BRANCH  18  19
HETATM   19  C   UNL     1      -2.899   5.077 -31.471  1.00  0.00     0.505 C 
HETATM   20  F   UNL     1      -2.408   6.081 -30.706  1.00  0.00    -0.184 F 
HETATM   21  F   UNL     1      -1.992   4.070 -31.421  1.00  0.00    -0.184 F 
ENDBRANCH  18  19
ENDBRANCH  15  18
ENDBRANCH   9  12
BRANCH  10  22
HETATM   22  C   UNL     1      -8.000   0.042 -34.438  1.00  0.00     0.256 C 
HETATM   23  N   UNL     1      -7.280  -0.746 -33.566  1.00  0.00    -0.323 N 
HETATM   24  H   UNL     1      -7.375  -0.581 -32.574  1.00  0.00     0.169 HD
HETATM   25  O   UNL     1      -8.009  -0.057 -35.660  1.00  0.00    -0.267 OA
BRANCH  23  26
HETATM   26  C   UNL     1      -6.389  -1.791 -33.900  1.00  0.00     0.035 A 
HETATM   27  C   UNL     1      -5.017  -1.769 -33.639  1.00  0.00     0.029 A 
HETATM   28  C   UNL     1      -4.209  -2.853 -33.994  1.00  0.00     0.002 A 
HETATM   29  C   UNL     1      -4.765  -3.975 -34.604  1.00  0.00     0.000 A 
HETATM   30  C   UNL     1      -6.131  -4.009 -34.868  1.00  0.00     0.002 A 
HETATM   31  C   UNL     1      -6.937  -2.920 -34.525  1.00  0.00     0.029 A 
ENDBRANCH  23  26
ENDBRANCH  10  22
TORSDOF 5
ENDMDL
MODEL 9
REMARK VINA RESULT:      -8.2      4.718      7.632
REMARK  5 active torsions:
REMARK  status: ('A' for Active; 'I' for Inactive)
REMARK    1  A    between atoms: C_9  and  C_10 
REMARK    2  A    between atoms: C_13  and  O_14 
REMARK    3  A    between atoms: O_14  and  C_15 
REMARK    4  A    between atoms: C_20  and  C_21 
REMARK       I    between atoms: C_21  and  N_22 
REMARK    5  A    between atoms: N_22  and  C_23 
ROOT
HETATM    1  C   UNL     1      -8.044   4.067 -29.777  1.00  0.00     0.070 C 
HETATM    2  C   UNL     1      -7.048   3.652 -30.834  1.00  0.00     0.037 C 
HETATM    3  N   UNL     1      -5.717   3.608 -30.418  1.00  0.00    -0.192 N 
HETATM    4  C   UNL     1      -4.693   3.526 -31.290  1.00  0.00     0.725 A 
HETATM    5  N   UNL     1      -4.956   3.226 -32.597  1.00  0.00    -0.084 N 
HETATM    6  N   UNL     1      -3.843   3.286 -33.357  1.00  0.00    -0.149 NA
HETATM    7  C   UNL     1      -2.929   3.576 -32.422  1.00  0.00     0.275 A 
HETATM    8  N   UNL     1      -3.408   3.732 -31.145  1.00  0.00    -0.054 NA
HETATM    9  C   UNL     1      -6.291   2.902 -33.103  1.00  0.00     0.202 C 
HETATM   10  C   UNL     1      -7.372   3.344 -32.118  1.00  0.00     0.062 C 
HETATM   11  H   UNL     1      -5.516   3.966 -29.486  1.00  0.00     0.184 HD
ENDROOT
BRANCH   9  12
HETATM   12  C   UNL     1      -6.338   1.404 -33.425  1.00  0.00    -0.028 A 
HETATM   13  C   UNL     1      -5.901   0.436 -32.507  1.00  0.00     0.012 A 
HETATM   14  C   UNL     1      -5.936  -0.921 -32.834  1.00  0.00     0.037 A 
HETATM   15  C   UNL     1      -6.391  -1.345 -34.083  1.00  0.00     0.074 A 
HETATM   16  C   UNL     1      -6.810  -0.392 -35.011  1.00  0.00     0.037 A 
HETATM   17  C   UNL     1      -6.784   0.971 -34.684  1.00  0.00     0.012 A 
BRANCH  15  18
HETATM   18  O   UNL     1      -6.351  -2.697 -34.269  1.00  0.00    -0.290 OA
BRANCH  18  19
HETATM   19  C   UNL     1      -5.459  -3.188 -35.255  1.00  0.00     0.505 C 
HETATM   20  F   UNL     1      -4.189  -3.116 -34.790  1.00  0.00    -0.184 F 
HETATM   21  F   UNL     1      -5.735  -4.504 -35.432  1.00  0.00    -0.184 F 
ENDBRANCH  18  19
ENDBRANCH  15  18
ENDBRANCH   9  12
BRANCH  10  22
HETATM   22  C   UNL     1      -8.734   3.649 -32.654  1.00  0.00     0.256 C 
HETATM   23  N   UNL     1      -9.575   2.561 -32.751  1.00  0.00    -0.323 N 
HETATM   24  H   UNL     1      -9.257   1.671 -32.395  1.00  0.00     0.169 HD
HETATM   25  O   UNL     1      -8.991   4.792 -33.015  1.00  0.00    -0.267 OA
BRANCH  23  26
HETATM   26  C   UNL     1     -10.873   2.534 -33.311  1.00  0.00     0.035 A 
HETATM   27  C   UNL     1     -11.961   3.250 -32.807  1.00  0.00     0.029 A 
HETATM   28  C   UNL     1     -13.211   3.174 -33.431  1.00  0.00     0.002 A 
HETATM   29  C   UNL     1     -13.381   2.391 -34.570  1.00  0.00     0.000 A 
HETATM   30  C   UNL     1     -12.303   1.674 -35.081  1.00  0.00     0.002 A 
HETATM   31  C   UNL     1     -11.058   1.739 -34.451  1.00  0.00     0.029 A 
ENDBRANCH  23  26
ENDBRANCH  10  22
TORSDOF 5
ENDMDL
MODEL 10
REMARK VINA RESULT:      -8.0      4.948      8.121
REMARK  5 active torsions:
REMARK  status: ('A' for Active; 'I' for Inactive)
REMARK    1  A    between atoms: C_9  and  C_10 
REMARK    2  A    between atoms: C_13  and  O_14 
REMARK    3  A    between atoms: O_14  and  C_15 
REMARK    4  A    between atoms: C_20  and  C_21 
REMARK       I    between atoms: C_21  and  N_22 
REMARK    5  A    between atoms: N_22  and  C_23 
ROOT
HETATM    1  C   UNL     1      -3.829   0.479 -30.627  1.00  0.00     0.070 C 
HETATM    2  C   UNL     1      -4.680   0.213 -31.846  1.00  0.00     0.037 C 
HETATM    3  N   UNL     1      -4.921  -1.133 -32.127  1.00  0.00    -0.192 N 
HETATM    4  C   UNL     1      -5.420  -1.544 -33.309  1.00  0.00     0.725 A 
HETATM    5  N   UNL     1      -5.942  -0.617 -34.167  1.00  0.00    -0.084 N 
HETATM    6  N   UNL     1      -6.301  -1.173 -35.342  1.00  0.00    -0.149 NA
HETATM    7  C   UNL     1      -6.015  -2.458 -35.098  1.00  0.00     0.275 A 
HETATM    8  N   UNL     1      -5.474  -2.727 -33.866  1.00  0.00    -0.054 NA
HETATM    9  C   UNL     1      -6.071   0.805 -33.846  1.00  0.00     0.202 C 
HETATM   10  C   UNL     1      -5.191   1.179 -32.654  1.00  0.00     0.062 C 
HETATM   11  H   UNL     1      -4.414  -1.815 -31.565  1.00  0.00     0.184 HD
ENDROOT
BRANCH   9  12
HETATM   12  C   UNL     1      -7.555   1.122 -33.630  1.00  0.00    -0.028 A 
HETATM   13  C   UNL     1      -8.391   0.275 -32.885  1.00  0.00     0.012 A 
HETATM   14  C   UNL     1      -9.745   0.577 -32.722  1.00  0.00     0.037 A 
HETATM   15  C   UNL     1     -10.300   1.718 -33.303  1.00  0.00     0.074 A 
HETATM   16  C   UNL     1      -9.483   2.557 -34.061  1.00  0.00     0.037 A 
HETATM   17  C   UNL     1      -8.123   2.262 -34.222  1.00  0.00     0.012 A 
BRANCH  15  18
HETATM   18  O   UNL     1     -11.636   1.875 -33.074  1.00  0.00    -0.290 OA
BRANCH  18  19
HETATM   19  C   UNL     1     -12.526   1.253 -33.985  1.00  0.00     0.505 C 
HETATM   20  F   UNL     1     -11.902   1.079 -35.176  1.00  0.00    -0.184 F 
HETATM   21  F   UNL     1     -12.797   0.014 -33.504  1.00  0.00    -0.184 F 
ENDBRANCH  18  19
ENDBRANCH  15  18
ENDBRANCH   9  12
BRANCH  10  22
HETATM   22  C   UNL     1      -4.724   2.595 -32.538  1.00  0.00     0.256 C 
HETATM   23  N   UNL     1      -3.449   2.825 -33.008  1.00  0.00    -0.323 N 
HETATM   24  H   UNL     1      -2.955   2.066 -33.457  1.00  0.00     0.169 HD
HETATM   25  O   UNL     1      -5.453   3.421 -32.000  1.00  0.00    -0.267 OA
BRANCH  23  26
HETATM   26  C   UNL     1      -2.719   4.033 -32.935  1.00  0.00     0.035 A 
HETATM   27  C   UNL     1      -2.099   4.508 -31.777  1.00  0.00     0.029 A 
HETATM   28  C   UNL     1      -1.385   5.710 -31.795  1.00  0.00     0.002 A 
HETATM   29  C   UNL     1      -1.275   6.444 -32.974  1.00  0.00     0.000 A 
HETATM   30  C   UNL     1      -1.887   5.980 -34.134  1.00  0.00     0.002 A 
HETATM   31  C   UNL     1      -2.611   4.785 -34.113  1.00  0.00     0.029 A 
ENDBRANCH  23  26
ENDBRANCH  10  22
TORSDOF 5
ENDMDL
