MODEL 1
REMARK VINA RESULT:      -9.6      0.000      0.000
REMARK  7 active torsions:
REMARK  status: ('A' for Active; 'I' for Inactive)
REMARK    1  A    between atoms: N_5  and  C_6 
REMARK    2  A    between atoms: C_14  and  N_15 
REMARK       I    between atoms: N_15  and  C_16 
REMARK    3  A    between atoms: C_16  and  C_17 
REMARK    4  A    between atoms: C_17  and  C_18 
REMARK    5  A    between atoms: C_18  and  C_19 
REMARK    6  A    between atoms: C_19  and  C_20 
REMARK       I    between atoms: C_20  and  N_21 
REMARK    7  A    between atoms: N_24  and  C_25 
ROOT
HETATM    1  C   UNL     1      -5.343   4.503 -34.212  1.00  0.00     0.112 C 
ENDROOT
BRANCH   1   2
HETATM    2  C   UNL     1      -6.723   4.017 -33.859  1.00  0.00     0.223 C 
HETATM    3  N   UNL     1      -6.993   2.822 -33.291  1.00  0.00    -0.321 N 
HETATM    4  H   UNL     1      -8.008   2.765 -33.164  1.00  0.00     0.169 HD
HETATM    5  O   UNL     1      -7.696   4.742 -34.101  1.00  0.00    -0.273 OA
BRANCH   3   6
HETATM    6  C   UNL     1      -6.391   1.659 -32.896  1.00  0.00     0.129 C 
HETATM    7  C   UNL     1      -5.877   1.067 -31.801  1.00  0.00     0.057 C 
HETATM    8  C   UNL     1      -5.826   1.529 -30.382  1.00  0.00     0.072 C 
HETATM    9  N   UNL     1      -5.347  -0.213 -32.086  1.00  0.00    -0.289 N 
HETATM   10  C   UNL     1      -4.151  -0.738 -31.429  1.00  0.00     0.178 C 
HETATM   11  N   UNL     1      -5.435  -0.410 -33.497  1.00  0.00    -0.217 N 
HETATM   12  C   UNL     1      -6.188   0.650 -33.999  1.00  0.00     0.295 C 
HETATM   13  O   UNL     1      -6.646   0.820 -35.123  1.00  0.00    -0.264 OA
BRANCH  11  14
HETATM   14  C   UNL     1      -5.580  -1.734 -33.990  1.00  0.00     0.060 A 
HETATM   15  C   UNL     1      -6.861  -2.273 -34.161  1.00  0.00     0.031 A 
HETATM   16  C   UNL     1      -7.030  -3.590 -34.597  1.00  0.00     0.002 A 
HETATM   17  C   UNL     1      -5.917  -4.384 -34.863  1.00  0.00     0.000 A 
HETATM   18  C   UNL     1      -4.637  -3.866 -34.681  1.00  0.00     0.002 A 
HETATM   19  C   UNL     1      -4.468  -2.550 -34.237  1.00  0.00     0.031 A 
ENDBRANCH  11  14
ENDBRANCH   3   6
ENDBRANCH   1   2
BRANCH   1  20
HETATM   20  C   UNL     1      -4.675   5.400 -33.124  1.00  0.00    -0.031 C 
HETATM   21  C   UNL     1      -3.427   6.033 -33.769  1.00  0.00     0.016 C 
HETATM   22  C   UNL     1      -5.632   6.552 -32.740  1.00  0.00     0.016 C 
BRANCH  20  23
HETATM   23  C   UNL     1      -4.317   4.575 -31.861  1.00  0.00     0.112 C 
BRANCH  23  24
HETATM   24  C   UNL     1      -2.831   4.370 -31.584  1.00  0.00     0.220 C 
HETATM   25  N   UNL     1      -2.114   5.380 -30.961  1.00  0.00    -0.349 N 
HETATM   26  C   UNL     1      -0.672   5.169 -30.761  1.00  0.00     0.145 C 
HETATM   27  C   UNL     1      -2.685   6.437 -30.110  1.00  0.00     0.145 C 
HETATM   28  C   UNL     1       0.124   6.484 -30.858  1.00  0.00     0.143 C 
HETATM   29  N   UNL     1      -0.423   7.509 -29.938  1.00  0.00    -0.375 N 
HETATM   30  C   UNL     1      -1.866   7.743 -30.144  1.00  0.00     0.143 C 
HETATM   31  O   UNL     1      -2.283   3.337 -31.977  1.00  0.00    -0.273 OA
BRANCH  29  32
HETATM   32  C   UNL     1       0.146   7.583 -28.662  1.00  0.00     0.069 A 
HETATM   33  C   UNL     1      -0.293   6.861 -27.535  1.00  0.00     0.142 A 
HETATM   34  F   UNL     1      -1.309   5.988 -27.625  1.00  0.00    -0.204 F 
HETATM   35  C   UNL     1       0.314   6.991 -26.282  1.00  0.00     0.044 A 
HETATM   36  C   UNL     1       1.377   7.870 -26.107  1.00  0.00     0.003 A 
HETATM   37  C   UNL     1       1.822   8.620 -27.188  1.00  0.00     0.002 A 
HETATM   38  C   UNL     1       1.211   8.478 -28.440  1.00  0.00     0.032 A 
ENDBRANCH  29  32
ENDBRANCH  23  24
ENDBRANCH  20  23
ENDBRANCH   1  20
TORSDOF 7
ENDMDL
MODEL 2
REMARK VINA RESULT:      -9.6      2.424      3.877
REMARK  7 active torsions:
REMARK  status: ('A' for Active; 'I' for Inactive)
REMARK    1  A    between atoms: N_5  and  C_6 
REMARK    2  A    between atoms: C_14  and  N_15 
REMARK       I    between atoms: N_15  and  C_16 
REMARK    3  A    between atoms: C_16  and  C_17 
REMARK    4  A    between atoms: C_17  and  C_18 
REMARK    5  A    between atoms: C_18  and  C_19 
REMARK    6  A    between atoms: C_19  and  C_20 
REMARK       I    between atoms: C_20  and  N_21 
REMARK    7  A    between atoms: N_24  and  C_25 
ROOT
HETATM    1  C   UNL     1      -1.794   4.977 -32.814  1.00  0.00     0.112 C 
ENDROOT
BRANCH   1   2
HETATM    2  C   UNL     1      -1.823   4.266 -31.488  1.00  0.00     0.223 C 
HETATM    3  N   UNL     1      -2.879   3.571 -31.014  1.00  0.00    -0.321 N 
HETATM    4  H   UNL     1      -2.613   3.197 -30.098  1.00  0.00     0.169 HD
HETATM    5  O   UNL     1      -0.823   4.311 -30.760  1.00  0.00    -0.273 OA
BRANCH   3   6
HETATM    6  C   UNL     1      -4.178   3.258 -31.305  1.00  0.00     0.129 C 
HETATM    7  C   UNL     1      -5.419   3.776 -31.233  1.00  0.00     0.057 C 
HETATM    8  C   UNL     1      -5.884   5.124 -30.790  1.00  0.00     0.072 C 
HETATM    9  N   UNL     1      -6.401   2.873 -31.703  1.00  0.00    -0.289 N 
HETATM   10  C   UNL     1      -7.734   2.775 -31.110  1.00  0.00     0.178 C 
HETATM   11  N   UNL     1      -5.745   1.640 -31.999  1.00  0.00    -0.217 N 
HETATM   12  C   UNL     1      -4.377   1.885 -31.897  1.00  0.00     0.295 C 
HETATM   13  O   UNL     1      -3.430   1.171 -32.206  1.00  0.00    -0.264 OA
BRANCH  11  14
HETATM   14  C   UNL     1      -6.286   0.810 -33.016  1.00  0.00     0.060 A 
HETATM   15  C   UNL     1      -6.450  -0.560 -32.778  1.00  0.00     0.031 A 
HETATM   16  C   UNL     1      -6.933  -1.406 -33.779  1.00  0.00     0.002 A 
HETATM   17  C   UNL     1      -7.254  -0.891 -35.033  1.00  0.00     0.000 A 
HETATM   18  C   UNL     1      -7.080   0.467 -35.289  1.00  0.00     0.002 A 
HETATM   19  C   UNL     1      -6.588   1.312 -34.289  1.00  0.00     0.031 A 
ENDBRANCH  11  14
ENDBRANCH   3   6
ENDBRANCH   1   2
BRANCH   1  20
HETATM   20  C   UNL     1      -1.748   6.533 -32.712  1.00  0.00    -0.031 C 
HETATM   21  C   UNL     1      -0.300   6.917 -32.348  1.00  0.00     0.016 C 
HETATM   22  C   UNL     1      -2.057   7.155 -34.094  1.00  0.00     0.016 C 
BRANCH  20  23
HETATM   23  C   UNL     1      -2.764   7.056 -31.664  1.00  0.00     0.112 C 
BRANCH  23  24
HETATM   24  C   UNL     1      -2.397   8.353 -30.951  1.00  0.00     0.220 C 
HETATM   25  N   UNL     1      -2.039   8.310 -29.612  1.00  0.00    -0.349 N 
HETATM   26  C   UNL     1      -1.745   9.587 -28.944  1.00  0.00     0.145 C 
HETATM   27  C   UNL     1      -1.514   7.132 -28.903  1.00  0.00     0.145 C 
HETATM   28  C   UNL     1      -2.159   9.572 -27.461  1.00  0.00     0.143 C 
HETATM   29  N   UNL     1      -1.559   8.418 -26.749  1.00  0.00    -0.375 N 
HETATM   30  C   UNL     1      -1.864   7.130 -27.401  1.00  0.00     0.143 C 
HETATM   31  O   UNL     1      -2.487   9.421 -31.562  1.00  0.00    -0.273 OA
BRANCH  29  32
HETATM   32  C   UNL     1      -0.329   8.635 -26.117  1.00  0.00     0.069 A 
HETATM   33  C   UNL     1      -0.128   9.461 -24.995  1.00  0.00     0.142 A 
HETATM   34  F   UNL     1      -1.157  10.095 -24.409  1.00  0.00    -0.204 F 
HETATM   35  C   UNL     1       1.133   9.644 -24.418  1.00  0.00     0.044 A 
HETATM   36  C   UNL     1       2.249   9.018 -24.962  1.00  0.00     0.003 A 
HETATM   37  C   UNL     1       2.096   8.216 -26.086  1.00  0.00     0.002 A 
HETATM   38  C   UNL     1       0.828   8.035 -26.652  1.00  0.00     0.032 A 
ENDBRANCH  29  32
ENDBRANCH  23  24
ENDBRANCH  20  23
ENDBRANCH   1  20
TORSDOF 7
ENDMDL
MODEL 3
REMARK VINA RESULT:      -9.5      2.439     10.214
REMARK  7 active torsions:
REMARK  status: ('A' for Active; 'I' for Inactive)
REMARK    1  A    between atoms: N_5  and  C_6 
REMARK    2  A    between atoms: C_14  and  N_15 
REMARK       I    between atoms: N_15  and  C_16 
REMARK    3  A    between atoms: C_16  and  C_17 
REMARK    4  A    between atoms: C_17  and  C_18 
REMARK    5  A    between atoms: C_18  and  C_19 
REMARK    6  A    between atoms: C_19  and  C_20 
REMARK       I    between atoms: C_20  and  N_21 
REMARK    7  A    between atoms: N_24  and  C_25 
ROOT
HETATM    1  C   UNL     1      -4.478   3.085 -30.638  1.00  0.00     0.112 C 
ENDROOT
BRANCH   1   2
HETATM    2  C   UNL     1      -3.821   3.696 -31.846  1.00  0.00     0.223 C 
HETATM    3  N   UNL     1      -3.197   4.894 -31.855  1.00  0.00    -0.321 N 
HETATM    4  H   UNL     1      -2.846   5.049 -32.805  1.00  0.00     0.169 HD
HETATM    5  O   UNL     1      -3.844   3.081 -32.919  1.00  0.00    -0.273 OA
BRANCH   3   6
HETATM    6  C   UNL     1      -2.937   5.977 -31.061  1.00  0.00     0.129 C 
HETATM    7  C   UNL     1      -3.516   7.107 -30.612  1.00  0.00     0.057 C 
HETATM    8  C   UNL     1      -4.899   7.634 -30.811  1.00  0.00     0.072 C 
HETATM    9  N   UNL     1      -2.646   7.862 -29.792  1.00  0.00    -0.289 N 
HETATM   10  C   UNL     1      -2.633   9.324 -29.789  1.00  0.00     0.178 C 
HETATM   11  N   UNL     1      -1.374   7.215 -29.806  1.00  0.00    -0.217 N 
HETATM   12  C   UNL     1      -1.556   5.996 -30.456  1.00  0.00     0.295 C 
HETATM   13  O   UNL     1      -0.786   5.049 -30.569  1.00  0.00    -0.264 OA
BRANCH  11  14
HETATM   14  C   UNL     1      -0.536   7.340 -28.666  1.00  0.00     0.060 A 
HETATM   15  C   UNL     1       0.662   8.059 -28.762  1.00  0.00     0.031 A 
HETATM   16  C   UNL     1       1.527   8.155 -27.669  1.00  0.00     0.002 A 
HETATM   17  C   UNL     1       1.205   7.529 -26.467  1.00  0.00     0.000 A 
HETATM   18  C   UNL     1       0.024   6.797 -26.362  1.00  0.00     0.002 A 
HETATM   19  C   UNL     1      -0.838   6.695 -27.459  1.00  0.00     0.031 A 
ENDBRANCH  11  14
ENDBRANCH   3   6
ENDBRANCH   1   2
BRANCH   1  20
HETATM   20  C   UNL     1      -5.981   3.464 -30.458  1.00  0.00    -0.031 C 
HETATM   21  C   UNL     1      -6.050   4.495 -29.316  1.00  0.00     0.016 C 
HETATM   22  C   UNL     1      -6.500   4.158 -31.739  1.00  0.00     0.016 C 
BRANCH  20  23
HETATM   23  C   UNL     1      -6.842   2.210 -30.158  1.00  0.00     0.112 C 
BRANCH  23  24
HETATM   24  C   UNL     1      -7.511   1.544 -31.356  1.00  0.00     0.220 C 
HETATM   25  N   UNL     1      -6.769   0.687 -32.155  1.00  0.00    -0.349 N 
HETATM   26  C   UNL     1      -7.432   0.107 -33.332  1.00  0.00     0.145 C 
HETATM   27  C   UNL     1      -5.554  -0.033 -31.740  1.00  0.00     0.145 C 
HETATM   28  C   UNL     1      -6.454  -0.099 -34.504  1.00  0.00     0.143 C 
HETATM   29  N   UNL     1      -5.274  -0.890 -34.081  1.00  0.00    -0.375 N 
HETATM   30  C   UNL     1      -4.589  -0.306 -32.912  1.00  0.00     0.143 C 
HETATM   31  O   UNL     1      -8.680   1.830 -31.628  1.00  0.00    -0.273 OA
BRANCH  29  32
HETATM   32  C   UNL     1      -5.344  -2.276 -34.259  1.00  0.00     0.069 A 
HETATM   33  C   UNL     1      -4.344  -3.194 -33.888  1.00  0.00     0.142 A 
HETATM   34  F   UNL     1      -3.220  -2.784 -33.277  1.00  0.00    -0.204 F 
HETATM   35  C   UNL     1      -4.473  -4.569 -34.106  1.00  0.00     0.044 A 
HETATM   36  C   UNL     1      -5.609  -5.075 -34.728  1.00  0.00     0.003 A 
HETATM   37  C   UNL     1      -6.607  -4.200 -35.134  1.00  0.00     0.002 A 
HETATM   38  C   UNL     1      -6.470  -2.824 -34.905  1.00  0.00     0.032 A 
ENDBRANCH  29  32
ENDBRANCH  23  24
ENDBRANCH  20  23
ENDBRANCH   1  20
TORSDOF 7
ENDMDL
MODEL 4
REMARK VINA RESULT:      -9.5      2.531     10.294
REMARK  7 active torsions:
REMARK  status: ('A' for Active; 'I' for Inactive)
REMARK    1  A    between atoms: N_5  and  C_6 
REMARK    2  A    between atoms: C_14  and  N_15 
REMARK       I    between atoms: N_15  and  C_16 
REMARK    3  A    between atoms: C_16  and  C_17 
REMARK    4  A    between atoms: C_17  and  C_18 
REMARK    5  A    between atoms: C_18  and  C_19 
REMARK    6  A    between atoms: C_19  and  C_20 
REMARK       I    between atoms: C_20  and  N_21 
REMARK    7  A    between atoms: N_24  and  C_25 
ROOT
HETATM    1  C   UNL     1      -5.414   4.757 -29.817  1.00  0.00     0.112 C 
ENDROOT
BRANCH   1   2
HETATM    2  C   UNL     1      -5.154   6.093 -30.458  1.00  0.00     0.223 C 
HETATM    3  N   UNL     1      -3.929   6.631 -30.640  1.00  0.00    -0.321 N 
HETATM    4  H   UNL     1      -4.057   7.538 -31.099  1.00  0.00     0.169 HD
HETATM    5  O   UNL     1      -6.114   6.768 -30.850  1.00  0.00    -0.273 OA
BRANCH   3   6
HETATM    6  C   UNL     1      -2.607   6.411 -30.366  1.00  0.00     0.129 C 
HETATM    7  C   UNL     1      -1.497   5.887 -30.921  1.00  0.00     0.057 C 
HETATM    8  C   UNL     1      -1.269   5.317 -32.282  1.00  0.00     0.072 C 
HETATM    9  N   UNL     1      -0.386   5.946 -30.047  1.00  0.00    -0.289 N 
HETATM   10  C   UNL     1       0.630   4.896 -29.989  1.00  0.00     0.178 C 
HETATM   11  N   UNL     1      -0.850   6.451 -28.795  1.00  0.00    -0.217 N 
HETATM   12  C   UNL     1      -2.163   6.871 -28.999  1.00  0.00     0.295 C 
HETATM   13  O   UNL     1      -2.906   7.503 -28.257  1.00  0.00    -0.264 OA
BRANCH  11  14
HETATM   14  C   UNL     1       0.054   7.183 -27.982  1.00  0.00     0.060 A 
HETATM   15  C   UNL     1       0.860   8.173 -28.559  1.00  0.00     0.031 A 
HETATM   16  C   UNL     1       1.794   8.872 -27.790  1.00  0.00     0.002 A 
HETATM   17  C   UNL     1       1.935   8.587 -26.434  1.00  0.00     0.000 A 
HETATM   18  C   UNL     1       1.151   7.594 -25.851  1.00  0.00     0.002 A 
HETATM   19  C   UNL     1       0.223   6.888 -26.622  1.00  0.00     0.031 A 
ENDBRANCH  11  14
ENDBRANCH   3   6
ENDBRANCH   1   2
BRANCH   1  20
HETATM   20  C   UNL     1      -5.399   3.550 -30.806  1.00  0.00    -0.031 C 
HETATM   21  C   UNL     1      -6.061   4.032 -32.111  1.00  0.00     0.016 C 
HETATM   22  C   UNL     1      -3.938   3.170 -31.142  1.00  0.00     0.016 C 
BRANCH  20  23
HETATM   23  C   UNL     1      -6.133   2.324 -30.204  1.00  0.00     0.112 C 
BRANCH  23  24
HETATM   24  C   UNL     1      -6.924   1.461 -31.182  1.00  0.00     0.220 C 
HETATM   25  N   UNL     1      -6.242   0.599 -32.027  1.00  0.00    -0.349 N 
HETATM   26  C   UNL     1      -7.033  -0.176 -32.994  1.00  0.00     0.145 C 
HETATM   27  C   UNL     1      -4.892   0.059 -31.794  1.00  0.00     0.145 C 
HETATM   28  C   UNL     1      -6.269  -0.413 -34.310  1.00  0.00     0.143 C 
HETATM   29  N   UNL     1      -4.943  -1.026 -34.055  1.00  0.00    -0.375 N 
HETATM   30  C   UNL     1      -4.132  -0.245 -33.101  1.00  0.00     0.143 C 
HETATM   31  O   UNL     1      -8.149   1.593 -31.245  1.00  0.00    -0.273 OA
BRANCH  29  32
HETATM   32  C   UNL     1      -4.875  -2.423 -34.087  1.00  0.00     0.069 A 
HETATM   33  C   UNL     1      -3.929  -3.206 -33.398  1.00  0.00     0.142 A 
HETATM   34  F   UNL     1      -3.010  -2.638 -32.600  1.00  0.00    -0.204 F 
HETATM   35  C   UNL     1      -3.909  -4.602 -33.484  1.00  0.00     0.044 A 
HETATM   36  C   UNL     1      -4.830  -5.267 -34.284  1.00  0.00     0.003 A 
HETATM   37  C   UNL     1      -5.764  -4.529 -35.000  1.00  0.00     0.002 A 
HETATM   38  C   UNL     1      -5.779  -3.132 -34.903  1.00  0.00     0.032 A 
ENDBRANCH  29  32
ENDBRANCH  23  24
ENDBRANCH  20  23
ENDBRANCH   1  20
TORSDOF 7
ENDMDL
MODEL 5
REMARK VINA RESULT:      -9.5      3.617      5.158
REMARK  7 active torsions:
REMARK  status: ('A' for Active; 'I' for Inactive)
REMARK    1  A    between atoms: N_5  and  C_6 
REMARK    2  A    between atoms: C_14  and  N_15 
REMARK       I    between atoms: N_15  and  C_16 
REMARK    3  A    between atoms: C_16  and  C_17 
REMARK    4  A    between atoms: C_17  and  C_18 
REMARK    5  A    between atoms: C_18  and  C_19 
REMARK    6  A    between atoms: C_19  and  C_20 
REMARK       I    between atoms: C_20  and  N_21 
REMARK    7  A    between atoms: N_24  and  C_25 
ROOT
HETATM    1  C   UNL     1     -10.933   3.126 -33.041  1.00  0.00     0.112 C 
ENDROOT
BRANCH   1   2
HETATM    2  C   UNL     1      -9.990   3.112 -34.214  1.00  0.00     0.223 C 
HETATM    3  N   UNL     1      -8.926   2.290 -34.334  1.00  0.00    -0.321 N 
HETATM    4  H   UNL     1      -8.473   2.502 -35.228  1.00  0.00     0.169 HD
HETATM    5  O   UNL     1     -10.179   3.905 -35.146  1.00  0.00    -0.273 OA
BRANCH   3   6
HETATM    6  C   UNL     1      -8.222   1.337 -33.651  1.00  0.00     0.129 C 
HETATM    7  C   UNL     1      -8.030   0.874 -32.401  1.00  0.00     0.057 C 
HETATM    8  C   UNL     1      -8.669   1.271 -31.111  1.00  0.00     0.072 C 
HETATM    9  N   UNL     1      -7.091  -0.183 -32.362  1.00  0.00    -0.289 N 
HETATM   10  C   UNL     1      -6.150  -0.365 -31.258  1.00  0.00     0.178 C 
HETATM   11  N   UNL     1      -6.563  -0.337 -33.679  1.00  0.00    -0.217 N 
HETATM   12  C   UNL     1      -7.328   0.478 -34.511  1.00  0.00     0.295 C 
HETATM   13  O   UNL     1      -7.339   0.555 -35.734  1.00  0.00    -0.264 OA
BRANCH  11  14
HETATM   14  C   UNL     1      -6.122  -1.623 -34.088  1.00  0.00     0.060 A 
HETATM   15  C   UNL     1      -7.064  -2.604 -34.423  1.00  0.00     0.031 A 
HETATM   16  C   UNL     1      -6.658  -3.893 -34.779  1.00  0.00     0.002 A 
HETATM   17  C   UNL     1      -5.303  -4.216 -34.801  1.00  0.00     0.000 A 
HETATM   18  C   UNL     1      -4.356  -3.255 -34.454  1.00  0.00     0.002 A 
HETATM   19  C   UNL     1      -4.764  -1.967 -34.089  1.00  0.00     0.031 A 
ENDBRANCH  11  14
ENDBRANCH   3   6
ENDBRANCH   1   2
BRANCH   1  20
HETATM   20  C   UNL     1     -10.952   4.465 -32.242  1.00  0.00    -0.031 C 
HETATM   21  C   UNL     1     -12.202   5.242 -32.697  1.00  0.00     0.016 C 
HETATM   22  C   UNL     1     -11.115   4.170 -30.733  1.00  0.00     0.016 C 
BRANCH  20  23
HETATM   23  C   UNL     1      -9.651   5.276 -32.478  1.00  0.00     0.112 C 
BRANCH  23  24
HETATM   24  C   UNL     1      -8.449   4.895 -31.619  1.00  0.00     0.220 C 
HETATM   25  N   UNL     1      -7.241   4.609 -32.236  1.00  0.00    -0.349 N 
HETATM   26  C   UNL     1      -6.120   4.191 -31.381  1.00  0.00     0.145 C 
HETATM   27  C   UNL     1      -6.830   5.072 -33.572  1.00  0.00     0.145 C 
HETATM   28  C   UNL     1      -5.199   3.179 -32.086  1.00  0.00     0.143 C 
HETATM   29  N   UNL     1      -4.738   3.698 -33.396  1.00  0.00    -0.375 N 
HETATM   30  C   UNL     1      -5.856   4.102 -34.271  1.00  0.00     0.143 C 
HETATM   31  O   UNL     1      -8.593   4.786 -30.399  1.00  0.00    -0.273 OA
BRANCH  29  32
HETATM   32  C   UNL     1      -3.524   4.392 -33.409  1.00  0.00     0.069 A 
HETATM   33  C   UNL     1      -3.041   5.165 -34.483  1.00  0.00     0.142 A 
HETATM   34  F   UNL     1      -3.767   5.322 -35.602  1.00  0.00    -0.204 F 
HETATM   35  C   UNL     1      -1.809   5.825 -34.435  1.00  0.00     0.044 A 
HETATM   36  C   UNL     1      -1.001   5.717 -33.310  1.00  0.00     0.003 A 
HETATM   37  C   UNL     1      -1.429   4.943 -32.239  1.00  0.00     0.002 A 
HETATM   38  C   UNL     1      -2.667   4.290 -32.294  1.00  0.00     0.032 A 
ENDBRANCH  29  32
ENDBRANCH  23  24
ENDBRANCH  20  23
ENDBRANCH   1  20
TORSDOF 7
ENDMDL
MODEL 6
REMARK VINA RESULT:      -9.5      2.981      9.451
REMARK  7 active torsions:
REMARK  status: ('A' for Active; 'I' for Inactive)
REMARK    1  A    between atoms: N_5  and  C_6 
REMARK    2  A    between atoms: C_14  and  N_15 
REMARK       I    between atoms: N_15  and  C_16 
REMARK    3  A    between atoms: C_16  and  C_17 
REMARK    4  A    between atoms: C_17  and  C_18 
REMARK    5  A    between atoms: C_18  and  C_19 
REMARK    6  A    between atoms: C_19  and  C_20 
REMARK       I    between atoms: C_20  and  N_21 
REMARK    7  A    between atoms: N_24  and  C_25 
ROOT
HETATM    1  C   UNL     1      -7.464   3.719 -32.697  1.00  0.00     0.112 C 
ENDROOT
BRANCH   1   2
HETATM    2  C   UNL     1      -7.555   5.050 -33.392  1.00  0.00     0.223 C 
HETATM    3  N   UNL     1      -6.789   6.123 -33.098  1.00  0.00    -0.321 N 
HETATM    4  H   UNL     1      -7.068   6.881 -33.729  1.00  0.00     0.169 HD
HETATM    5  O   UNL     1      -8.385   5.200 -34.298  1.00  0.00    -0.273 OA
BRANCH   3   6
HETATM    6  C   UNL     1      -5.834   6.554 -32.219  1.00  0.00     0.129 C 
HETATM    7  C   UNL     1      -5.710   7.090 -30.990  1.00  0.00     0.057 C 
HETATM    8  C   UNL     1      -6.745   7.403 -29.959  1.00  0.00     0.072 C 
HETATM    9  N   UNL     1      -4.360   7.343 -30.652  1.00  0.00    -0.289 N 
HETATM   10  C   UNL     1      -3.947   8.501 -29.860  1.00  0.00     0.178 C 
HETATM   11  N   UNL     1      -3.567   7.043 -31.800  1.00  0.00    -0.217 N 
HETATM   12  C   UNL     1      -4.417   6.432 -32.721  1.00  0.00     0.295 C 
HETATM   13  O   UNL     1      -4.151   5.873 -33.778  1.00  0.00    -0.264 OA
BRANCH  11  14
HETATM   14  C   UNL     1      -2.231   6.603 -31.606  1.00  0.00     0.060 A 
HETATM   15  C   UNL     1      -1.991   5.323 -31.092  1.00  0.00     0.031 A 
HETATM   16  C   UNL     1      -0.687   4.886 -30.844  1.00  0.00     0.002 A 
HETATM   17  C   UNL     1       0.392   5.727 -31.104  1.00  0.00     0.000 A 
HETATM   18  C   UNL     1       0.167   7.009 -31.600  1.00  0.00     0.002 A 
HETATM   19  C   UNL     1      -1.139   7.449 -31.840  1.00  0.00     0.031 A 
ENDBRANCH  11  14
ENDBRANCH   3   6
ENDBRANCH   1   2
BRANCH   1  20
HETATM   20  C   UNL     1      -8.307   3.614 -31.388  1.00  0.00    -0.031 C 
HETATM   21  C   UNL     1      -7.327   3.763 -30.209  1.00  0.00     0.016 C 
HETATM   22  C   UNL     1      -9.303   4.795 -31.314  1.00  0.00     0.016 C 
BRANCH  20  23
HETATM   23  C   UNL     1      -9.083   2.272 -31.329  1.00  0.00     0.112 C 
BRANCH  23  24
HETATM   24  C   UNL     1      -9.192   1.494 -32.636  1.00  0.00     0.220 C 
HETATM   25  N   UNL     1      -8.115   0.730 -33.060  1.00  0.00    -0.349 N 
HETATM   26  C   UNL     1      -8.236   0.038 -34.352  1.00  0.00     0.145 C 
HETATM   27  C   UNL     1      -7.051   0.194 -32.195  1.00  0.00     0.145 C 
HETATM   28  C   UNL     1      -6.886  -0.057 -35.086  1.00  0.00     0.143 C 
HETATM   29  N   UNL     1      -5.848  -0.667 -34.221  1.00  0.00    -0.375 N 
HETATM   30  C   UNL     1      -5.705   0.032 -32.929  1.00  0.00     0.143 C 
HETATM   31  O   UNL     1     -10.211   1.609 -33.321  1.00  0.00    -0.273 OA
BRANCH  29  32
HETATM   32  C   UNL     1      -5.682  -2.053 -34.314  1.00  0.00     0.069 A 
HETATM   33  C   UNL     1      -4.506  -2.754 -33.985  1.00  0.00     0.142 A 
HETATM   34  F   UNL     1      -3.430  -2.111 -33.502  1.00  0.00    -0.204 F 
HETATM   35  C   UNL     1      -4.402  -4.143 -34.114  1.00  0.00     0.044 A 
HETATM   36  C   UNL     1      -5.474  -4.882 -34.601  1.00  0.00     0.003 A 
HETATM   37  C   UNL     1      -6.643  -4.225 -34.963  1.00  0.00     0.002 A 
HETATM   38  C   UNL     1      -6.738  -2.834 -34.824  1.00  0.00     0.032 A 
ENDBRANCH  29  32
ENDBRANCH  23  24
ENDBRANCH  20  23
ENDBRANCH   1  20
TORSDOF 7
ENDMDL
MODEL 7
REMARK VINA RESULT:      -9.1      2.857      9.753
REMARK  7 active torsions:
REMARK  status: ('A' for Active; 'I' for Inactive)
REMARK    1  A    between atoms: N_5  and  C_6 
REMARK    2  A    between atoms: C_14  and  N_15 
REMARK       I    between atoms: N_15  and  C_16 
REMARK    3  A    between atoms: C_16  and  C_17 
REMARK    4  A    between atoms: C_17  and  C_18 
REMARK    5  A    between atoms: C_18  and  C_19 
REMARK    6  A    between atoms: C_19  and  C_20 
REMARK       I    between atoms: C_20  and  N_21 
REMARK    7  A    between atoms: N_24  and  C_25 
ROOT
HETATM    1  C   UNL     1      -7.356   3.478 -32.952  1.00  0.00     0.112 C 
ENDROOT
BRANCH   1   2
HETATM    2  C   UNL     1      -7.516   4.875 -33.490  1.00  0.00     0.223 C 
HETATM    3  N   UNL     1      -6.524   5.789 -33.557  1.00  0.00    -0.321 N 
HETATM    4  H   UNL     1      -6.919   6.641 -33.965  1.00  0.00     0.169 HD
HETATM    5  O   UNL     1      -8.625   5.237 -33.901  1.00  0.00    -0.273 OA
BRANCH   3   6
HETATM    6  C   UNL     1      -5.215   5.982 -33.211  1.00  0.00     0.129 C 
HETATM    7  C   UNL     1      -3.969   5.783 -33.682  1.00  0.00     0.057 C 
HETATM    8  C   UNL     1      -3.502   5.242 -34.993  1.00  0.00     0.072 C 
HETATM    9  N   UNL     1      -2.979   6.207 -32.765  1.00  0.00    -0.289 N 
HETATM   10  C   UNL     1      -1.706   5.507 -32.596  1.00  0.00     0.178 C 
HETATM   11  N   UNL     1      -3.645   6.611 -31.569  1.00  0.00    -0.217 N 
HETATM   12  C   UNL     1      -5.009   6.615 -31.857  1.00  0.00     0.295 C 
HETATM   13  O   UNL     1      -5.947   7.034 -31.189  1.00  0.00    -0.264 OA
BRANCH  11  14
HETATM   14  C   UNL     1      -3.045   7.614 -30.763  1.00  0.00     0.060 A 
HETATM   15  C   UNL     1      -2.735   7.334 -29.426  1.00  0.00     0.031 A 
HETATM   16  C   UNL     1      -2.190   8.320 -28.599  1.00  0.00     0.002 A 
HETATM   17  C   UNL     1      -1.953   9.598 -29.099  1.00  0.00     0.000 A 
HETATM   18  C   UNL     1      -2.272   9.894 -30.422  1.00  0.00     0.002 A 
HETATM   19  C   UNL     1      -2.825   8.910 -31.248  1.00  0.00     0.031 A 
ENDBRANCH  11  14
ENDBRANCH   3   6
ENDBRANCH   1   2
BRANCH   1  20
HETATM   20  C   UNL     1      -7.623   3.341 -31.421  1.00  0.00    -0.031 C 
HETATM   21  C   UNL     1      -6.255   3.435 -30.717  1.00  0.00     0.016 C 
HETATM   22  C   UNL     1      -8.477   4.533 -30.931  1.00  0.00     0.016 C 
BRANCH  20  23
HETATM   23  C   UNL     1      -8.348   2.009 -31.097  1.00  0.00     0.112 C 
BRANCH  23  24
HETATM   24  C   UNL     1      -8.628   1.084 -32.277  1.00  0.00     0.220 C 
HETATM   25  N   UNL     1      -7.587   0.343 -32.816  1.00  0.00    -0.349 N 
HETATM   26  C   UNL     1      -7.882  -0.495 -33.988  1.00  0.00     0.145 C 
HETATM   27  C   UNL     1      -6.347  -0.029 -32.115  1.00  0.00     0.145 C 
HETATM   28  C   UNL     1      -6.682  -0.591 -34.947  1.00  0.00     0.143 C 
HETATM   29  N   UNL     1      -5.462  -1.039 -34.234  1.00  0.00    -0.375 N 
HETATM   30  C   UNL     1      -5.145  -0.193 -33.067  1.00  0.00     0.143 C 
HETATM   31  O   UNL     1      -9.759   1.062 -32.769  1.00  0.00    -0.273 OA
BRANCH  29  32
HETATM   32  C   UNL     1      -5.207  -2.415 -34.219  1.00  0.00     0.069 A 
HETATM   33  C   UNL     1      -4.106  -3.030 -33.593  1.00  0.00     0.142 A 
HETATM   34  F   UNL     1      -3.207  -2.305 -32.906  1.00  0.00    -0.204 F 
HETATM   35  C   UNL     1      -3.903  -4.413 -33.627  1.00  0.00     0.044 A 
HETATM   36  C   UNL     1      -4.791  -5.233 -34.312  1.00  0.00     0.003 A 
HETATM   37  C   UNL     1      -5.875  -4.663 -34.966  1.00  0.00     0.002 A 
HETATM   38  C   UNL     1      -6.073  -3.277 -34.921  1.00  0.00     0.032 A 
ENDBRANCH  29  32
ENDBRANCH  23  24
ENDBRANCH  20  23
ENDBRANCH   1  20
TORSDOF 7
ENDMDL
MODEL 8
REMARK VINA RESULT:      -9.0      2.420      9.738
REMARK  7 active torsions:
REMARK  status: ('A' for Active; 'I' for Inactive)
REMARK    1  A    between atoms: N_5  and  C_6 
REMARK    2  A    between atoms: C_14  and  N_15 
REMARK       I    between atoms: N_15  and  C_16 
REMARK    3  A    between atoms: C_16  and  C_17 
REMARK    4  A    between atoms: C_17  and  C_18 
REMARK    5  A    between atoms: C_18  and  C_19 
REMARK    6  A    between atoms: C_19  and  C_20 
REMARK       I    between atoms: C_20  and  N_21 
REMARK    7  A    between atoms: N_24  and  C_25 
ROOT
HETATM    1  C   UNL     1      -5.652   6.962 -32.354  1.00  0.00     0.112 C 
ENDROOT
BRANCH   1   2
HETATM    2  C   UNL     1      -5.613   7.443 -30.929  1.00  0.00     0.223 C 
HETATM    3  N   UNL     1      -4.484   7.617 -30.209  1.00  0.00    -0.321 N 
HETATM    4  H   UNL     1      -4.760   7.951 -29.281  1.00  0.00     0.169 HD
HETATM    5  O   UNL     1      -6.677   7.698 -30.351  1.00  0.00    -0.273 OA
BRANCH   3   6
HETATM    6  C   UNL     1      -3.129   7.439 -30.274  1.00  0.00     0.129 C 
HETATM    7  C   UNL     1      -2.130   7.337 -31.172  1.00  0.00     0.057 C 
HETATM    8  C   UNL     1      -2.146   7.460 -32.660  1.00  0.00     0.072 C 
HETATM    9  N   UNL     1      -0.877   7.118 -30.552  1.00  0.00    -0.289 N 
HETATM   10  C   UNL     1       0.156   6.265 -31.139  1.00  0.00     0.178 C 
HETATM   11  N   UNL     1      -1.112   6.961 -29.153  1.00  0.00    -0.217 N 
HETATM   12  C   UNL     1      -2.450   7.286 -28.936  1.00  0.00     0.295 C 
HETATM   13  O   UNL     1      -3.055   7.440 -27.882  1.00  0.00    -0.264 OA
BRANCH  11  14
HETATM   14  C   UNL     1      -0.089   7.345 -28.246  1.00  0.00     0.060 A 
HETATM   15  C   UNL     1       0.016   6.701 -27.007  1.00  0.00     0.031 A 
HETATM   16  C   UNL     1       0.982   7.095 -26.077  1.00  0.00     0.002 A 
HETATM   17  C   UNL     1       1.852   8.141 -26.375  1.00  0.00     0.000 A 
HETATM   18  C   UNL     1       1.748   8.800 -27.598  1.00  0.00     0.002 A 
HETATM   19  C   UNL     1       0.776   8.412 -28.525  1.00  0.00     0.031 A 
ENDBRANCH  11  14
ENDBRANCH   3   6
ENDBRANCH   1   2
BRANCH   1  20
HETATM   20  C   UNL     1      -5.835   5.420 -32.511  1.00  0.00    -0.031 C 
HETATM   21  C   UNL     1      -7.350   5.154 -32.598  1.00  0.00     0.016 C 
HETATM   22  C   UNL     1      -5.207   4.955 -33.846  1.00  0.00     0.016 C 
BRANCH  20  23
HETATM   23  C   UNL     1      -5.181   4.656 -31.331  1.00  0.00     0.112 C 
BRANCH  23  24
HETATM   24  C   UNL     1      -4.113   3.630 -31.697  1.00  0.00     0.220 C 
HETATM   25  N   UNL     1      -4.463   2.290 -31.779  1.00  0.00    -0.349 N 
HETATM   26  C   UNL     1      -3.397   1.324 -32.079  1.00  0.00     0.145 C 
HETATM   27  C   UNL     1      -5.821   1.773 -32.019  1.00  0.00     0.145 C 
HETATM   28  C   UNL     1      -3.630  -0.030 -31.384  1.00  0.00     0.143 C 
HETATM   29  N   UNL     1      -4.976  -0.568 -31.701  1.00  0.00    -0.375 N 
HETATM   30  C   UNL     1      -6.056   0.387 -31.385  1.00  0.00     0.143 C 
HETATM   31  O   UNL     1      -2.947   4.003 -31.848  1.00  0.00    -0.273 OA
BRANCH  29  32
HETATM   32  C   UNL     1      -5.071  -1.429 -32.799  1.00  0.00     0.069 A 
HETATM   33  C   UNL     1      -4.140  -2.433 -33.127  1.00  0.00     0.142 A 
HETATM   34  F   UNL     1      -3.070  -2.665 -32.348  1.00  0.00    -0.204 F 
HETATM   35  C   UNL     1      -4.289  -3.253 -34.249  1.00  0.00     0.044 A 
HETATM   36  C   UNL     1      -5.373  -3.081 -35.103  1.00  0.00     0.003 A 
HETATM   37  C   UNL     1      -6.299  -2.083 -34.830  1.00  0.00     0.002 A 
HETATM   38  C   UNL     1      -6.144  -1.271 -33.699  1.00  0.00     0.032 A 
ENDBRANCH  29  32
ENDBRANCH  23  24
ENDBRANCH  20  23
ENDBRANCH   1  20
TORSDOF 7
ENDMDL
MODEL 9
REMARK VINA RESULT:      -8.9      3.617      7.374
REMARK  7 active torsions:
REMARK  status: ('A' for Active; 'I' for Inactive)
REMARK    1  A    between atoms: N_5  and  C_6 
REMARK    2  A    between atoms: C_14  and  N_15 
REMARK       I    between atoms: N_15  and  C_16 
REMARK    3  A    between atoms: C_16  and  C_17 
REMARK    4  A    between atoms: C_17  and  C_18 
REMARK    5  A    between atoms: C_18  and  C_19 
REMARK    6  A    between atoms: C_19  and  C_20 
REMARK       I    between atoms: C_20  and  N_21 
REMARK    7  A    between atoms: N_24  and  C_25 
ROOT
HETATM    1  C   UNL     1      -3.687   5.208 -31.255  1.00  0.00     0.112 C 
ENDROOT
BRANCH   1   2
HETATM    2  C   UNL     1      -2.654   4.119 -31.366  1.00  0.00     0.223 C 
HETATM    3  N   UNL     1      -2.935   2.802 -31.458  1.00  0.00    -0.321 N 
HETATM    4  H   UNL     1      -2.044   2.302 -31.523  1.00  0.00     0.169 HD
HETATM    5  O   UNL     1      -1.455   4.427 -31.371  1.00  0.00    -0.273 OA
BRANCH   3   6
HETATM    6  C   UNL     1      -3.982   1.921 -31.426  1.00  0.00     0.129 C 
HETATM    7  C   UNL     1      -5.199   1.764 -30.874  1.00  0.00     0.057 C 
HETATM    8  C   UNL     1      -5.993   2.677 -29.998  1.00  0.00     0.072 C 
HETATM    9  N   UNL     1      -5.798   0.537 -31.245  1.00  0.00    -0.289 N 
HETATM   10  C   UNL     1      -6.635  -0.242 -30.333  1.00  0.00     0.178 C 
HETATM   11  N   UNL     1      -4.841  -0.194 -32.010  1.00  0.00    -0.217 N 
HETATM   12  C   UNL     1      -3.779   0.676 -32.253  1.00  0.00     0.295 C 
HETATM   13  O   UNL     1      -2.809   0.537 -32.989  1.00  0.00    -0.264 OA
BRANCH  11  14
HETATM   14  C   UNL     1      -5.311  -1.100 -32.998  1.00  0.00     0.060 A 
HETATM   15  C   UNL     1      -4.523  -2.199 -33.360  1.00  0.00     0.031 A 
HETATM   16  C   UNL     1      -4.939  -3.077 -34.365  1.00  0.00     0.002 A 
HETATM   17  C   UNL     1      -6.149  -2.862 -35.021  1.00  0.00     0.000 A 
HETATM   18  C   UNL     1      -6.935  -1.763 -34.682  1.00  0.00     0.002 A 
HETATM   19  C   UNL     1      -6.514  -0.880 -33.683  1.00  0.00     0.031 A 
ENDBRANCH  11  14
ENDBRANCH   3   6
ENDBRANCH   1   2
BRANCH   1  20
HETATM   20  C   UNL     1      -3.986   5.955 -32.591  1.00  0.00    -0.031 C 
HETATM   21  C   UNL     1      -2.814   6.926 -32.834  1.00  0.00     0.016 C 
HETATM   22  C   UNL     1      -3.999   4.945 -33.762  1.00  0.00     0.016 C 
BRANCH  20  23
HETATM   23  C   UNL     1      -5.346   6.697 -32.526  1.00  0.00     0.112 C 
BRANCH  23  24
HETATM   24  C   UNL     1      -6.405   6.091 -31.610  1.00  0.00     0.220 C 
HETATM   25  N   UNL     1      -7.494   5.442 -32.173  1.00  0.00    -0.349 N 
HETATM   26  C   UNL     1      -8.522   4.920 -31.262  1.00  0.00     0.145 C 
HETATM   27  C   UNL     1      -7.535   4.849 -33.520  1.00  0.00     0.145 C 
HETATM   28  C   UNL     1      -9.931   4.986 -31.879  1.00  0.00     0.143 C 
HETATM   29  N   UNL     1      -9.966   4.318 -33.203  1.00  0.00    -0.375 N 
HETATM   30  C   UNL     1      -8.951   4.848 -34.132  1.00  0.00     0.143 C 
HETATM   31  O   UNL     1      -6.306   6.247 -30.391  1.00  0.00    -0.273 OA
BRANCH  29  32
HETATM   32  C   UNL     1     -10.324   2.966 -33.219  1.00  0.00     0.069 A 
HETATM   33  C   UNL     1      -9.463   1.894 -32.918  1.00  0.00     0.142 A 
HETATM   34  F   UNL     1      -8.192   2.112 -32.543  1.00  0.00    -0.204 F 
HETATM   35  C   UNL     1      -9.883   0.561 -32.966  1.00  0.00     0.044 A 
HETATM   36  C   UNL     1     -11.185   0.251 -33.340  1.00  0.00     0.003 A 
HETATM   37  C   UNL     1     -12.059   1.278 -33.670  1.00  0.00     0.002 A 
HETATM   38  C   UNL     1     -11.630   2.610 -33.613  1.00  0.00     0.032 A 
ENDBRANCH  29  32
ENDBRANCH  23  24
ENDBRANCH  20  23
ENDBRANCH   1  20
TORSDOF 7
ENDMDL
MODEL 10
REMARK VINA RESULT:      -8.9      3.537     10.727
REMARK  7 active torsions:
REMARK  status: ('A' for Active; 'I' for Inactive)
REMARK    1  A    between atoms: N_5  and  C_6 
REMARK    2  A    between atoms: C_14  and  N_15 
REMARK       I    between atoms: N_15  and  C_16 
REMARK    3  A    between atoms: C_16  and  C_17 
REMARK    4  A    between atoms: C_17  and  C_18 
REMARK    5  A    between atoms: C_18  and  C_19 
REMARK    6  A    between atoms: C_19  and  C_20 
REMARK       I    between atoms: C_20  and  N_21 
REMARK    7  A    between atoms: N_24  and  C_25 
ROOT
HETATM    1  C   UNL     1      -2.860   3.576 -31.673  1.00  0.00     0.112 C 
ENDROOT
BRANCH   1   2
HETATM    2  C   UNL     1      -2.264   4.524 -32.678  1.00  0.00     0.223 C 
HETATM    3  N   UNL     1      -1.852   5.779 -32.398  1.00  0.00    -0.321 N 
HETATM    4  H   UNL     1      -1.492   6.185 -33.267  1.00  0.00     0.169 HD
HETATM    5  O   UNL     1      -2.136   4.154 -33.852  1.00  0.00    -0.273 OA
BRANCH   3   6
HETATM    6  C   UNL     1      -1.815   6.697 -31.385  1.00  0.00     0.129 C 
HETATM    7  C   UNL     1      -2.569   7.655 -30.813  1.00  0.00     0.057 C 
HETATM    8  C   UNL     1      -3.971   8.083 -31.096  1.00  0.00     0.072 C 
HETATM    9  N   UNL     1      -1.894   8.303 -29.752  1.00  0.00    -0.289 N 
HETATM   10  C   UNL     1      -2.051   9.729 -29.469  1.00  0.00     0.178 C 
HETATM   11  N   UNL     1      -0.563   7.790 -29.714  1.00  0.00    -0.217 N 
HETATM   12  C   UNL     1      -0.525   6.717 -30.602  1.00  0.00     0.295 C 
HETATM   13  O   UNL     1       0.357   5.887 -30.787  1.00  0.00    -0.264 OA
BRANCH  11  14
HETATM   14  C   UNL     1       0.115   7.756 -28.467  1.00  0.00     0.060 A 
HETATM   15  C   UNL     1      -0.415   7.004 -27.410  1.00  0.00     0.031 A 
HETATM   16  C   UNL     1       0.206   6.995 -26.159  1.00  0.00     0.002 A 
HETATM   17  C   UNL     1       1.364   7.741 -25.948  1.00  0.00     0.000 A 
HETATM   18  C   UNL     1       1.892   8.506 -26.985  1.00  0.00     0.002 A 
HETATM   19  C   UNL     1       1.266   8.522 -28.236  1.00  0.00     0.031 A 
ENDBRANCH  11  14
ENDBRANCH   3   6
ENDBRANCH   1   2
BRANCH   1  20
HETATM   20  C   UNL     1      -4.420   3.550 -31.654  1.00  0.00    -0.031 C 
HETATM   21  C   UNL     1      -4.875   4.629 -30.653  1.00  0.00     0.016 C 
HETATM   22  C   UNL     1      -4.964   3.951 -33.045  1.00  0.00     0.016 C 
BRANCH  20  23
HETATM   23  C   UNL     1      -4.951   2.145 -31.270  1.00  0.00     0.112 C 
BRANCH  23  24
HETATM   24  C   UNL     1      -5.618   1.344 -32.384  1.00  0.00     0.220 C 
HETATM   25  N   UNL     1      -7.002   1.311 -32.458  1.00  0.00    -0.349 N 
HETATM   26  C   UNL     1      -7.609   0.484 -33.511  1.00  0.00     0.145 C 
HETATM   27  C   UNL     1      -7.915   2.319 -31.892  1.00  0.00     0.145 C 
HETATM   28  C   UNL     1      -8.946  -0.134 -33.063  1.00  0.00     0.143 C 
HETATM   29  N   UNL     1      -9.877   0.908 -32.566  1.00  0.00    -0.375 N 
HETATM   30  C   UNL     1      -9.284   1.732 -31.495  1.00  0.00     0.143 C 
HETATM   31  O   UNL     1      -4.914   0.689 -33.157  1.00  0.00    -0.273 OA
BRANCH  29  32
HETATM   32  C   UNL     1     -10.762   1.462 -33.497  1.00  0.00     0.069 A 
HETATM   33  C   UNL     1     -11.976   0.879 -33.909  1.00  0.00     0.142 A 
HETATM   34  F   UNL     1     -12.400  -0.282 -33.383  1.00  0.00    -0.204 F 
HETATM   35  C   UNL     1     -12.811   1.481 -34.855  1.00  0.00     0.044 A 
HETATM   36  C   UNL     1     -12.447   2.687 -35.443  1.00  0.00     0.003 A 
HETATM   37  C   UNL     1     -11.244   3.281 -35.083  1.00  0.00     0.002 A 
HETATM   38  C   UNL     1     -10.418   2.673 -34.130  1.00  0.00     0.032 A 
ENDBRANCH  29  32
ENDBRANCH  23  24
ENDBRANCH  20  23
ENDBRANCH   1  20
TORSDOF 7
ENDMDL
