MODEL 1
REMARK VINA RESULT:      -7.7      0.000      0.000
REMARK  10 active torsions:
REMARK  status: ('A' for Active; 'I' for Inactive)
REMARK    1  A    between atoms: C_2  and  C_3 
REMARK    2  A    between atoms: C_3  and  C_4 
REMARK    3  A    between atoms: C_4  and  N_5 
REMARK    4  A    between atoms: C_4  and  C_22 
REMARK    5  A    between atoms: N_5  and  C_6 
REMARK    6  A    between atoms: C_8  and  C_9 
REMARK    7  A    between atoms: C_16  and  C_17 
REMARK       I    between atoms: C_22  and  N_23 
REMARK    8  A    between atoms: N_23  and  C_24 
REMARK    9  A    between atoms: C_24  and  C_25 
REMARK   10  A    between atoms: C_25  and  O_26 
ROOT
HETATM    1  C   UNL     1      -6.193   1.329 -33.630  1.00  0.00     0.108 A 
HETATM    2  N   UNL     1      -5.720   0.098 -33.846  1.00  0.00    -0.215 NA
HETATM    3  C   UNL     1      -6.597  -0.927 -33.883  1.00  0.00     0.180 A 
HETATM    4  N   UNL     1      -7.923  -0.780 -33.692  1.00  0.00    -0.222 NA
HETATM    5  C   UNL     1      -8.383   0.467 -33.446  1.00  0.00     0.146 A 
HETATM    6  C   UNL     1      -7.535   1.562 -33.420  1.00  0.00     0.080 A 
ENDROOT
BRANCH   1   7
HETATM    7  N   UNL     1      -5.312   2.425 -33.554  1.00  0.00    -0.264 NA
HETATM    8  H   UNL     1      -4.422   2.147 -33.959  1.00  0.00     0.130 HD
BRANCH   7   9
HETATM    9  C   UNL     1      -5.148   3.005 -32.192  1.00  0.00     0.154 C 
BRANCH   9  10
HETATM   10  C   UNL     1      -4.703   1.906 -31.207  1.00  0.00     0.033 C 
BRANCH  10  11
HETATM   11  C   UNL     1      -5.675   1.629 -30.041  1.00  0.00    -0.021 C 
HETATM   12  C   UNL     1      -6.307   0.238 -30.114  1.00  0.00     0.009 C 
HETATM   13  C   UNL     1      -6.777   2.693 -30.028  1.00  0.00     0.009 C 
ENDBRANCH  10  11
ENDBRANCH   9  10
BRANCH   9  14
HETATM   14  C   UNL     1      -4.056   4.106 -32.196  1.00  0.00     0.235 C 
HETATM   15  N   UNL     1      -2.913   3.751 -32.887  1.00  0.00    -0.358 N 
HETATM   16  H   UNL     1      -3.076   3.023 -33.581  1.00  0.00     0.162 HD
HETATM   17  O   UNL     1      -4.170   5.159 -31.573  1.00  0.00    -0.272 OA
BRANCH  15  18
HETATM   18  C   UNL     1      -1.907   4.737 -33.222  1.00  0.00     0.148 C 
BRANCH  18  19
HETATM   19  C   UNL     1      -2.155   5.332 -34.607  1.00  0.00     0.186 C 
BRANCH  19  20
HETATM   20  O   UNL     1      -2.639   6.673 -34.454  1.00  0.00    -0.394 OA
HETATM   21  C   UNL     1      -1.905   7.387 -33.468  1.00  0.00     0.201 C 
ENDBRANCH  19  20
ENDBRANCH  18  19
ENDBRANCH  15  18
ENDBRANCH   9  14
ENDBRANCH   7   9
ENDBRANCH   1   7
BRANCH   3  22
HETATM   22  C   UNL     1      -6.060  -2.281 -34.173  1.00  0.00     0.104 A 
HETATM   23  N   UNL     1      -4.740  -2.505 -33.904  1.00  0.00    -0.257 NA
HETATM   24  C   UNL     1      -4.240  -3.736 -34.144  1.00  0.00     0.117 A 
HETATM   25  C   UNL     1      -4.986  -4.788 -34.642  1.00  0.00     0.019 A 
HETATM   26  C   UNL     1      -6.327  -4.564 -34.918  1.00  0.00     0.004 A 
HETATM   27  C   UNL     1      -6.870  -3.302 -34.684  1.00  0.00     0.036 A 
ENDBRANCH   3  22
BRANCH   5  28
HETATM   28  C   UNL     1      -9.863   0.689 -33.194  1.00  0.00     0.434 C 
HETATM   29  F   UNL     1     -10.151   1.695 -32.323  1.00  0.00    -0.165 F 
HETATM   30  F   UNL     1     -10.547   0.984 -34.339  1.00  0.00    -0.165 F 
HETATM   31  F   UNL     1     -10.472  -0.426 -32.692  1.00  0.00    -0.165 F 
ENDBRANCH   5  28
TORSDOF 10
ENDMDL
MODEL 2
REMARK VINA RESULT:      -7.2      4.671      7.573
REMARK  10 active torsions:
REMARK  status: ('A' for Active; 'I' for Inactive)
REMARK    1  A    between atoms: C_2  and  C_3 
REMARK    2  A    between atoms: C_3  and  C_4 
REMARK    3  A    between atoms: C_4  and  N_5 
REMARK    4  A    between atoms: C_4  and  C_22 
REMARK    5  A    between atoms: N_5  and  C_6 
REMARK    6  A    between atoms: C_8  and  C_9 
REMARK    7  A    between atoms: C_16  and  C_17 
REMARK       I    between atoms: C_22  and  N_23 
REMARK    8  A    between atoms: N_23  and  C_24 
REMARK    9  A    between atoms: C_24  and  C_25 
REMARK   10  A    between atoms: C_25  and  O_26 
ROOT
HETATM    1  C   UNL     1      -9.472   0.479 -32.670  1.00  0.00     0.108 A 
HETATM    2  N   UNL     1      -8.621  -0.381 -33.237  1.00  0.00    -0.215 NA
HETATM    3  C   UNL     1      -7.306  -0.259 -32.956  1.00  0.00     0.180 A 
HETATM    4  N   UNL     1      -6.802   0.696 -32.152  1.00  0.00    -0.222 NA
HETATM    5  C   UNL     1      -7.672   1.577 -31.608  1.00  0.00     0.146 A 
HETATM    6  C   UNL     1      -9.035   1.488 -31.839  1.00  0.00     0.080 A 
ENDROOT
BRANCH   1   7
HETATM    7  N   UNL     1     -10.849   0.408 -32.957  1.00  0.00    -0.264 NA
HETATM    8  H   UNL     1     -10.997  -0.343 -33.624  1.00  0.00     0.130 HD
BRANCH   7   9
HETATM    9  C   UNL     1     -11.461   1.688 -33.411  1.00  0.00     0.154 C 
BRANCH   9  10
HETATM   10  C   UNL     1     -10.656   2.260 -34.594  1.00  0.00     0.033 C 
BRANCH  10  11
HETATM   11  C   UNL     1     -10.383   3.779 -34.535  1.00  0.00    -0.021 C 
HETATM   12  C   UNL     1     -10.686   4.383 -33.162  1.00  0.00     0.009 C 
HETATM   13  C   UNL     1     -11.216   4.491 -35.605  1.00  0.00     0.009 C 
ENDBRANCH  10  11
ENDBRANCH   9  10
BRANCH   9  14
HETATM   14  C   UNL     1     -12.915   1.453 -33.899  1.00  0.00     0.235 C 
HETATM   15  N   UNL     1     -13.841   1.400 -32.874  1.00  0.00    -0.358 N 
HETATM   16  H   UNL     1     -13.531   1.875 -32.029  1.00  0.00     0.162 HD
HETATM   17  O   UNL     1     -13.197   1.252 -35.078  1.00  0.00    -0.272 OA
BRANCH  15  18
HETATM   18  C   UNL     1     -15.262   1.454 -33.150  1.00  0.00     0.148 C 
BRANCH  18  19
HETATM   19  C   UNL     1     -15.995   2.302 -32.113  1.00  0.00     0.186 C 
BRANCH  19  20
HETATM   20  O   UNL     1     -17.406   2.197 -32.344  1.00  0.00    -0.394 OA
HETATM   21  C   UNL     1     -18.056   3.454 -32.206  1.00  0.00     0.201 C 
ENDBRANCH  19  20
ENDBRANCH  18  19
ENDBRANCH  15  18
ENDBRANCH   9  14
ENDBRANCH   7   9
ENDBRANCH   1   7
BRANCH   3  22
HETATM   22  C   UNL     1      -6.381  -1.254 -33.557  1.00  0.00     0.104 A 
HETATM   23  N   UNL     1      -5.066  -1.187 -33.197  1.00  0.00    -0.257 NA
HETATM   24  C   UNL     1      -4.214  -2.096 -33.718  1.00  0.00     0.117 A 
HETATM   25  C   UNL     1      -4.595  -3.096 -34.594  1.00  0.00     0.019 A 
HETATM   26  C   UNL     1      -5.931  -3.166 -34.963  1.00  0.00     0.004 A 
HETATM   27  C   UNL     1      -6.832  -2.238 -34.444  1.00  0.00     0.036 A 
ENDBRANCH   3  22
BRANCH   5  28
HETATM   28  C   UNL     1      -7.158   2.693 -30.717  1.00  0.00     0.434 C 
HETATM   29  F   UNL     1      -7.040   2.367 -29.401  1.00  0.00    -0.165 F 
HETATM   30  F   UNL     1      -5.925   3.138 -31.101  1.00  0.00    -0.165 F 
HETATM   31  F   UNL     1      -7.964   3.796 -30.758  1.00  0.00    -0.165 F 
ENDBRANCH   5  28
TORSDOF 10
ENDMDL
MODEL 3
REMARK VINA RESULT:      -7.2      3.970      6.399
REMARK  10 active torsions:
REMARK  status: ('A' for Active; 'I' for Inactive)
REMARK    1  A    between atoms: C_2  and  C_3 
REMARK    2  A    between atoms: C_3  and  C_4 
REMARK    3  A    between atoms: C_4  and  N_5 
REMARK    4  A    between atoms: C_4  and  C_22 
REMARK    5  A    between atoms: N_5  and  C_6 
REMARK    6  A    between atoms: C_8  and  C_9 
REMARK    7  A    between atoms: C_16  and  C_17 
REMARK       I    between atoms: C_22  and  N_23 
REMARK    8  A    between atoms: N_23  and  C_24 
REMARK    9  A    between atoms: C_24  and  C_25 
REMARK   10  A    between atoms: C_25  and  O_26 
ROOT
HETATM    1  C   UNL     1      -7.017   1.186 -33.412  1.00  0.00     0.108 A 
HETATM    2  N   UNL     1      -6.898  -0.071 -33.850  1.00  0.00    -0.215 NA
HETATM    3  C   UNL     1      -5.743  -0.726 -33.608  1.00  0.00     0.180 A 
HETATM    4  N   UNL     1      -4.694  -0.174 -32.969  1.00  0.00    -0.222 NA
HETATM    5  C   UNL     1      -4.817   1.108 -32.558  1.00  0.00     0.146 A 
HETATM    6  C   UNL     1      -5.987   1.823 -32.755  1.00  0.00     0.080 A 
ENDROOT
BRANCH   1   7
HETATM    7  N   UNL     1      -8.193   1.918 -33.667  1.00  0.00    -0.264 NA
HETATM    8  H   UNL     1      -8.021   2.891 -33.428  1.00  0.00     0.130 HD
BRANCH   7   9
HETATM    9  C   UNL     1      -9.417   1.389 -33.005  1.00  0.00     0.154 C 
BRANCH   9  10
HETATM   10  C   UNL     1      -9.394   1.744 -31.505  1.00  0.00     0.033 C 
BRANCH  10  11
HETATM   11  C   UNL     1      -9.167   3.237 -31.183  1.00  0.00    -0.021 C 
HETATM   12  C   UNL     1      -7.956   3.469 -30.276  1.00  0.00     0.009 C 
HETATM   13  C   UNL     1     -10.422   3.816 -30.523  1.00  0.00     0.009 C 
ENDBRANCH  10  11
ENDBRANCH   9  10
BRANCH   9  14
HETATM   14  C   UNL     1     -10.690   2.028 -33.622  1.00  0.00     0.235 C 
HETATM   15  N   UNL     1     -11.867   1.466 -33.167  1.00  0.00    -0.358 N 
HETATM   16  H   UNL     1     -11.769   1.008 -32.264  1.00  0.00     0.162 HD
HETATM   17  O   UNL     1     -10.644   2.893 -34.493  1.00  0.00    -0.272 OA
BRANCH  15  18
HETATM   18  C   UNL     1     -13.144   2.101 -33.425  1.00  0.00     0.148 C 
BRANCH  18  19
HETATM   19  C   UNL     1     -13.433   3.196 -32.401  1.00  0.00     0.186 C 
BRANCH  19  20
HETATM   20  O   UNL     1     -14.578   2.815 -31.627  1.00  0.00    -0.394 OA
HETATM   21  C   UNL     1     -15.501   2.055 -32.394  1.00  0.00     0.201 C 
ENDBRANCH  19  20
ENDBRANCH  18  19
ENDBRANCH  15  18
ENDBRANCH   9  14
ENDBRANCH   7   9
ENDBRANCH   1   7
BRANCH   3  22
HETATM   22  C   UNL     1      -5.648  -2.139 -34.057  1.00  0.00     0.104 A 
HETATM   23  N   UNL     1      -4.449  -2.771 -33.895  1.00  0.00    -0.257 NA
HETATM   24  C   UNL     1      -4.350  -4.061 -34.280  1.00  0.00     0.117 A 
HETATM   25  C   UNL     1      -5.394  -4.785 -34.827  1.00  0.00     0.019 A 
HETATM   26  C   UNL     1      -6.614  -4.145 -34.994  1.00  0.00     0.004 A 
HETATM   27  C   UNL     1      -6.744  -2.812 -34.609  1.00  0.00     0.036 A 
ENDBRANCH   3  22
BRANCH   5  28
HETATM   28  C   UNL     1      -3.657   1.792 -31.859  1.00  0.00     0.434 C 
HETATM   29  F   UNL     1      -4.012   2.629 -30.845  1.00  0.00    -0.165 F 
HETATM   30  F   UNL     1      -2.781   0.898 -31.311  1.00  0.00    -0.165 F 
HETATM   31  F   UNL     1      -2.908   2.544 -32.720  1.00  0.00    -0.165 F 
ENDBRANCH   5  28
TORSDOF 10
ENDMDL
MODEL 4
REMARK VINA RESULT:      -7.1      1.719      2.409
REMARK  10 active torsions:
REMARK  status: ('A' for Active; 'I' for Inactive)
REMARK    1  A    between atoms: C_2  and  C_3 
REMARK    2  A    between atoms: C_3  and  C_4 
REMARK    3  A    between atoms: C_4  and  N_5 
REMARK    4  A    between atoms: C_4  and  C_22 
REMARK    5  A    between atoms: N_5  and  C_6 
REMARK    6  A    between atoms: C_8  and  C_9 
REMARK    7  A    between atoms: C_16  and  C_17 
REMARK       I    between atoms: C_22  and  N_23 
REMARK    8  A    between atoms: N_23  and  C_24 
REMARK    9  A    between atoms: C_24  and  C_25 
REMARK   10  A    between atoms: C_25  and  O_26 
ROOT
HETATM    1  C   UNL     1      -6.481   1.034 -32.195  1.00  0.00     0.108 A 
HETATM    2  N   UNL     1      -5.971  -0.107 -32.669  1.00  0.00    -0.215 NA
HETATM    3  C   UNL     1      -6.782  -0.926 -33.372  1.00  0.00     0.180 A 
HETATM    4  N   UNL     1      -8.083  -0.667 -33.604  1.00  0.00    -0.222 NA
HETATM    5  C   UNL     1      -8.592   0.477 -33.093  1.00  0.00     0.146 A 
HETATM    6  C   UNL     1      -7.804   1.369 -32.385  1.00  0.00     0.080 A 
ENDROOT
BRANCH   1   7
HETATM    7  N   UNL     1      -5.681   1.906 -31.431  1.00  0.00    -0.264 NA
HETATM    8  H   UNL     1      -6.197   2.160 -30.594  1.00  0.00     0.130 HD
BRANCH   7   9
HETATM    9  C   UNL     1      -5.181   3.103 -32.164  1.00  0.00     0.154 C 
BRANCH   9  10
HETATM   10  C   UNL     1      -5.746   4.383 -31.518  1.00  0.00     0.033 C 
BRANCH  10  11
HETATM   11  C   UNL     1      -6.762   5.164 -32.379  1.00  0.00    -0.021 C 
HETATM   12  C   UNL     1      -8.197   5.035 -31.865  1.00  0.00     0.009 C 
HETATM   13  C   UNL     1      -6.689   4.676 -33.829  1.00  0.00     0.009 C 
ENDBRANCH  10  11
ENDBRANCH   9  10
BRANCH   9  14
HETATM   14  C   UNL     1      -3.633   3.180 -32.089  1.00  0.00     0.235 C 
HETATM   15  N   UNL     1      -3.103   4.292 -32.714  1.00  0.00    -0.358 N 
HETATM   16  H   UNL     1      -3.767   5.059 -32.797  1.00  0.00     0.162 HD
HETATM   17  O   UNL     1      -2.946   2.290 -31.592  1.00  0.00    -0.272 OA
BRANCH  15  18
HETATM   18  C   UNL     1      -1.717   4.667 -32.520  1.00  0.00     0.148 C 
BRANCH  18  19
HETATM   19  C   UNL     1      -1.501   5.288 -31.142  1.00  0.00     0.186 C 
BRANCH  19  20
HETATM   20  O   UNL     1      -0.427   4.599 -30.487  1.00  0.00    -0.394 OA
HETATM   21  C   UNL     1       0.837   5.147 -30.834  1.00  0.00     0.201 C 
ENDBRANCH  19  20
ENDBRANCH  18  19
ENDBRANCH  15  18
ENDBRANCH   9  14
ENDBRANCH   7   9
ENDBRANCH   1   7
BRANCH   3  22
HETATM   22  C   UNL     1      -6.185  -2.165 -33.933  1.00  0.00     0.104 A 
HETATM   23  N   UNL     1      -4.837  -2.330 -33.801  1.00  0.00    -0.257 NA
HETATM   24  C   UNL     1      -4.281  -3.460 -34.288  1.00  0.00     0.117 A 
HETATM   25  C   UNL     1      -4.998  -4.465 -34.911  1.00  0.00     0.019 A 
HETATM   26  C   UNL     1      -6.369  -4.300 -35.049  1.00  0.00     0.004 A 
HETATM   27  C   UNL     1      -6.969  -3.142 -34.559  1.00  0.00     0.036 A 
ENDBRANCH   3  22
BRANCH   5  28
HETATM   28  C   UNL     1     -10.059   0.807 -33.297  1.00  0.00     0.434 C 
HETATM   29  F   UNL     1     -10.924  -0.179 -32.931  1.00  0.00    -0.165 F 
HETATM   30  F   UNL     1     -10.445   1.916 -32.598  1.00  0.00    -0.165 F 
HETATM   31  F   UNL     1     -10.346   1.091 -34.602  1.00  0.00    -0.165 F 
ENDBRANCH   5  28
TORSDOF 10
ENDMDL
MODEL 5
REMARK VINA RESULT:      -7.0     15.576     17.283
REMARK  10 active torsions:
REMARK  status: ('A' for Active; 'I' for Inactive)
REMARK    1  A    between atoms: C_2  and  C_3 
REMARK    2  A    between atoms: C_3  and  C_4 
REMARK    3  A    between atoms: C_4  and  N_5 
REMARK    4  A    between atoms: C_4  and  C_22 
REMARK    5  A    between atoms: N_5  and  C_6 
REMARK    6  A    between atoms: C_8  and  C_9 
REMARK    7  A    between atoms: C_16  and  C_17 
REMARK       I    between atoms: C_22  and  N_23 
REMARK    8  A    between atoms: N_23  and  C_24 
REMARK    9  A    between atoms: C_24  and  C_25 
REMARK   10  A    between atoms: C_25  and  O_26 
ROOT
HETATM    1  C   UNL     1      -4.668 -12.980 -39.890  1.00  0.00     0.108 A 
HETATM    2  N   UNL     1      -5.997 -12.877 -39.791  1.00  0.00    -0.215 NA
HETATM    3  C   UNL     1      -6.756 -13.446 -40.752  1.00  0.00     0.180 A 
HETATM    4  N   UNL     1      -6.246 -14.092 -41.818  1.00  0.00    -0.222 NA
HETATM    5  C   UNL     1      -4.899 -14.163 -41.920  1.00  0.00     0.146 A 
HETATM    6  C   UNL     1      -4.069 -13.620 -40.953  1.00  0.00     0.080 A 
ENDROOT
BRANCH   1   7
HETATM    7  N   UNL     1      -3.837 -12.377 -38.926  1.00  0.00    -0.264 NA
HETATM    8  H   UNL     1      -3.383 -11.575 -39.354  1.00  0.00     0.130 HD
BRANCH   7   9
HETATM    9  C   UNL     1      -2.856 -13.295 -38.282  1.00  0.00     0.154 C 
BRANCH   9  10
HETATM   10  C   UNL     1      -1.459 -12.644 -38.274  1.00  0.00     0.033 C 
BRANCH  10  11
HETATM   11  C   UNL     1      -0.347 -13.455 -38.972  1.00  0.00    -0.021 C 
HETATM   12  C   UNL     1      -0.743 -13.916 -40.377  1.00  0.00     0.009 C 
HETATM   13  C   UNL     1       0.015 -14.672 -38.116  1.00  0.00     0.009 C 
ENDBRANCH  10  11
ENDBRANCH   9  10
BRANCH   9  14
HETATM   14  C   UNL     1      -3.256 -13.572 -36.808  1.00  0.00     0.235 C 
HETATM   15  N   UNL     1      -4.268 -12.753 -36.346  1.00  0.00    -0.358 N 
HETATM   16  H   UNL     1      -4.844 -12.368 -37.093  1.00  0.00     0.162 HD
HETATM   17  O   UNL     1      -2.669 -14.387 -36.102  1.00  0.00    -0.272 OA
BRANCH  15  18
HETATM   18  C   UNL     1      -4.948 -13.039 -35.100  1.00  0.00     0.148 C 
BRANCH  18  19
HETATM   19  C   UNL     1      -6.280 -13.744 -35.346  1.00  0.00     0.186 C 
BRANCH  19  20
HETATM   20  O   UNL     1      -6.180 -15.096 -34.877  1.00  0.00    -0.394 OA
HETATM   21  C   UNL     1      -5.256 -15.213 -33.803  1.00  0.00     0.201 C 
ENDBRANCH  19  20
ENDBRANCH  18  19
ENDBRANCH  15  18
ENDBRANCH   9  14
ENDBRANCH   7   9
ENDBRANCH   1   7
BRANCH   3  22
HETATM   22  C   UNL     1      -8.231 -13.365 -40.600  1.00  0.00     0.104 A 
HETATM   23  N   UNL     1      -8.949 -14.506 -40.812  1.00  0.00    -0.257 NA
HETATM   24  C   UNL     1     -10.289 -14.456 -40.659  1.00  0.00     0.117 A 
HETATM   25  C   UNL     1     -10.981 -13.315 -40.295  1.00  0.00     0.019 A 
HETATM   26  C   UNL     1     -10.254 -12.152 -40.080  1.00  0.00     0.004 A 
HETATM   27  C   UNL     1      -8.870 -12.175 -40.234  1.00  0.00     0.036 A 
ENDBRANCH   3  22
BRANCH   5  28
HETATM   28  C   UNL     1      -4.268 -14.853 -43.114  1.00  0.00     0.434 C 
HETATM   29  F   UNL     1      -4.648 -16.148 -43.295  1.00  0.00    -0.165 F 
HETATM   30  F   UNL     1      -4.549 -14.217 -44.290  1.00  0.00    -0.165 F 
HETATM   31  F   UNL     1      -2.903 -14.872 -43.036  1.00  0.00    -0.165 F 
ENDBRANCH   5  28
TORSDOF 10
ENDMDL
MODEL 6
REMARK VINA RESULT:      -6.9      3.742      7.611
REMARK  10 active torsions:
REMARK  status: ('A' for Active; 'I' for Inactive)
REMARK    1  A    between atoms: C_2  and  C_3 
REMARK    2  A    between atoms: C_3  and  C_4 
REMARK    3  A    between atoms: C_4  and  N_5 
REMARK    4  A    between atoms: C_4  and  C_22 
REMARK    5  A    between atoms: N_5  and  C_6 
REMARK    6  A    between atoms: C_8  and  C_9 
REMARK    7  A    between atoms: C_16  and  C_17 
REMARK       I    between atoms: C_22  and  N_23 
REMARK    8  A    between atoms: N_23  and  C_24 
REMARK    9  A    between atoms: C_24  and  C_25 
REMARK   10  A    between atoms: C_25  and  O_26 
ROOT
HETATM    1  C   UNL     1      -5.835   2.446 -32.394  1.00  0.00     0.108 A 
HETATM    2  N   UNL     1      -5.037   3.489 -32.640  1.00  0.00    -0.215 NA
HETATM    3  C   UNL     1      -3.701   3.290 -32.624  1.00  0.00     0.180 A 
HETATM    4  N   UNL     1      -3.129   2.102 -32.350  1.00  0.00    -0.222 NA
HETATM    5  C   UNL     1      -3.949   1.063 -32.074  1.00  0.00     0.146 A 
HETATM    6  C   UNL     1      -5.327   1.199 -32.100  1.00  0.00     0.080 A 
ENDROOT
BRANCH   1   7
HETATM    7  N   UNL     1      -7.233   2.613 -32.371  1.00  0.00    -0.264 NA
HETATM    8  H   UNL     1      -7.603   2.098 -31.577  1.00  0.00     0.130 HD
BRANCH   7   9
HETATM    9  C   UNL     1      -7.928   2.255 -33.640  1.00  0.00     0.154 C 
BRANCH   9  10
HETATM   10  C   UNL     1      -8.529   0.841 -33.524  1.00  0.00     0.033 C 
BRANCH  10  11
HETATM   11  C   UNL     1      -7.966  -0.200 -34.515  1.00  0.00    -0.021 C 
HETATM   12  C   UNL     1      -7.246  -1.355 -33.816  1.00  0.00     0.009 C 
HETATM   13  C   UNL     1      -7.007   0.487 -35.492  1.00  0.00     0.009 C 
ENDBRANCH  10  11
ENDBRANCH   9  10
BRANCH   9  14
HETATM   14  C   UNL     1      -9.092   3.242 -33.920  1.00  0.00     0.235 C 
HETATM   15  N   UNL     1      -9.994   2.782 -34.860  1.00  0.00    -0.358 N 
HETATM   16  H   UNL     1      -9.993   1.768 -34.952  1.00  0.00     0.162 HD
HETATM   17  O   UNL     1      -9.153   4.359 -33.412  1.00  0.00    -0.272 OA
BRANCH  15  18
HETATM   18  C   UNL     1     -11.271   3.439 -35.052  1.00  0.00     0.148 C 
BRANCH  18  19
HETATM   19  C   UNL     1     -12.371   2.755 -34.243  1.00  0.00     0.186 C 
BRANCH  19  20
HETATM   20  O   UNL     1     -13.162   1.949 -35.128  1.00  0.00    -0.394 OA
HETATM   21  C   UNL     1     -13.878   0.944 -34.424  1.00  0.00     0.201 C 
ENDBRANCH  19  20
ENDBRANCH  18  19
ENDBRANCH  15  18
ENDBRANCH   9  14
ENDBRANCH   7   9
ENDBRANCH   1   7
BRANCH   3  22
HETATM   22  C   UNL     1      -2.831   4.449 -32.948  1.00  0.00     0.104 A 
HETATM   23  N   UNL     1      -1.666   4.577 -32.248  1.00  0.00    -0.257 NA
HETATM   24  C   UNL     1      -0.853   5.613 -32.544  1.00  0.00     0.117 A 
HETATM   25  C   UNL     1      -1.128   6.554 -33.519  1.00  0.00     0.019 A 
HETATM   26  C   UNL     1      -2.312   6.429 -34.232  1.00  0.00     0.004 A 
HETATM   27  C   UNL     1      -3.172   5.370 -33.945  1.00  0.00     0.036 A 
ENDBRANCH   3  22
BRANCH   5  28
HETATM   28  C   UNL     1      -3.359  -0.292 -31.730  1.00  0.00     0.434 C 
HETATM   29  F   UNL     1      -2.819  -0.966 -32.782  1.00  0.00    -0.165 F 
HETATM   30  F   UNL     1      -2.366  -0.205 -30.796  1.00  0.00    -0.165 F 
HETATM   31  F   UNL     1      -4.288  -1.134 -31.185  1.00  0.00    -0.165 F 
ENDBRANCH   5  28
TORSDOF 10
ENDMDL
MODEL 7
REMARK VINA RESULT:      -6.9      3.776      5.777
REMARK  10 active torsions:
REMARK  status: ('A' for Active; 'I' for Inactive)
REMARK    1  A    between atoms: C_2  and  C_3 
REMARK    2  A    between atoms: C_3  and  C_4 
REMARK    3  A    between atoms: C_4  and  N_5 
REMARK    4  A    between atoms: C_4  and  C_22 
REMARK    5  A    between atoms: N_5  and  C_6 
REMARK    6  A    between atoms: C_8  and  C_9 
REMARK    7  A    between atoms: C_16  and  C_17 
REMARK       I    between atoms: C_22  and  N_23 
REMARK    8  A    between atoms: N_23  and  C_24 
REMARK    9  A    between atoms: C_24  and  C_25 
REMARK   10  A    between atoms: C_25  and  O_26 
ROOT
HETATM    1  C   UNL     1      -9.271   0.829 -32.495  1.00  0.00     0.108 A 
HETATM    2  N   UNL     1      -8.553  -0.100 -33.135  1.00  0.00    -0.215 NA
HETATM    3  C   UNL     1      -7.247  -0.229 -32.819  1.00  0.00     0.180 A 
HETATM    4  N   UNL     1      -6.622   0.543 -31.909  1.00  0.00    -0.222 NA
HETATM    5  C   UNL     1      -7.353   1.497 -31.291  1.00  0.00     0.146 A 
HETATM    6  C   UNL     1      -8.703   1.661 -31.555  1.00  0.00     0.080 A 
ENDROOT
BRANCH   1   7
HETATM    7  N   UNL     1     -10.629   1.019 -32.813  1.00  0.00    -0.264 NA
HETATM    8  H   UNL     1     -11.106   0.127 -32.721  1.00  0.00     0.130 HD
BRANCH   7   9
HETATM    9  C   UNL     1     -10.881   1.652 -34.138  1.00  0.00     0.154 C 
BRANCH   9  10
HETATM   10  C   UNL     1     -12.329   1.373 -34.583  1.00  0.00     0.033 C 
BRANCH  10  11
HETATM   11  C   UNL     1     -13.271   0.850 -33.478  1.00  0.00    -0.021 C 
HETATM   12  C   UNL     1     -13.653  -0.619 -33.670  1.00  0.00     0.009 C 
HETATM   13  C   UNL     1     -14.539   1.709 -33.435  1.00  0.00     0.009 C 
ENDBRANCH  10  11
ENDBRANCH   9  10
BRANCH   9  14
HETATM   14  C   UNL     1     -10.701   3.191 -34.049  1.00  0.00     0.235 C 
HETATM   15  N   UNL     1     -11.227   3.744 -32.898  1.00  0.00    -0.358 N 
HETATM   16  H   UNL     1     -11.310   3.075 -32.134  1.00  0.00     0.162 HD
HETATM   17  O   UNL     1     -10.211   3.857 -34.958  1.00  0.00    -0.272 OA
BRANCH  15  18
HETATM   18  C   UNL     1     -10.922   5.108 -32.520  1.00  0.00     0.148 C 
BRANCH  18  19
HETATM   19  C   UNL     1      -9.596   5.190 -31.767  1.00  0.00     0.186 C 
BRANCH  19  20
HETATM   20  O   UNL     1      -9.861   5.154 -30.358  1.00  0.00    -0.394 OA
HETATM   21  C   UNL     1      -8.903   5.904 -29.624  1.00  0.00     0.201 C 
ENDBRANCH  19  20
ENDBRANCH  18  19
ENDBRANCH  15  18
ENDBRANCH   9  14
ENDBRANCH   7   9
ENDBRANCH   1   7
BRANCH   3  22
HETATM   22  C   UNL     1      -6.477  -1.299 -33.504  1.00  0.00     0.104 A 
HETATM   23  N   UNL     1      -5.123  -1.306 -33.335  1.00  0.00    -0.257 NA
HETATM   24  C   UNL     1      -4.409  -2.282 -33.934  1.00  0.00     0.117 A 
HETATM   25  C   UNL     1      -4.970  -3.282 -34.708  1.00  0.00     0.019 A 
HETATM   26  C   UNL     1      -6.346  -3.278 -34.883  1.00  0.00     0.004 A 
HETATM   27  C   UNL     1      -7.107  -2.279 -34.279  1.00  0.00     0.036 A 
ENDBRANCH   3  22
BRANCH   5  28
HETATM   28  C   UNL     1      -6.695   2.415 -30.278  1.00  0.00     0.434 C 
HETATM   29  F   UNL     1      -6.097   3.518 -30.808  1.00  0.00    -0.165 F 
HETATM   30  F   UNL     1      -7.580   2.884 -29.349  1.00  0.00    -0.165 F 
HETATM   31  F   UNL     1      -5.726   1.775 -29.557  1.00  0.00    -0.165 F 
ENDBRANCH   5  28
TORSDOF 10
ENDMDL
MODEL 8
REMARK VINA RESULT:      -6.8     14.908     16.732
REMARK  10 active torsions:
REMARK  status: ('A' for Active; 'I' for Inactive)
REMARK    1  A    between atoms: C_2  and  C_3 
REMARK    2  A    between atoms: C_3  and  C_4 
REMARK    3  A    between atoms: C_4  and  N_5 
REMARK    4  A    between atoms: C_4  and  C_22 
REMARK    5  A    between atoms: N_5  and  C_6 
REMARK    6  A    between atoms: C_8  and  C_9 
REMARK    7  A    between atoms: C_16  and  C_17 
REMARK       I    between atoms: C_22  and  N_23 
REMARK    8  A    between atoms: N_23  and  C_24 
REMARK    9  A    between atoms: C_24  and  C_25 
REMARK   10  A    between atoms: C_25  and  O_26 
ROOT
HETATM    1  C   UNL     1      -5.621 -12.647 -39.243  1.00  0.00     0.108 A 
HETATM    2  N   UNL     1      -5.195 -13.367 -40.285  1.00  0.00    -0.215 NA
HETATM    3  C   UNL     1      -6.116 -13.872 -41.133  1.00  0.00     0.180 A 
HETATM    4  N   UNL     1      -7.443 -13.708 -40.974  1.00  0.00    -0.222 NA
HETATM    5  C   UNL     1      -7.861 -13.002 -39.899  1.00  0.00     0.146 A 
HETATM    6  C   UNL     1      -6.963 -12.438 -39.008  1.00  0.00     0.080 A 
ENDROOT
BRANCH   1   7
HETATM    7  N   UNL     1      -4.698 -12.125 -38.316  1.00  0.00    -0.264 NA
HETATM    8  H   UNL     1      -4.299 -11.277 -38.706  1.00  0.00     0.130 HD
BRANCH   7   9
HETATM    9  C   UNL     1      -3.648 -13.083 -37.870  1.00  0.00     0.154 C 
BRANCH   9  10
HETATM   10  C   UNL     1      -2.260 -12.424 -37.984  1.00  0.00     0.033 C 
BRANCH  10  11
HETATM   11  C   UNL     1      -1.245 -13.170 -38.877  1.00  0.00    -0.021 C 
HETATM   12  C   UNL     1      -1.914 -13.951 -40.010  1.00  0.00     0.009 C 
HETATM   13  C   UNL     1      -0.410 -14.124 -38.017  1.00  0.00     0.009 C 
ENDBRANCH  10  11
ENDBRANCH   9  10
BRANCH   9  14
HETATM   14  C   UNL     1      -3.864 -13.476 -36.385  1.00  0.00     0.235 C 
HETATM   15  N   UNL     1      -4.974 -12.886 -35.812  1.00  0.00    -0.358 N 
HETATM   16  H   UNL     1      -5.673 -12.601 -36.495  1.00  0.00     0.162 HD
HETATM   17  O   UNL     1      -3.073 -14.179 -35.761  1.00  0.00    -0.272 OA
BRANCH  15  18
HETATM   18  C   UNL     1      -5.481 -13.336 -34.532  1.00  0.00     0.148 C 
BRANCH  18  19
HETATM   19  C   UNL     1      -7.007 -13.331 -34.508  1.00  0.00     0.186 C 
BRANCH  19  20
HETATM   20  O   UNL     1      -7.456 -14.172 -33.437  1.00  0.00    -0.394 OA
HETATM   21  C   UNL     1      -6.695 -15.369 -33.354  1.00  0.00     0.201 C 
ENDBRANCH  19  20
ENDBRANCH  18  19
ENDBRANCH  15  18
ENDBRANCH   9  14
ENDBRANCH   7   9
ENDBRANCH   1   7
BRANCH   3  22
HETATM   22  C   UNL     1      -5.622 -14.627 -42.313  1.00  0.00     0.104 A 
HETATM   23  N   UNL     1      -6.356 -15.702 -42.724  1.00  0.00    -0.257 NA
HETATM   24  C   UNL     1      -5.932 -16.389 -43.806  1.00  0.00     0.117 A 
HETATM   25  C   UNL     1      -4.798 -16.065 -44.529  1.00  0.00     0.019 A 
HETATM   26  C   UNL     1      -4.048 -14.974 -44.113  1.00  0.00     0.004 A 
HETATM   27  C   UNL     1      -4.460 -14.249 -42.996  1.00  0.00     0.036 A 
ENDBRANCH   3  22
BRANCH   5  28
HETATM   28  C   UNL     1      -9.346 -12.810 -39.653  1.00  0.00     0.434 C 
HETATM   29  F   UNL     1      -9.779 -11.522 -39.738  1.00  0.00    -0.165 F 
HETATM   30  F   UNL     1     -10.114 -13.518 -40.534  1.00  0.00    -0.165 F 
HETATM   31  F   UNL     1      -9.724 -13.250 -38.416  1.00  0.00    -0.165 F 
ENDBRANCH   5  28
TORSDOF 10
ENDMDL
MODEL 9
REMARK VINA RESULT:      -6.7     14.950     17.191
REMARK  10 active torsions:
REMARK  status: ('A' for Active; 'I' for Inactive)
REMARK    1  A    between atoms: C_2  and  C_3 
REMARK    2  A    between atoms: C_3  and  C_4 
REMARK    3  A    between atoms: C_4  and  N_5 
REMARK    4  A    between atoms: C_4  and  C_22 
REMARK    5  A    between atoms: N_5  and  C_6 
REMARK    6  A    between atoms: C_8  and  C_9 
REMARK    7  A    between atoms: C_16  and  C_17 
REMARK       I    between atoms: C_22  and  N_23 
REMARK    8  A    between atoms: N_23  and  C_24 
REMARK    9  A    between atoms: C_24  and  C_25 
REMARK   10  A    between atoms: C_25  and  O_26 
ROOT
HETATM    1  C   UNL     1      -6.758 -14.035 -37.571  1.00  0.00     0.108 A 
HETATM    2  N   UNL     1      -5.475 -14.002 -37.946  1.00  0.00    -0.215 NA
HETATM    3  C   UNL     1      -4.539 -13.766 -37.004  1.00  0.00     0.180 A 
HETATM    4  N   UNL     1      -4.827 -13.540 -35.708  1.00  0.00    -0.222 NA
HETATM    5  C   UNL     1      -6.131 -13.547 -35.347  1.00  0.00     0.146 A 
HETATM    6  C   UNL     1      -7.135 -13.808 -36.265  1.00  0.00     0.080 A 
ENDROOT
BRANCH   1   7
HETATM    7  N   UNL     1      -7.771 -14.249 -38.525  1.00  0.00    -0.264 NA
HETATM    8  H   UNL     1      -7.693 -15.203 -38.865  1.00  0.00     0.130 HD
BRANCH   7   9
HETATM    9  C   UNL     1      -7.803 -13.260 -39.638  1.00  0.00     0.154 C 
BRANCH   9  10
HETATM   10  C   UNL     1      -7.063 -13.831 -40.864  1.00  0.00     0.033 C 
BRANCH  10  11
HETATM   11  C   UNL     1      -5.915 -12.957 -41.410  1.00  0.00    -0.021 C 
HETATM   12  C   UNL     1      -4.590 -13.716 -41.512  1.00  0.00     0.009 C 
HETATM   13  C   UNL     1      -5.735 -11.727 -40.515  1.00  0.00     0.009 C 
ENDBRANCH  10  11
ENDBRANCH   9  10
BRANCH   9  14
HETATM   14  C   UNL     1      -9.265 -12.965 -40.064  1.00  0.00     0.235 C 
HETATM   15  N   UNL     1      -9.909 -14.052 -40.623  1.00  0.00    -0.358 N 
HETATM   16  H   UNL     1      -9.502 -14.944 -40.347  1.00  0.00     0.162 HD
HETATM   17  O   UNL     1      -9.769 -11.847 -39.984  1.00  0.00    -0.272 OA
BRANCH  15  18
HETATM   18  C   UNL     1     -11.343 -14.043 -40.831  1.00  0.00     0.148 C 
BRANCH  18  19
HETATM   19  C   UNL     1     -11.774 -15.183 -41.751  1.00  0.00     0.186 C 
BRANCH  19  20
HETATM   20  O   UNL     1     -13.196 -15.121 -41.928  1.00  0.00    -0.394 OA
HETATM   21  C   UNL     1     -13.663 -16.145 -42.795  1.00  0.00     0.201 C 
ENDBRANCH  19  20
ENDBRANCH  18  19
ENDBRANCH  15  18
ENDBRANCH   9  14
ENDBRANCH   7   9
ENDBRANCH   1   7
BRANCH   3  22
HETATM   22  C   UNL     1      -3.116 -13.781 -37.430  1.00  0.00     0.104 A 
HETATM   23  N   UNL     1      -2.393 -14.910 -37.170  1.00  0.00    -0.257 NA
HETATM   24  C   UNL     1      -1.104 -14.949 -37.568  1.00  0.00     0.117 A 
HETATM   25  C   UNL     1      -0.470 -13.913 -38.230  1.00  0.00     0.019 A 
HETATM   26  C   UNL     1      -1.201 -12.764 -38.496  1.00  0.00     0.004 A 
HETATM   27  C   UNL     1      -2.533 -12.695 -38.092  1.00  0.00     0.036 A 
ENDBRANCH   3  22
BRANCH   5  28
HETATM   28  C   UNL     1      -6.517 -13.270 -33.906  1.00  0.00     0.434 C 
HETATM   29  F   UNL     1      -5.469 -13.148 -33.046  1.00  0.00    -0.165 F 
HETATM   30  F   UNL     1      -7.240 -12.119 -33.775  1.00  0.00    -0.165 F 
HETATM   31  F   UNL     1      -7.313 -14.253 -33.389  1.00  0.00    -0.165 F 
ENDBRANCH   5  28
TORSDOF 10
ENDMDL
MODEL 10
REMARK VINA RESULT:      -6.6      4.115      7.746
REMARK  10 active torsions:
REMARK  status: ('A' for Active; 'I' for Inactive)
REMARK    1  A    between atoms: C_2  and  C_3 
REMARK    2  A    between atoms: C_3  and  C_4 
REMARK    3  A    between atoms: C_4  and  N_5 
REMARK    4  A    between atoms: C_4  and  C_22 
REMARK    5  A    between atoms: N_5  and  C_6 
REMARK    6  A    between atoms: C_8  and  C_9 
REMARK    7  A    between atoms: C_16  and  C_17 
REMARK       I    between atoms: C_22  and  N_23 
REMARK    8  A    between atoms: N_23  and  C_24 
REMARK    9  A    between atoms: C_24  and  C_25 
REMARK   10  A    between atoms: C_25  and  O_26 
ROOT
HETATM    1  C   UNL     1      -5.693   2.619 -33.161  1.00  0.00     0.108 A 
HETATM    2  N   UNL     1      -4.894   3.688 -33.223  1.00  0.00    -0.215 NA
HETATM    3  C   UNL     1      -3.608   3.549 -32.837  1.00  0.00     0.180 A 
HETATM    4  N   UNL     1      -3.091   2.396 -32.371  1.00  0.00    -0.222 NA
HETATM    5  C   UNL     1      -3.919   1.330 -32.286  1.00  0.00     0.146 A 
HETATM    6  C   UNL     1      -5.241   1.405 -32.690  1.00  0.00     0.080 A 
ENDROOT
BRANCH   1   7
HETATM    7  N   UNL     1      -7.049   2.724 -33.525  1.00  0.00    -0.264 NA
HETATM    8  H   UNL     1      -7.230   3.682 -33.810  1.00  0.00     0.130 HD
BRANCH   7   9
HETATM    9  C   UNL     1      -8.015   2.257 -32.491  1.00  0.00     0.154 C 
BRANCH   9  10
HETATM   10  C   UNL     1      -8.775   3.463 -31.906  1.00  0.00     0.033 C 
BRANCH  10  11
HETATM   11  C   UNL     1      -8.702   3.611 -30.372  1.00  0.00    -0.021 C 
HETATM   12  C   UNL     1      -8.896   5.055 -29.905  1.00  0.00     0.009 C 
HETATM   13  C   UNL     1      -7.354   3.085 -29.869  1.00  0.00     0.009 C 
ENDBRANCH  10  11
ENDBRANCH   9  10
BRANCH   9  14
HETATM   14  C   UNL     1      -9.060   1.297 -33.116  1.00  0.00     0.235 C 
HETATM   15  N   UNL     1     -10.369   1.670 -32.875  1.00  0.00    -0.358 N 
HETATM   16  H   UNL     1     -10.470   2.662 -32.669  1.00  0.00     0.162 HD
HETATM   17  O   UNL     1      -8.748   0.260 -33.697  1.00  0.00    -0.272 OA
BRANCH  15  18
HETATM   18  C   UNL     1     -11.464   1.053 -33.594  1.00  0.00     0.148 C 
BRANCH  18  19
HETATM   19  C   UNL     1     -11.908   1.917 -34.773  1.00  0.00     0.186 C 
BRANCH  19  20
HETATM   20  O   UNL     1     -13.109   1.362 -35.326  1.00  0.00    -0.394 OA
HETATM   21  C   UNL     1     -13.998   0.917 -34.311  1.00  0.00     0.201 C 
ENDBRANCH  19  20
ENDBRANCH  18  19
ENDBRANCH  15  18
ENDBRANCH   9  14
ENDBRANCH   7   9
ENDBRANCH   1   7
BRANCH   3  22
HETATM   22  C   UNL     1      -2.722   4.736 -32.960  1.00  0.00     0.104 A 
HETATM   23  N   UNL     1      -3.087   5.703 -33.851  1.00  0.00    -0.257 NA
HETATM   24  C   UNL     1      -2.304   6.798 -33.962  1.00  0.00     0.117 A 
HETATM   25  C   UNL     1      -1.153   7.000 -33.222  1.00  0.00     0.019 A 
HETATM   26  C   UNL     1      -0.778   6.017 -32.317  1.00  0.00     0.004 A 
HETATM   27  C   UNL     1      -1.566   4.875 -32.185  1.00  0.00     0.036 A 
ENDBRANCH   3  22
BRANCH   5  28
HETATM   28  C   UNL     1      -3.399   0.013 -31.740  1.00  0.00     0.434 C 
HETATM   29  F   UNL     1      -4.358  -0.829 -31.266  1.00  0.00    -0.165 F 
HETATM   30  F   UNL     1      -2.709  -0.701 -32.678  1.00  0.00    -0.165 F 
HETATM   31  F   UNL     1      -2.519   0.195 -30.710  1.00  0.00    -0.165 F 
ENDBRANCH   5  28
TORSDOF 10
ENDMDL
