MODEL 1
REMARK VINA RESULT:      -8.6      0.000      0.000
REMARK  12 active torsions:
REMARK  status: ('A' for Active; 'I' for Inactive)
REMARK    1  A    between atoms: C_2  and  N_3 
REMARK    2  A    between atoms: N_3  and  C_5 
REMARK    3  A    between atoms: N_3  and  C_37 
REMARK    4  A    between atoms: C_5  and  C_6 
REMARK    5  A    between atoms: C_6  and  N_7 
REMARK    6  A    between atoms: N_7  and  C_8 
REMARK    7  A    between atoms: N_7  and  C_21 
REMARK    8  A    between atoms: C_8  and  N_9 
REMARK    9  A    between atoms: N_9  and  C_10 
REMARK   10  A    between atoms: C_11  and  C_12 
REMARK   11  A    between atoms: C_12  and  O_13 
REMARK   12  A    between atoms: C_21  and  C_22 
ROOT
HETATM    1  N   UNL     1      -8.668   0.372 -32.837  1.00  0.00    -0.352 N 
ENDROOT
BRANCH   1   2
HETATM    2  C   UNL     1     -10.078  -0.059 -32.891  1.00  0.00     0.153 C 
BRANCH   2   3
HETATM    3  C   UNL     1     -10.955   0.811 -33.816  1.00  0.00     0.254 C 
BRANCH   3   4
HETATM    4  N   UNL     1     -11.903   1.722 -33.024  1.00  0.00    -0.070 N 
HETATM    5  H   UNL     1     -11.800   1.489 -32.027  1.00  0.00     0.279 HD
BRANCH   4   6
HETATM    6  C   UNL     1     -13.357   1.482 -33.405  1.00  0.00     0.230 C 
HETATM    7  C   UNL     1     -13.584   0.037 -33.817  1.00  0.00     0.034 C 
ENDBRANCH   4   6
BRANCH   4   8
HETATM    8  C   UNL     1     -11.520   3.191 -33.192  1.00  0.00     0.230 C 
HETATM    9  C   UNL     1     -11.350   3.541 -34.661  1.00  0.00     0.034 C 
ENDBRANCH   4   8
ENDBRANCH   3   4
ENDBRANCH   2   3
ENDBRANCH   1   2
BRANCH   1  10
HETATM   10  C   UNL     1      -7.696  -0.141 -33.740  1.00  0.00     0.174 C 
HETATM   11  S   UNL     1      -7.527   0.377 -35.335  1.00  0.00    -0.041 SA
BRANCH  10  12
HETATM   12  N   UNL     1      -6.986  -1.199 -33.206  1.00  0.00    -0.332 N 
HETATM   13  H   UNL     1      -6.877  -1.169 -32.191  1.00  0.00     0.168 HD
BRANCH  12  14
HETATM   14  C   UNL     1      -6.404  -2.344 -33.810  1.00  0.00     0.050 A 
HETATM   15  C   UNL     1      -4.992  -2.479 -33.830  1.00  0.00     0.066 A 
HETATM   16  C   UNL     1      -4.405  -3.589 -34.466  1.00  0.00     0.020 A 
HETATM   17  C   UNL     1      -5.198  -4.546 -35.095  1.00  0.00     0.001 A 
HETATM   18  C   UNL     1      -6.580  -4.396 -35.108  1.00  0.00     0.002 A 
HETATM   19  C   UNL     1      -7.176  -3.299 -34.481  1.00  0.00     0.030 A 
BRANCH  15  20
HETATM   20  C   UNL     1      -4.123  -1.417 -33.230  1.00  0.00     0.295 C 
HETATM   21  O   UNL     1      -4.138  -0.248 -33.596  1.00  0.00    -0.259 OA
BRANCH  20  22
HETATM   22  O   UNL     1      -3.314  -1.927 -32.267  1.00  0.00    -0.322 OA
HETATM   23  C   UNL     1      -2.404  -0.984 -31.697  1.00  0.00     0.213 C 
ENDBRANCH  20  22
ENDBRANCH  15  20
ENDBRANCH  12  14
ENDBRANCH  10  12
ENDBRANCH   1  10
BRANCH   1  24
HETATM   24  C   UNL     1      -8.371   1.576 -32.025  1.00  0.00     0.169 C 
BRANCH  24  25
HETATM   25  C   UNL     1      -6.949   2.053 -32.135  1.00  0.00     0.029 A 
HETATM   26  C   UNL     1      -5.908   1.423 -31.264  1.00  0.00     0.253 A 
HETATM   27  O   UNL     1      -6.164   0.500 -30.498  1.00  0.00    -0.268 OA
HETATM   28  N   UNL     1      -4.629   1.900 -31.375  1.00  0.00    -0.322 N 
HETATM   29  C   UNL     1      -4.264   2.975 -32.191  1.00  0.00     0.048 A 
HETATM   30  H   UNL     1      -3.942   1.463 -30.772  1.00  0.00     0.169 HD
HETATM   31  C   UNL     1      -5.243   3.592 -32.978  1.00  0.00    -0.006 A 
HETATM   32  C   UNL     1      -2.947   3.430 -32.199  1.00  0.00     0.070 A 
HETATM   33  C   UNL     1      -4.904   4.699 -33.759  1.00  0.00     0.053 A 
HETATM   34  C   UNL     1      -6.611   3.079 -32.938  1.00  0.00     0.028 A 
HETATM   35  C   UNL     1      -3.595   5.178 -33.745  1.00  0.00     0.103 A 
HETATM   36  C   UNL     1      -2.612   4.527 -32.990  1.00  0.00     0.104 A 
HETATM   37  O   UNL     1      -3.343   6.295 -34.499  1.00  0.00    -0.346 OA
HETATM   38  O   UNL     1      -1.300   4.926 -32.962  1.00  0.00    -0.346 OA
HETATM   39  C   UNL     1      -1.008   5.864 -34.007  1.00  0.00     0.202 C 
HETATM   40  C   UNL     1      -2.106   6.910 -34.115  1.00  0.00     0.202 C 
ENDBRANCH  24  25
ENDBRANCH   1  24
TORSDOF 12
ENDMDL
MODEL 2
REMARK VINA RESULT:      -8.5      2.185      3.330
REMARK  12 active torsions:
REMARK  status: ('A' for Active; 'I' for Inactive)
REMARK    1  A    between atoms: C_2  and  N_3 
REMARK    2  A    between atoms: N_3  and  C_5 
REMARK    3  A    between atoms: N_3  and  C_37 
REMARK    4  A    between atoms: C_5  and  C_6 
REMARK    5  A    between atoms: C_6  and  N_7 
REMARK    6  A    between atoms: N_7  and  C_8 
REMARK    7  A    between atoms: N_7  and  C_21 
REMARK    8  A    between atoms: C_8  and  N_9 
REMARK    9  A    between atoms: N_9  and  C_10 
REMARK   10  A    between atoms: C_11  and  C_12 
REMARK   11  A    between atoms: C_12  and  O_13 
REMARK   12  A    between atoms: C_21  and  C_22 
ROOT
HETATM    1  N   UNL     1      -8.171   1.915 -33.499  1.00  0.00    -0.352 N 
ENDROOT
BRANCH   1   2
HETATM    2  C   UNL     1      -9.453   1.761 -34.212  1.00  0.00     0.153 C 
BRANCH   2   3
HETATM    3  C   UNL     1     -10.459   0.843 -33.486  1.00  0.00     0.254 C 
BRANCH   3   4
HETATM    4  N   UNL     1     -11.722   1.600 -33.052  1.00  0.00    -0.070 N 
HETATM    5  H   UNL     1     -11.877   1.405 -32.054  1.00  0.00     0.279 HD
BRANCH   4   6
HETATM    6  C   UNL     1     -12.950   1.117 -33.811  1.00  0.00     0.230 C 
HETATM    7  C   UNL     1     -13.161  -0.375 -33.618  1.00  0.00     0.034 C 
ENDBRANCH   4   6
BRANCH   4   8
HETATM    8  C   UNL     1     -11.536   3.108 -33.200  1.00  0.00     0.230 C 
HETATM    9  C   UNL     1     -12.832   3.774 -33.632  1.00  0.00     0.034 C 
ENDBRANCH   4   8
ENDBRANCH   3   4
ENDBRANCH   2   3
ENDBRANCH   1   2
BRANCH   1  10
HETATM   10  C   UNL     1      -7.991   1.428 -32.174  1.00  0.00     0.174 C 
HETATM   11  S   UNL     1      -8.266   2.346 -30.788  1.00  0.00    -0.041 SA
BRANCH  10  12
HETATM   12  N   UNL     1      -7.444   0.160 -32.149  1.00  0.00    -0.332 N 
HETATM   13  H   UNL     1      -8.127  -0.598 -32.096  1.00  0.00     0.168 HD
BRANCH  12  14
HETATM   14  C   UNL     1      -6.098  -0.288 -32.213  1.00  0.00     0.050 A 
HETATM   15  C   UNL     1      -5.708  -1.173 -33.251  1.00  0.00     0.066 A 
HETATM   16  C   UNL     1      -4.387  -1.656 -33.297  1.00  0.00     0.020 A 
HETATM   17  C   UNL     1      -3.464  -1.289 -32.320  1.00  0.00     0.001 A 
HETATM   18  C   UNL     1      -3.855  -0.452 -31.282  1.00  0.00     0.002 A 
HETATM   19  C   UNL     1      -5.163   0.036 -31.224  1.00  0.00     0.030 A 
BRANCH  15  20
HETATM   20  C   UNL     1      -6.709  -1.640 -34.262  1.00  0.00     0.295 C 
HETATM   21  O   UNL     1      -7.138  -0.928 -35.162  1.00  0.00    -0.259 OA
BRANCH  20  22
HETATM   22  O   UNL     1      -7.086  -2.921 -34.029  1.00  0.00    -0.322 OA
HETATM   23  C   UNL     1      -6.665  -3.855 -35.024  1.00  0.00     0.213 C 
ENDBRANCH  20  22
ENDBRANCH  15  20
ENDBRANCH  12  14
ENDBRANCH  10  12
ENDBRANCH   1  10
BRANCH   1  24
HETATM   24  C   UNL     1      -6.998   2.308 -34.315  1.00  0.00     0.169 C 
BRANCH  24  25
HETATM   25  C   UNL     1      -6.131   3.358 -33.676  1.00  0.00     0.029 A 
HETATM   26  C   UNL     1      -6.561   4.789 -33.748  1.00  0.00     0.253 A 
HETATM   27  O   UNL     1      -7.618   5.131 -34.269  1.00  0.00    -0.268 OA
HETATM   28  N   UNL     1      -5.735   5.719 -33.177  1.00  0.00    -0.322 N 
HETATM   29  C   UNL     1      -4.496   5.416 -32.604  1.00  0.00     0.048 A 
HETATM   30  H   UNL     1      -6.042   6.682 -33.243  1.00  0.00     0.169 HD
HETATM   31  C   UNL     1      -4.072   4.082 -32.570  1.00  0.00    -0.006 A 
HETATM   32  C   UNL     1      -3.694   6.435 -32.095  1.00  0.00     0.070 A 
HETATM   33  C   UNL     1      -2.815   3.770 -32.047  1.00  0.00     0.053 A 
HETATM   34  C   UNL     1      -4.948   3.047 -33.115  1.00  0.00     0.028 A 
HETATM   35  C   UNL     1      -1.996   4.790 -31.566  1.00  0.00     0.103 A 
HETATM   36  C   UNL     1      -2.445   6.116 -31.563  1.00  0.00     0.104 A 
HETATM   37  O   UNL     1      -0.758   4.418 -31.110  1.00  0.00    -0.346 OA
HETATM   38  O   UNL     1      -1.703   7.159 -31.072  1.00  0.00    -0.346 OA
HETATM   39  C   UNL     1      -0.583   6.699 -30.304  1.00  0.00     0.202 C 
HETATM   40  C   UNL     1       0.118   5.549 -31.010  1.00  0.00     0.202 C 
ENDBRANCH  24  25
ENDBRANCH   1  24
TORSDOF 12
ENDMDL
MODEL 3
REMARK VINA RESULT:      -8.3      1.959      2.774
REMARK  12 active torsions:
REMARK  status: ('A' for Active; 'I' for Inactive)
REMARK    1  A    between atoms: C_2  and  N_3 
REMARK    2  A    between atoms: N_3  and  C_5 
REMARK    3  A    between atoms: N_3  and  C_37 
REMARK    4  A    between atoms: C_5  and  C_6 
REMARK    5  A    between atoms: C_6  and  N_7 
REMARK    6  A    between atoms: N_7  and  C_8 
REMARK    7  A    between atoms: N_7  and  C_21 
REMARK    8  A    between atoms: C_8  and  N_9 
REMARK    9  A    between atoms: N_9  and  C_10 
REMARK   10  A    between atoms: C_11  and  C_12 
REMARK   11  A    between atoms: C_12  and  O_13 
REMARK   12  A    between atoms: C_21  and  C_22 
ROOT
HETATM    1  N   UNL     1      -7.558   1.485 -33.208  1.00  0.00    -0.352 N 
ENDROOT
BRANCH   1   2
HETATM    2  C   UNL     1      -8.982   1.747 -32.928  1.00  0.00     0.153 C 
BRANCH   2   3
HETATM    3  C   UNL     1      -9.713   2.479 -34.074  1.00  0.00     0.254 C 
BRANCH   3   4
HETATM    4  N   UNL     1     -10.884   1.658 -34.630  1.00  0.00    -0.070 N 
HETATM    5  H   UNL     1     -10.507   1.018 -35.342  1.00  0.00     0.279 HD
BRANCH   4   6
HETATM    6  C   UNL     1     -11.916   2.546 -35.310  1.00  0.00     0.230 C 
HETATM    7  C   UNL     1     -11.678   4.011 -34.984  1.00  0.00     0.034 C 
ENDBRANCH   4   6
BRANCH   4   8
HETATM    8  C   UNL     1     -11.522   0.802 -33.538  1.00  0.00     0.230 C 
HETATM    9  C   UNL     1     -12.957   0.452 -33.893  1.00  0.00     0.034 C 
ENDBRANCH   4   8
ENDBRANCH   3   4
ENDBRANCH   2   3
ENDBRANCH   1   2
BRANCH   1  10
HETATM   10  C   UNL     1      -6.925   0.280 -32.796  1.00  0.00     0.174 C 
HETATM   11  S   UNL     1      -6.817  -0.227 -31.192  1.00  0.00    -0.041 SA
BRANCH  10  12
HETATM   12  N   UNL     1      -6.296  -0.369 -33.841  1.00  0.00    -0.332 N 
HETATM   13  H   UNL     1      -6.056   0.231 -34.632  1.00  0.00     0.168 HD
BRANCH  12  14
HETATM   14  C   UNL     1      -5.893  -1.720 -34.005  1.00  0.00     0.050 A 
HETATM   15  C   UNL     1      -4.580  -2.105 -33.631  1.00  0.00     0.066 A 
HETATM   16  C   UNL     1      -4.157  -3.432 -33.832  1.00  0.00     0.020 A 
HETATM   17  C   UNL     1      -5.010  -4.367 -34.414  1.00  0.00     0.001 A 
HETATM   18  C   UNL     1      -6.284  -3.983 -34.815  1.00  0.00     0.002 A 
HETATM   19  C   UNL     1      -6.717  -2.668 -34.622  1.00  0.00     0.030 A 
BRANCH  15  20
HETATM   20  C   UNL     1      -3.624  -1.093 -33.079  1.00  0.00     0.295 C 
HETATM   21  O   UNL     1      -3.092  -0.227 -33.763  1.00  0.00    -0.259 OA
BRANCH  20  22
HETATM   22  O   UNL     1      -3.412  -1.285 -31.753  1.00  0.00    -0.322 OA
HETATM   23  C   UNL     1      -3.039  -0.107 -31.036  1.00  0.00     0.213 C 
ENDBRANCH  20  22
ENDBRANCH  15  20
ENDBRANCH  12  14
ENDBRANCH  10  12
ENDBRANCH   1  10
BRANCH   1  24
HETATM   24  C   UNL     1      -6.900   2.374 -34.196  1.00  0.00     0.169 C 
BRANCH  24  25
HETATM   25  C   UNL     1      -6.017   3.425 -33.582  1.00  0.00     0.029 A 
HETATM   26  C   UNL     1      -6.418   4.862 -33.700  1.00  0.00     0.253 A 
HETATM   27  O   UNL     1      -7.463   5.209 -34.239  1.00  0.00    -0.268 OA
HETATM   28  N   UNL     1      -5.577   5.791 -33.150  1.00  0.00    -0.322 N 
HETATM   29  C   UNL     1      -4.348   5.481 -32.558  1.00  0.00     0.048 A 
HETATM   30  H   UNL     1      -5.864   6.758 -33.247  1.00  0.00     0.169 HD
HETATM   31  C   UNL     1      -3.952   4.141 -32.481  1.00  0.00    -0.006 A 
HETATM   32  C   UNL     1      -3.529   6.499 -32.074  1.00  0.00     0.070 A 
HETATM   33  C   UNL     1      -2.705   3.820 -31.940  1.00  0.00     0.053 A 
HETATM   34  C   UNL     1      -4.845   3.107 -33.002  1.00  0.00     0.028 A 
HETATM   35  C   UNL     1      -1.869   4.838 -31.483  1.00  0.00     0.103 A 
HETATM   36  C   UNL     1      -2.292   6.171 -31.523  1.00  0.00     0.104 A 
HETATM   37  O   UNL     1      -0.642   4.455 -31.007  1.00  0.00    -0.346 OA
HETATM   38  O   UNL     1      -1.532   7.214 -31.058  1.00  0.00    -0.346 OA
HETATM   39  C   UNL     1      -0.427   6.754 -30.268  1.00  0.00     0.202 C 
HETATM   40  C   UNL     1       0.255   5.571 -30.934  1.00  0.00     0.202 C 
ENDBRANCH  24  25
ENDBRANCH   1  24
TORSDOF 12
ENDMDL
MODEL 4
REMARK VINA RESULT:      -8.2      2.453      5.701
REMARK  12 active torsions:
REMARK  status: ('A' for Active; 'I' for Inactive)
REMARK    1  A    between atoms: C_2  and  N_3 
REMARK    2  A    between atoms: N_3  and  C_5 
REMARK    3  A    between atoms: N_3  and  C_37 
REMARK    4  A    between atoms: C_5  and  C_6 
REMARK    5  A    between atoms: C_6  and  N_7 
REMARK    6  A    between atoms: N_7  and  C_8 
REMARK    7  A    between atoms: N_7  and  C_21 
REMARK    8  A    between atoms: C_8  and  N_9 
REMARK    9  A    between atoms: N_9  and  C_10 
REMARK   10  A    between atoms: C_11  and  C_12 
REMARK   11  A    between atoms: C_12  and  O_13 
REMARK   12  A    between atoms: C_21  and  C_22 
ROOT
HETATM    1  N   UNL     1      -7.556   0.936 -33.371  1.00  0.00    -0.352 N 
ENDROOT
BRANCH   1   2
HETATM    2  C   UNL     1      -6.712  -0.237 -33.078  1.00  0.00     0.153 C 
BRANCH   2   3
HETATM    3  C   UNL     1      -6.165  -0.936 -34.341  1.00  0.00     0.254 C 
BRANCH   3   4
HETATM    4  N   UNL     1      -5.596  -2.327 -34.031  1.00  0.00    -0.070 N 
HETATM    5  H   UNL     1      -6.210  -2.768 -33.333  1.00  0.00     0.279 HD
BRANCH   4   6
HETATM    6  C   UNL     1      -4.202  -2.237 -33.426  1.00  0.00     0.230 C 
HETATM    7  C   UNL     1      -3.626  -3.619 -33.169  1.00  0.00     0.034 C 
ENDBRANCH   4   6
BRANCH   4   8
HETATM    8  C   UNL     1      -5.605  -3.214 -35.274  1.00  0.00     0.230 C 
HETATM    9  C   UNL     1      -6.650  -4.310 -35.149  1.00  0.00     0.034 C 
ENDBRANCH   4   8
ENDBRANCH   3   4
ENDBRANCH   2   3
ENDBRANCH   1   2
BRANCH   1  10
HETATM   10  C   UNL     1      -8.645   1.302 -32.530  1.00  0.00     0.174 C 
HETATM   11  S   UNL     1     -10.228   1.499 -33.073  1.00  0.00    -0.041 SA
BRANCH  10  12
HETATM   12  N   UNL     1      -8.240   1.601 -31.244  1.00  0.00    -0.332 N 
HETATM   13  H   UNL     1      -8.370   0.844 -30.570  1.00  0.00     0.168 HD
BRANCH  12  14
HETATM   14  C   UNL     1      -7.645   2.764 -30.690  1.00  0.00     0.050 A 
HETATM   15  C   UNL     1      -6.376   2.666 -30.064  1.00  0.00     0.066 A 
HETATM   16  C   UNL     1      -5.798   3.806 -29.473  1.00  0.00     0.020 A 
HETATM   17  C   UNL     1      -6.472   5.025 -29.479  1.00  0.00     0.001 A 
HETATM   18  C   UNL     1      -7.732   5.114 -30.059  1.00  0.00     0.002 A 
HETATM   19  C   UNL     1      -8.317   3.991 -30.650  1.00  0.00     0.030 A 
BRANCH  15  20
HETATM   20  C   UNL     1      -5.675   1.346 -29.979  1.00  0.00     0.295 C 
HETATM   21  O   UNL     1      -6.164   0.358 -29.444  1.00  0.00    -0.259 OA
BRANCH  20  22
HETATM   22  O   UNL     1      -4.440   1.405 -30.536  1.00  0.00    -0.322 OA
HETATM   23  C   UNL     1      -3.846   0.132 -30.798  1.00  0.00     0.213 C 
ENDBRANCH  20  22
ENDBRANCH  15  20
ENDBRANCH  12  14
ENDBRANCH  10  12
ENDBRANCH   1  10
BRANCH   1  24
HETATM   24  C   UNL     1      -7.043   1.890 -34.383  1.00  0.00     0.169 C 
BRANCH  24  25
HETATM   25  C   UNL     1      -6.255   3.033 -33.804  1.00  0.00     0.029 A 
HETATM   26  C   UNL     1      -6.845   4.407 -33.842  1.00  0.00     0.253 A 
HETATM   27  O   UNL     1      -7.967   4.627 -34.286  1.00  0.00    -0.268 OA
HETATM   28  N   UNL     1      -6.089   5.425 -33.328  1.00  0.00    -0.322 N 
HETATM   29  C   UNL     1      -4.787   5.265 -32.843  1.00  0.00     0.048 A 
HETATM   30  H   UNL     1      -6.505   6.348 -33.369  1.00  0.00     0.169 HD
HETATM   31  C   UNL     1      -4.217   3.986 -32.842  1.00  0.00    -0.006 A 
HETATM   32  C   UNL     1      -4.070   6.369 -32.389  1.00  0.00     0.070 A 
HETATM   33  C   UNL     1      -2.900   3.819 -32.409  1.00  0.00     0.053 A 
HETATM   34  C   UNL     1      -5.009   2.858 -33.327  1.00  0.00     0.028 A 
HETATM   35  C   UNL     1      -2.167   4.926 -31.984  1.00  0.00     0.103 A 
HETATM   36  C   UNL     1      -2.760   6.193 -31.946  1.00  0.00     0.104 A 
HETATM   37  O   UNL     1      -0.867   4.696 -31.617  1.00  0.00    -0.346 OA
HETATM   38  O   UNL     1      -2.106   7.315 -31.506  1.00  0.00    -0.346 OA
HETATM   39  C   UNL     1      -0.890   6.986 -30.820  1.00  0.00     0.202 C 
HETATM   40  C   UNL     1      -0.117   5.917 -31.576  1.00  0.00     0.202 C 
ENDBRANCH  24  25
ENDBRANCH   1  24
TORSDOF 12
ENDMDL
MODEL 5
REMARK VINA RESULT:      -8.2      2.504      6.075
REMARK  12 active torsions:
REMARK  status: ('A' for Active; 'I' for Inactive)
REMARK    1  A    between atoms: C_2  and  N_3 
REMARK    2  A    between atoms: N_3  and  C_5 
REMARK    3  A    between atoms: N_3  and  C_37 
REMARK    4  A    between atoms: C_5  and  C_6 
REMARK    5  A    between atoms: C_6  and  N_7 
REMARK    6  A    between atoms: N_7  and  C_8 
REMARK    7  A    between atoms: N_7  and  C_21 
REMARK    8  A    between atoms: C_8  and  N_9 
REMARK    9  A    between atoms: N_9  and  C_10 
REMARK   10  A    between atoms: C_11  and  C_12 
REMARK   11  A    between atoms: C_12  and  O_13 
REMARK   12  A    between atoms: C_21  and  C_22 
ROOT
HETATM    1  N   UNL     1      -7.208   0.039 -32.408  1.00  0.00    -0.352 N 
ENDROOT
BRANCH   1   2
HETATM    2  C   UNL     1      -6.464  -1.084 -33.009  1.00  0.00     0.153 C 
BRANCH   2   3
HETATM    3  C   UNL     1      -5.167  -0.653 -33.725  1.00  0.00     0.254 C 
BRANCH   3   4
HETATM    4  N   UNL     1      -4.123  -1.777 -33.754  1.00  0.00    -0.070 N 
HETATM    5  H   UNL     1      -3.329  -1.453 -34.322  1.00  0.00     0.279 HD
BRANCH   4   6
HETATM    6  C   UNL     1      -4.675  -3.035 -34.411  1.00  0.00     0.230 C 
HETATM    7  C   UNL     1      -3.876  -4.261 -34.003  1.00  0.00     0.034 C 
ENDBRANCH   4   6
BRANCH   4   8
HETATM    8  C   UNL     1      -3.593  -2.070 -32.352  1.00  0.00     0.230 C 
HETATM    9  C   UNL     1      -2.708  -0.937 -31.860  1.00  0.00     0.034 C 
ENDBRANCH   4   8
ENDBRANCH   3   4
ENDBRANCH   2   3
ENDBRANCH   1   2
BRANCH   1  10
HETATM   10  C   UNL     1      -8.378   0.572 -33.018  1.00  0.00     0.174 C 
HETATM   11  S   UNL     1      -9.938   0.017 -32.708  1.00  0.00    -0.041 SA
BRANCH  10  12
HETATM   12  N   UNL     1      -8.085   1.510 -33.989  1.00  0.00    -0.332 N 
HETATM   13  H   UNL     1      -8.391   1.259 -34.930  1.00  0.00     0.168 HD
BRANCH  12  14
HETATM   14  C   UNL     1      -7.460   2.782 -33.912  1.00  0.00     0.050 A 
HETATM   15  C   UNL     1      -8.241   3.926 -33.606  1.00  0.00     0.066 A 
HETATM   16  C   UNL     1      -7.638   5.196 -33.571  1.00  0.00     0.020 A 
HETATM   17  C   UNL     1      -6.282   5.344 -33.856  1.00  0.00     0.001 A 
HETATM   18  C   UNL     1      -5.522   4.230 -34.192  1.00  0.00     0.002 A 
HETATM   19  C   UNL     1      -6.108   2.962 -34.231  1.00  0.00     0.030 A 
BRANCH  15  20
HETATM   20  C   UNL     1      -9.716   3.794 -33.377  1.00  0.00     0.295 C 
HETATM   21  O   UNL     1     -10.235   3.881 -32.270  1.00  0.00    -0.259 OA
BRANCH  20  22
HETATM   22  O   UNL     1     -10.375   3.540 -34.534  1.00  0.00    -0.322 OA
HETATM   23  C   UNL     1     -11.668   2.957 -34.365  1.00  0.00     0.213 C 
ENDBRANCH  20  22
ENDBRANCH  15  20
ENDBRANCH  12  14
ENDBRANCH  10  12
ENDBRANCH   1  10
BRANCH   1  24
HETATM   24  C   UNL     1      -6.879   0.380 -31.003  1.00  0.00     0.169 C 
BRANCH  24  25
HETATM   25  C   UNL     1      -6.170   1.696 -30.842  1.00  0.00     0.029 A 
HETATM   26  C   UNL     1      -6.951   2.883 -30.372  1.00  0.00     0.253 A 
HETATM   27  O   UNL     1      -8.137   2.809 -30.069  1.00  0.00    -0.268 OA
HETATM   28  N   UNL     1      -6.277   4.069 -30.261  1.00  0.00    -0.322 N 
HETATM   29  C   UNL     1      -4.939   4.246 -30.626  1.00  0.00     0.048 A 
HETATM   30  H   UNL     1      -6.826   4.861 -29.947  1.00  0.00     0.169 HD
HETATM   31  C   UNL     1      -4.216   3.146 -31.104  1.00  0.00    -0.006 A 
HETATM   32  C   UNL     1      -4.349   5.504 -30.532  1.00  0.00     0.070 A 
HETATM   33  C   UNL     1      -2.895   3.318 -31.521  1.00  0.00     0.053 A 
HETATM   34  C   UNL     1      -4.877   1.845 -31.184  1.00  0.00     0.028 A 
HETATM   35  C   UNL     1      -2.310   4.583 -31.459  1.00  0.00     0.103 A 
HETATM   36  C   UNL     1      -3.026   5.667 -30.938  1.00  0.00     0.104 A 
HETATM   37  O   UNL     1      -1.026   4.688 -31.927  1.00  0.00    -0.346 OA
HETATM   38  O   UNL     1      -2.497   6.926 -30.816  1.00  0.00    -0.346 OA
HETATM   39  C   UNL     1      -1.074   6.924 -30.990  1.00  0.00     0.202 C 
HETATM   40  C   UNL     1      -0.677   6.057 -32.173  1.00  0.00     0.202 C 
ENDBRANCH  24  25
ENDBRANCH   1  24
TORSDOF 12
ENDMDL
MODEL 6
REMARK VINA RESULT:      -7.9      2.826      7.592
REMARK  12 active torsions:
REMARK  status: ('A' for Active; 'I' for Inactive)
REMARK    1  A    between atoms: C_2  and  N_3 
REMARK    2  A    between atoms: N_3  and  C_5 
REMARK    3  A    between atoms: N_3  and  C_37 
REMARK    4  A    between atoms: C_5  and  C_6 
REMARK    5  A    between atoms: C_6  and  N_7 
REMARK    6  A    between atoms: N_7  and  C_8 
REMARK    7  A    between atoms: N_7  and  C_21 
REMARK    8  A    between atoms: C_8  and  N_9 
REMARK    9  A    between atoms: N_9  and  C_10 
REMARK   10  A    between atoms: C_11  and  C_12 
REMARK   11  A    between atoms: C_12  and  O_13 
REMARK   12  A    between atoms: C_21  and  C_22 
ROOT
HETATM    1  N   UNL     1      -5.459   4.952 -31.423  1.00  0.00    -0.352 N 
ENDROOT
BRANCH   1   2
HETATM    2  C   UNL     1      -6.700   4.960 -32.219  1.00  0.00     0.153 C 
BRANCH   2   3
HETATM    3  C   UNL     1      -7.974   4.717 -31.382  1.00  0.00     0.254 C 
BRANCH   3   4
HETATM    4  N   UNL     1      -9.071   4.013 -32.191  1.00  0.00    -0.070 N 
HETATM    5  H   UNL     1      -9.934   4.563 -32.093  1.00  0.00     0.279 HD
BRANCH   4   6
HETATM    6  C   UNL     1      -9.350   2.616 -31.656  1.00  0.00     0.230 C 
HETATM    7  C   UNL     1      -9.973   1.734 -32.725  1.00  0.00     0.034 C 
ENDBRANCH   4   6
BRANCH   4   8
HETATM    8  C   UNL     1      -8.719   3.978 -33.677  1.00  0.00     0.230 C 
HETATM    9  C   UNL     1      -9.595   4.938 -34.464  1.00  0.00     0.034 C 
ENDBRANCH   4   8
ENDBRANCH   3   4
ENDBRANCH   2   3
ENDBRANCH   1   2
BRANCH   1  10
HETATM   10  C   UNL     1      -4.642   6.110 -31.297  1.00  0.00     0.174 C 
HETATM   11  S   UNL     1      -5.238   7.649 -30.955  1.00  0.00    -0.041 SA
BRANCH  10  12
HETATM   12  N   UNL     1      -3.321   5.861 -31.612  1.00  0.00    -0.332 N 
HETATM   13  H   UNL     1      -3.183   5.239 -32.411  1.00  0.00     0.168 HD
BRANCH  12  14
HETATM   14  C   UNL     1      -2.111   6.338 -31.044  1.00  0.00     0.050 A 
HETATM   15  C   UNL     1      -1.050   6.737 -31.898  1.00  0.00     0.066 A 
HETATM   16  C   UNL     1       0.168   7.170 -31.343  1.00  0.00     0.020 A 
HETATM   17  C   UNL     1       0.350   7.189 -29.961  1.00  0.00     0.001 A 
HETATM   18  C   UNL     1      -0.674   6.763 -29.124  1.00  0.00     0.002 A 
HETATM   19  C   UNL     1      -1.890   6.331 -29.662  1.00  0.00     0.030 A 
BRANCH  15  20
HETATM   20  C   UNL     1      -1.202   6.646 -33.385  1.00  0.00     0.295 C 
HETATM   21  O   UNL     1      -1.361   7.623 -34.106  1.00  0.00    -0.259 OA
BRANCH  20  22
HETATM   22  O   UNL     1      -1.170   5.357 -33.807  1.00  0.00    -0.322 OA
HETATM   23  C   UNL     1      -1.926   5.102 -34.991  1.00  0.00     0.213 C 
ENDBRANCH  20  22
ENDBRANCH  15  20
ENDBRANCH  12  14
ENDBRANCH  10  12
ENDBRANCH   1  10
BRANCH   1  24
HETATM   24  C   UNL     1      -5.261   3.798 -30.512  1.00  0.00     0.169 C 
BRANCH  24  25
HETATM   25  C   UNL     1      -4.918   2.514 -31.216  1.00  0.00     0.029 A 
HETATM   26  C   UNL     1      -3.494   2.259 -31.598  1.00  0.00     0.253 A 
HETATM   27  O   UNL     1      -2.590   3.039 -31.317  1.00  0.00    -0.268 OA
HETATM   28  N   UNL     1      -3.224   1.091 -32.259  1.00  0.00    -0.322 N 
HETATM   29  C   UNL     1      -4.202   0.172 -32.653  1.00  0.00     0.048 A 
HETATM   30  H   UNL     1      -2.255   0.942 -32.514  1.00  0.00     0.169 HD
HETATM   31  C   UNL     1      -5.541   0.427 -32.331  1.00  0.00    -0.006 A 
HETATM   32  C   UNL     1      -3.842  -0.965 -33.372  1.00  0.00     0.070 A 
HETATM   33  C   UNL     1      -6.533  -0.455 -32.763  1.00  0.00     0.053 A 
HETATM   34  C   UNL     1      -5.870   1.633 -31.574  1.00  0.00     0.028 A 
HETATM   35  C   UNL     1      -6.181  -1.578 -33.510  1.00  0.00     0.103 A 
HETATM   36  C   UNL     1      -4.837  -1.848 -33.789  1.00  0.00     0.104 A 
HETATM   37  O   UNL     1      -7.210  -2.376 -33.940  1.00  0.00    -0.346 OA
HETATM   38  O   UNL     1      -4.422  -2.953 -34.488  1.00  0.00    -0.346 OA
HETATM   39  C   UNL     1      -5.470  -3.922 -34.620  1.00  0.00     0.202 C 
HETATM   40  C   UNL     1      -6.782  -3.250 -34.993  1.00  0.00     0.202 C 
ENDBRANCH  24  25
ENDBRANCH   1  24
TORSDOF 12
ENDMDL
MODEL 7
REMARK VINA RESULT:      -7.9      2.888      6.389
REMARK  12 active torsions:
REMARK  status: ('A' for Active; 'I' for Inactive)
REMARK    1  A    between atoms: C_2  and  N_3 
REMARK    2  A    between atoms: N_3  and  C_5 
REMARK    3  A    between atoms: N_3  and  C_37 
REMARK    4  A    between atoms: C_5  and  C_6 
REMARK    5  A    between atoms: C_6  and  N_7 
REMARK    6  A    between atoms: N_7  and  C_8 
REMARK    7  A    between atoms: N_7  and  C_21 
REMARK    8  A    between atoms: C_8  and  N_9 
REMARK    9  A    between atoms: N_9  and  C_10 
REMARK   10  A    between atoms: C_11  and  C_12 
REMARK   11  A    between atoms: C_12  and  O_13 
REMARK   12  A    between atoms: C_21  and  C_22 
ROOT
HETATM    1  N   UNL     1      -7.774   1.630 -33.244  1.00  0.00    -0.352 N 
ENDROOT
BRANCH   1   2
HETATM    2  C   UNL     1      -7.265   0.496 -32.451  1.00  0.00     0.153 C 
BRANCH   2   3
HETATM    3  C   UNL     1      -6.637  -0.625 -33.307  1.00  0.00     0.254 C 
BRANCH   3   4
HETATM    4  N   UNL     1      -5.117  -0.717 -33.112  1.00  0.00    -0.070 N 
HETATM    5  H   UNL     1      -4.697   0.126 -33.526  1.00  0.00     0.279 HD
BRANCH   4   6
HETATM    6  C   UNL     1      -4.534  -1.923 -33.834  1.00  0.00     0.230 C 
HETATM    7  C   UNL     1      -5.600  -2.646 -34.641  1.00  0.00     0.034 C 
ENDBRANCH   4   6
BRANCH   4   8
HETATM    8  C   UNL     1      -4.754  -0.729 -31.629  1.00  0.00     0.230 C 
HETATM    9  C   UNL     1      -3.425  -0.030 -31.392  1.00  0.00     0.034 C 
ENDBRANCH   4   8
ENDBRANCH   3   4
ENDBRANCH   2   3
ENDBRANCH   1   2
BRANCH   1  10
HETATM   10  C   UNL     1      -8.998   2.280 -32.919  1.00  0.00     0.174 C 
HETATM   11  S   UNL     1      -9.342   2.935 -31.405  1.00  0.00    -0.041 SA
BRANCH  10  12
HETATM   12  N   UNL     1      -9.923   2.205 -33.942  1.00  0.00    -0.332 N 
HETATM   13  H   UNL     1      -9.638   2.666 -34.808  1.00  0.00     0.168 HD
BRANCH  12  14
HETATM   14  C   UNL     1     -11.192   1.574 -34.020  1.00  0.00     0.050 A 
HETATM   15  C   UNL     1     -12.282   2.271 -34.601  1.00  0.00     0.066 A 
HETATM   16  C   UNL     1     -13.553   1.670 -34.643  1.00  0.00     0.020 A 
HETATM   17  C   UNL     1     -13.755   0.402 -34.101  1.00  0.00     0.001 A 
HETATM   18  C   UNL     1     -12.697  -0.267 -33.498  1.00  0.00     0.002 A 
HETATM   19  C   UNL     1     -11.429   0.318 -33.450  1.00  0.00     0.030 A 
BRANCH  15  20
HETATM   20  C   UNL     1     -12.099   3.666 -35.116  1.00  0.00     0.295 C 
HETATM   21  O   UNL     1     -11.204   3.985 -35.889  1.00  0.00    -0.259 OA
BRANCH  20  22
HETATM   22  O   UNL     1     -13.023   4.510 -34.594  1.00  0.00    -0.322 OA
HETATM   23  C   UNL     1     -12.622   5.154 -33.383  1.00  0.00     0.213 C 
ENDBRANCH  20  22
ENDBRANCH  15  20
ENDBRANCH  12  14
ENDBRANCH  10  12
ENDBRANCH   1  10
BRANCH   1  24
HETATM   24  C   UNL     1      -6.823   2.262 -34.189  1.00  0.00     0.169 C 
BRANCH  24  25
HETATM   25  C   UNL     1      -5.970   3.337 -33.572  1.00  0.00     0.029 A 
HETATM   26  C   UNL     1      -6.397   4.765 -33.712  1.00  0.00     0.253 A 
HETATM   27  O   UNL     1      -7.441   5.085 -34.270  1.00  0.00    -0.268 OA
HETATM   28  N   UNL     1      -5.584   5.716 -33.158  1.00  0.00    -0.322 N 
HETATM   29  C   UNL     1      -4.359   5.437 -32.544  1.00  0.00     0.048 A 
HETATM   30  H   UNL     1      -5.889   6.676 -33.270  1.00  0.00     0.169 HD
HETATM   31  C   UNL     1      -3.937   4.106 -32.447  1.00  0.00    -0.006 A 
HETATM   32  C   UNL     1      -3.569   6.476 -32.058  1.00  0.00     0.070 A 
HETATM   33  C   UNL     1      -2.694   3.815 -31.882  1.00  0.00     0.053 A 
HETATM   34  C   UNL     1      -4.801   3.049 -32.970  1.00  0.00     0.028 A 
HETATM   35  C   UNL     1      -1.885   4.854 -31.423  1.00  0.00     0.103 A 
HETATM   36  C   UNL     1      -2.334   6.178 -31.484  1.00  0.00     0.104 A 
HETATM   37  O   UNL     1      -0.658   4.501 -30.923  1.00  0.00    -0.346 OA
HETATM   38  O   UNL     1      -1.603   7.241 -31.017  1.00  0.00    -0.346 OA
HETATM   39  C   UNL     1      -0.501   6.812 -30.206  1.00  0.00     0.202 C 
HETATM   40  C   UNL     1       0.215   5.635 -30.848  1.00  0.00     0.202 C 
ENDBRANCH  24  25
ENDBRANCH   1  24
TORSDOF 12
ENDMDL
MODEL 8
REMARK VINA RESULT:      -7.9      2.687      7.756
REMARK  12 active torsions:
REMARK  status: ('A' for Active; 'I' for Inactive)
REMARK    1  A    between atoms: C_2  and  N_3 
REMARK    2  A    between atoms: N_3  and  C_5 
REMARK    3  A    between atoms: N_3  and  C_37 
REMARK    4  A    between atoms: C_5  and  C_6 
REMARK    5  A    between atoms: C_6  and  N_7 
REMARK    6  A    between atoms: N_7  and  C_8 
REMARK    7  A    between atoms: N_7  and  C_21 
REMARK    8  A    between atoms: C_8  and  N_9 
REMARK    9  A    between atoms: N_9  and  C_10 
REMARK   10  A    between atoms: C_11  and  C_12 
REMARK   11  A    between atoms: C_12  and  O_13 
REMARK   12  A    between atoms: C_21  and  C_22 
ROOT
HETATM    1  N   UNL     1      -5.902   4.273 -32.009  1.00  0.00    -0.352 N 
ENDROOT
BRANCH   1   2
HETATM    2  C   UNL     1      -5.505   5.682 -31.822  1.00  0.00     0.153 C 
BRANCH   2   3
HETATM    3  C   UNL     1      -4.183   5.854 -31.043  1.00  0.00     0.254 C 
BRANCH   3   4
HETATM    4  N   UNL     1      -2.955   5.601 -31.928  1.00  0.00    -0.070 N 
HETATM    5  H   UNL     1      -2.965   4.609 -32.202  1.00  0.00     0.279 HD
BRANCH   4   6
HETATM    6  C   UNL     1      -1.660   5.857 -31.172  1.00  0.00     0.230 C 
HETATM    7  C   UNL     1      -0.998   7.143 -31.637  1.00  0.00     0.034 C 
ENDBRANCH   4   6
BRANCH   4   8
HETATM    8  C   UNL     1      -3.022   6.429 -33.210  1.00  0.00     0.230 C 
HETATM    9  C   UNL     1      -2.719   5.570 -34.426  1.00  0.00     0.034 C 
ENDBRANCH   4   8
ENDBRANCH   3   4
ENDBRANCH   2   3
ENDBRANCH   1   2
BRANCH   1  10
HETATM   10  C   UNL     1      -6.759   3.610 -31.087  1.00  0.00     0.174 C 
HETATM   11  S   UNL     1      -6.219   2.828 -29.695  1.00  0.00    -0.041 SA
BRANCH  10  12
HETATM   12  N   UNL     1      -8.069   3.566 -31.523  1.00  0.00    -0.332 N 
HETATM   13  H   UNL     1      -8.615   4.403 -31.312  1.00  0.00     0.168 HD
BRANCH  12  14
HETATM   14  C   UNL     1      -8.791   2.578 -32.241  1.00  0.00     0.050 A 
HETATM   15  C   UNL     1      -9.494   2.946 -33.417  1.00  0.00     0.066 A 
HETATM   16  C   UNL     1     -10.248   1.982 -34.111  1.00  0.00     0.020 A 
HETATM   17  C   UNL     1     -10.327   0.673 -33.642  1.00  0.00     0.001 A 
HETATM   18  C   UNL     1      -9.669   0.319 -32.470  1.00  0.00     0.002 A 
HETATM   19  C   UNL     1      -8.916   1.266 -31.771  1.00  0.00     0.030 A 
BRANCH  15  20
HETATM   20  C   UNL     1      -9.484   4.368 -33.889  1.00  0.00     0.295 C 
HETATM   21  O   UNL     1      -8.474   4.939 -34.282  1.00  0.00    -0.259 OA
BRANCH  20  22
HETATM   22  O   UNL     1     -10.715   4.928 -33.794  1.00  0.00    -0.322 OA
HETATM   23  C   UNL     1     -10.983   5.565 -32.543  1.00  0.00     0.213 C 
ENDBRANCH  20  22
ENDBRANCH  15  20
ENDBRANCH  12  14
ENDBRANCH  10  12
ENDBRANCH   1  10
BRANCH   1  24
HETATM   24  C   UNL     1      -5.634   3.678 -33.340  1.00  0.00     0.169 C 
BRANCH  24  25
HETATM   25  C   UNL     1      -5.245   2.225 -33.294  1.00  0.00     0.029 A 
HETATM   26  C   UNL     1      -3.923   1.852 -32.701  1.00  0.00     0.253 A 
HETATM   27  O   UNL     1      -3.167   2.682 -32.209  1.00  0.00    -0.268 OA
HETATM   28  N   UNL     1      -3.593   0.523 -32.699  1.00  0.00    -0.322 N 
HETATM   29  C   UNL     1      -4.379  -0.478 -33.277  1.00  0.00     0.048 A 
HETATM   30  H   UNL     1      -2.692   0.293 -32.298  1.00  0.00     0.169 HD
HETATM   31  C   UNL     1      -5.599  -0.127 -33.868  1.00  0.00    -0.006 A 
HETATM   32  C   UNL     1      -3.938  -1.800 -33.278  1.00  0.00     0.070 A 
HETATM   33  C   UNL     1      -6.370  -1.108 -34.495  1.00  0.00     0.053 A 
HETATM   34  C   UNL     1      -6.021   1.272 -33.842  1.00  0.00     0.028 A 
HETATM   35  C   UNL     1      -5.917  -2.426 -34.526  1.00  0.00     0.103 A 
HETATM   36  C   UNL     1      -4.718  -2.776 -33.894  1.00  0.00     0.104 A 
HETATM   37  O   UNL     1      -6.701  -3.328 -35.197  1.00  0.00    -0.346 OA
HETATM   38  O   UNL     1      -4.236  -4.060 -33.858  1.00  0.00    -0.346 OA
HETATM   39  C   UNL     1      -5.229  -5.012 -34.260  1.00  0.00     0.202 C 
HETATM   40  C   UNL     1      -5.972  -4.526 -35.494  1.00  0.00     0.202 C 
ENDBRANCH  24  25
ENDBRANCH   1  24
TORSDOF 12
ENDMDL
MODEL 9
REMARK VINA RESULT:      -7.9      2.909      6.451
REMARK  12 active torsions:
REMARK  status: ('A' for Active; 'I' for Inactive)
REMARK    1  A    between atoms: C_2  and  N_3 
REMARK    2  A    between atoms: N_3  and  C_5 
REMARK    3  A    between atoms: N_3  and  C_37 
REMARK    4  A    between atoms: C_5  and  C_6 
REMARK    5  A    between atoms: C_6  and  N_7 
REMARK    6  A    between atoms: N_7  and  C_8 
REMARK    7  A    between atoms: N_7  and  C_21 
REMARK    8  A    between atoms: C_8  and  N_9 
REMARK    9  A    between atoms: N_9  and  C_10 
REMARK   10  A    between atoms: C_11  and  C_12 
REMARK   11  A    between atoms: C_12  and  O_13 
REMARK   12  A    between atoms: C_21  and  C_22 
ROOT
HETATM    1  N   UNL     1      -7.569   1.105 -33.093  1.00  0.00    -0.352 N 
ENDROOT
BRANCH   1   2
HETATM    2  C   UNL     1      -6.807  -0.031 -32.541  1.00  0.00     0.153 C 
BRANCH   2   3
HETATM    3  C   UNL     1      -6.424  -1.091 -33.597  1.00  0.00     0.254 C 
BRANCH   3   4
HETATM    4  N   UNL     1      -5.055  -1.722 -33.311  1.00  0.00    -0.070 N 
HETATM    5  H   UNL     1      -5.108  -2.181 -32.392  1.00  0.00     0.279 HD
BRANCH   4   6
HETATM    6  C   UNL     1      -3.959  -0.668 -33.236  1.00  0.00     0.230 C 
HETATM    7  C   UNL     1      -3.270  -0.690 -31.882  1.00  0.00     0.034 C 
ENDBRANCH   4   6
BRANCH   4   8
HETATM    8  C   UNL     1      -4.720  -2.798 -34.342  1.00  0.00     0.230 C 
HETATM    9  C   UNL     1      -3.868  -3.893 -33.724  1.00  0.00     0.034 C 
ENDBRANCH   4   8
ENDBRANCH   3   4
ENDBRANCH   2   3
ENDBRANCH   1   2
BRANCH   1  10
HETATM   10  C   UNL     1      -8.757   1.579 -32.472  1.00  0.00     0.174 C 
HETATM   11  S   UNL     1     -10.191   1.895 -33.301  1.00  0.00    -0.041 SA
BRANCH  10  12
HETATM   12  N   UNL     1      -8.573   1.874 -31.135  1.00  0.00    -0.332 N 
HETATM   13  H   UNL     1      -9.083   1.268 -30.491  1.00  0.00     0.168 HD
BRANCH  12  14
HETATM   14  C   UNL     1      -7.774   2.852 -30.488  1.00  0.00     0.050 A 
HETATM   15  C   UNL     1      -8.257   4.181 -30.372  1.00  0.00     0.066 A 
HETATM   16  C   UNL     1      -7.453   5.167 -29.771  1.00  0.00     0.020 A 
HETATM   17  C   UNL     1      -6.177   4.854 -29.306  1.00  0.00     0.001 A 
HETATM   18  C   UNL     1      -5.688   3.561 -29.451  1.00  0.00     0.002 A 
HETATM   19  C   UNL     1      -6.475   2.572 -30.046  1.00  0.00     0.030 A 
BRANCH  15  20
HETATM   20  C   UNL     1      -9.593   4.552 -30.939  1.00  0.00     0.295 C 
HETATM   21  O   UNL     1      -9.735   5.353 -31.855  1.00  0.00    -0.259 OA
BRANCH  20  22
HETATM   22  O   UNL     1     -10.599   3.915 -30.291  1.00  0.00    -0.322 OA
HETATM   23  C   UNL     1     -11.908   4.247 -30.755  1.00  0.00     0.213 C 
ENDBRANCH  20  22
ENDBRANCH  15  20
ENDBRANCH  12  14
ENDBRANCH  10  12
ENDBRANCH   1  10
BRANCH   1  24
HETATM   24  C   UNL     1      -6.888   1.923 -34.125  1.00  0.00     0.169 C 
BRANCH  24  25
HETATM   25  C   UNL     1      -6.068   3.054 -33.567  1.00  0.00     0.029 A 
HETATM   26  C   UNL     1      -6.578   4.454 -33.714  1.00  0.00     0.253 A 
HETATM   27  O   UNL     1      -7.660   4.707 -34.232  1.00  0.00    -0.268 OA
HETATM   28  N   UNL     1      -5.793   5.459 -33.216  1.00  0.00    -0.322 N 
HETATM   29  C   UNL     1      -4.530   5.258 -32.652  1.00  0.00     0.048 A 
HETATM   30  H   UNL     1      -6.154   6.399 -33.332  1.00  0.00     0.169 HD
HETATM   31  C   UNL     1      -4.033   3.953 -32.549  1.00  0.00    -0.006 A 
HETATM   32  C   UNL     1      -3.776   6.347 -32.221  1.00  0.00     0.070 A 
HETATM   33  C   UNL     1      -2.752   3.741 -32.035  1.00  0.00     0.053 A 
HETATM   34  C   UNL     1      -4.861   2.842 -33.013  1.00  0.00     0.028 A 
HETATM   35  C   UNL     1      -1.981   4.831 -31.632  1.00  0.00     0.103 A 
HETATM   36  C   UNL     1      -2.503   6.128 -31.698  1.00  0.00     0.104 A 
HETATM   37  O   UNL     1      -0.717   4.554 -31.181  1.00  0.00    -0.346 OA
HETATM   38  O   UNL     1      -1.810   7.237 -31.285  1.00  0.00    -0.346 OA
HETATM   39  C   UNL     1      -0.653   6.885 -30.515  1.00  0.00     0.202 C 
HETATM   40  C   UNL     1       0.097   5.734 -31.167  1.00  0.00     0.202 C 
ENDBRANCH  24  25
ENDBRANCH   1  24
TORSDOF 12
ENDMDL
MODEL 10
REMARK VINA RESULT:      -7.8      2.462      6.848
REMARK  12 active torsions:
REMARK  status: ('A' for Active; 'I' for Inactive)
REMARK    1  A    between atoms: C_2  and  N_3 
REMARK    2  A    between atoms: N_3  and  C_5 
REMARK    3  A    between atoms: N_3  and  C_37 
REMARK    4  A    between atoms: C_5  and  C_6 
REMARK    5  A    between atoms: C_6  and  N_7 
REMARK    6  A    between atoms: N_7  and  C_8 
REMARK    7  A    between atoms: N_7  and  C_21 
REMARK    8  A    between atoms: C_8  and  N_9 
REMARK    9  A    between atoms: N_9  and  C_10 
REMARK   10  A    between atoms: C_11  and  C_12 
REMARK   11  A    between atoms: C_12  and  O_13 
REMARK   12  A    between atoms: C_21  and  C_22 
ROOT
HETATM    1  N   UNL     1      -6.328   4.040 -31.508  1.00  0.00    -0.352 N 
ENDROOT
BRANCH   1   2
HETATM    2  C   UNL     1      -7.737   3.832 -31.889  1.00  0.00     0.153 C 
BRANCH   2   3
HETATM    3  C   UNL     1      -7.932   3.504 -33.385  1.00  0.00     0.254 C 
BRANCH   3   4
HETATM    4  N   UNL     1      -9.415   3.404 -33.765  1.00  0.00    -0.070 N 
HETATM    5  H   UNL     1      -9.573   4.020 -34.574  1.00  0.00     0.279 HD
BRANCH   4   6
HETATM    6  C   UNL     1     -10.315   3.889 -32.637  1.00  0.00     0.230 C 
HETATM    7  C   UNL     1     -11.647   4.385 -33.173  1.00  0.00     0.034 C 
ENDBRANCH   4   6
BRANCH   4   8
HETATM    8  C   UNL     1      -9.778   1.984 -34.193  1.00  0.00     0.230 C 
HETATM    9  C   UNL     1      -9.926   1.075 -32.984  1.00  0.00     0.034 C 
ENDBRANCH   4   8
ENDBRANCH   3   4
ENDBRANCH   2   3
ENDBRANCH   1   2
BRANCH   1  10
HETATM   10  C   UNL     1      -5.665   5.277 -31.743  1.00  0.00     0.174 C 
HETATM   11  S   UNL     1      -6.458   6.708 -32.148  1.00  0.00    -0.041 SA
BRANCH  10  12
HETATM   12  N   UNL     1      -4.290   5.150 -31.726  1.00  0.00    -0.332 N 
HETATM   13  H   UNL     1      -3.891   4.965 -30.804  1.00  0.00     0.168 HD
BRANCH  12  14
HETATM   14  C   UNL     1      -3.326   5.197 -32.766  1.00  0.00     0.050 A 
HETATM   15  C   UNL     1      -1.959   5.394 -32.442  1.00  0.00     0.066 A 
HETATM   16  C   UNL     1      -1.003   5.486 -33.470  1.00  0.00     0.020 A 
HETATM   17  C   UNL     1      -1.390   5.408 -34.806  1.00  0.00     0.001 A 
HETATM   18  C   UNL     1      -2.733   5.253 -35.127  1.00  0.00     0.002 A 
HETATM   19  C   UNL     1      -3.693   5.159 -34.117  1.00  0.00     0.030 A 
BRANCH  15  20
HETATM   20  C   UNL     1      -1.538   5.561 -31.014  1.00  0.00     0.295 C 
HETATM   21  O   UNL     1      -1.947   6.463 -30.293  1.00  0.00    -0.259 OA
BRANCH  20  22
HETATM   22  O   UNL     1      -0.639   4.613 -30.650  1.00  0.00    -0.322 OA
HETATM   23  C   UNL     1       0.442   5.097 -29.850  1.00  0.00     0.213 C 
ENDBRANCH  20  22
ENDBRANCH  15  20
ENDBRANCH  12  14
ENDBRANCH  10  12
ENDBRANCH   1  10
BRANCH   1  24
HETATM   24  C   UNL     1      -5.729   3.034 -30.599  1.00  0.00     0.169 C 
BRANCH  24  25
HETATM   25  C   UNL     1      -5.282   1.774 -31.289  1.00  0.00     0.029 A 
HETATM   26  C   UNL     1      -3.818   1.555 -31.511  1.00  0.00     0.253 A 
HETATM   27  O   UNL     1      -2.969   2.343 -31.111  1.00  0.00    -0.268 OA
HETATM   28  N   UNL     1      -3.451   0.409 -32.164  1.00  0.00    -0.322 N 
HETATM   29  C   UNL     1      -4.358  -0.517 -32.689  1.00  0.00     0.048 A 
HETATM   30  H   UNL     1      -2.457   0.284 -32.310  1.00  0.00     0.169 HD
HETATM   31  C   UNL     1      -5.730  -0.295 -32.516  1.00  0.00    -0.006 A 
HETATM   32  C   UNL     1      -3.896  -1.629 -33.388  1.00  0.00     0.070 A 
HETATM   33  C   UNL     1      -6.649  -1.183 -33.078  1.00  0.00     0.053 A 
HETATM   34  C   UNL     1      -6.168   0.885 -31.774  1.00  0.00     0.028 A 
HETATM   35  C   UNL     1      -6.191  -2.280 -33.807  1.00  0.00     0.103 A 
HETATM   36  C   UNL     1      -4.818  -2.519 -33.936  1.00  0.00     0.104 A 
HETATM   37  O   UNL     1      -7.147  -3.085 -34.370  1.00  0.00    -0.346 OA
HETATM   38  O   UNL     1      -4.304  -3.598 -34.609  1.00  0.00    -0.346 OA
HETATM   39  C   UNL     1      -5.310  -4.582 -34.882  1.00  0.00     0.202 C 
HETATM   40  C   UNL     1      -6.584  -3.924 -35.387  1.00  0.00     0.202 C 
ENDBRANCH  24  25
ENDBRANCH   1  24
TORSDOF 12
ENDMDL
