MODEL 1
REMARK VINA RESULT:      -8.5      0.000      0.000
REMARK  7 active torsions:
REMARK  status: ('A' for Active; 'I' for Inactive)
REMARK    1  A    between atoms: O_2  and  C_3 
REMARK    2  A    between atoms: C_6  and  C_7 
REMARK    3  A    between atoms: N_8  and  N_9 
REMARK       I    between atoms: N_9  and  C_10 
REMARK    4  A    between atoms: C_10  and  C_11 
REMARK       I    between atoms: C_11  and  N_12 
REMARK    5  A    between atoms: N_12  and  C_13 
REMARK    6  A    between atoms: C_14  and  C_15 
REMARK       I    between atoms: C_15  and  N_16 
REMARK    7  A    between atoms: N_16  and  C_17 
ROOT
HETATM    1  C   UNL     1     -13.739   1.280 -33.617  1.00  0.00     0.315 C 
HETATM    2  N   UNL     1     -14.030   1.943 -32.442  1.00  0.00    -0.318 N 
HETATM    3  O   UNL     1     -14.294   1.349 -34.702  1.00  0.00    -0.262 OA
HETATM    4  H   UNL     1     -13.590   1.508 -31.629  1.00  0.00     0.169 HD
ENDROOT
BRANCH   2   5
HETATM    5  C   UNL     1     -15.112   2.816 -32.215  1.00  0.00     0.051 A 
HETATM    6  C   UNL     1     -15.046   4.212 -32.064  1.00  0.00     0.058 A 
HETATM    7  C   UNL     1     -16.239   4.954 -31.952  1.00  0.00     0.019 A 
HETATM    8  C   UNL     1     -17.482   4.322 -31.937  1.00  0.00     0.001 A 
HETATM    9  C   UNL     1     -17.546   2.937 -32.019  1.00  0.00     0.002 A 
HETATM   10  C   UNL     1     -16.371   2.191 -32.150  1.00  0.00     0.030 A 
BRANCH   6  11
HETATM   11  C   UNL     1     -13.812   5.005 -31.806  1.00  0.00     0.254 C 
HETATM   12  N   UNL     1     -13.072   5.344 -32.924  1.00  0.00    -0.352 N 
HETATM   13  H   UNL     1     -13.408   5.031 -33.825  1.00  0.00     0.163 HD
HETATM   14  O   UNL     1     -13.426   5.180 -30.656  1.00  0.00    -0.268 OA
BRANCH  12  15
HETATM   15  C   UNL     1     -11.681   5.770 -32.807  1.00  0.00     0.084 C 
HETATM   16  C   UNL     1     -10.729   4.587 -33.031  1.00  0.00     0.025 C 
HETATM   17  C   UNL     1     -10.628   4.179 -34.501  1.00  0.00     0.002 C 
HETATM   18  C   UNL     1     -10.246   5.363 -35.382  1.00  0.00     0.000 C 
HETATM   19  C   UNL     1     -11.219   6.523 -35.205  1.00  0.00     0.002 C 
HETATM   20  C   UNL     1     -11.338   6.941 -33.740  1.00  0.00     0.025 C 
ENDBRANCH  12  15
ENDBRANCH   6  11
ENDBRANCH   2   5
BRANCH   1  21
HETATM   21  C   UNL     1     -12.600   0.265 -33.421  1.00  0.00     0.329 C 
HETATM   22  N   UNL     1     -11.370   0.865 -33.247  1.00  0.00    -0.239 N 
HETATM   23  H   UNL     1     -11.319   1.882 -33.278  1.00  0.00     0.192 HD
HETATM   24  O   UNL     1     -12.871  -0.931 -33.454  1.00  0.00    -0.261 OA
BRANCH  22  25
HETATM   25  N   UNL     1     -10.250   0.103 -33.113  1.00  0.00    -0.183 NA
HETATM   26  C   UNL     1      -9.187   0.559 -33.695  1.00  0.00     0.150 C 
BRANCH  26  27
HETATM   27  C   UNL     1      -7.904  -0.173 -33.647  1.00  0.00    -0.017 A 
HETATM   28  C   UNL     1      -7.475  -0.942 -34.732  1.00  0.00     0.016 A 
HETATM   29  C   UNL     1      -6.252  -1.613 -34.663  1.00  0.00     0.037 A 
HETATM   30  C   UNL     1      -5.447  -1.513 -33.525  1.00  0.00     0.068 A 
HETATM   31  C   UNL     1      -5.887  -0.754 -32.438  1.00  0.00     0.037 A 
HETATM   32  C   UNL     1      -7.114  -0.083 -32.498  1.00  0.00     0.016 A 
BRANCH  30  33
HETATM   33  O   UNL     1      -4.272  -2.211 -33.590  1.00  0.00    -0.356 OA
HETATM   34  C   UNL     1      -4.276  -3.391 -34.385  1.00  0.00     0.210 C 
ENDBRANCH  30  33
ENDBRANCH  26  27
ENDBRANCH  22  25
ENDBRANCH   1  21
TORSDOF 7
ENDMDL
MODEL 2
REMARK VINA RESULT:      -8.5      6.317      9.351
REMARK  7 active torsions:
REMARK  status: ('A' for Active; 'I' for Inactive)
REMARK    1  A    between atoms: O_2  and  C_3 
REMARK    2  A    between atoms: C_6  and  C_7 
REMARK    3  A    between atoms: N_8  and  N_9 
REMARK       I    between atoms: N_9  and  C_10 
REMARK    4  A    between atoms: C_10  and  C_11 
REMARK       I    between atoms: C_11  and  N_12 
REMARK    5  A    between atoms: N_12  and  C_13 
REMARK    6  A    between atoms: C_14  and  C_15 
REMARK       I    between atoms: C_15  and  N_16 
REMARK    7  A    between atoms: N_16  and  C_17 
ROOT
HETATM    1  C   UNL     1      -5.251   2.046 -32.647  1.00  0.00     0.315 C 
HETATM    2  N   UNL     1      -5.311   0.709 -32.308  1.00  0.00    -0.318 N 
HETATM    3  O   UNL     1      -5.709   2.616 -33.625  1.00  0.00    -0.262 OA
HETATM    4  H   UNL     1      -4.628   0.457 -31.592  1.00  0.00     0.169 HD
ENDROOT
BRANCH   2   5
HETATM    5  C   UNL     1      -5.869  -0.330 -33.078  1.00  0.00     0.051 A 
HETATM    6  C   UNL     1      -7.233  -0.536 -33.348  1.00  0.00     0.058 A 
HETATM    7  C   UNL     1      -7.617  -1.565 -34.231  1.00  0.00     0.019 A 
HETATM    8  C   UNL     1      -6.671  -2.415 -34.802  1.00  0.00     0.001 A 
HETATM    9  C   UNL     1      -5.328  -2.255 -34.485  1.00  0.00     0.002 A 
HETATM   10  C   UNL     1      -4.932  -1.227 -33.626  1.00  0.00     0.030 A 
BRANCH   6  11
HETATM   11  C   UNL     1      -8.370   0.107 -32.633  1.00  0.00     0.254 C 
HETATM   12  N   UNL     1      -9.444   0.477 -33.423  1.00  0.00    -0.352 N 
HETATM   13  H   UNL     1      -9.383   0.296 -34.416  1.00  0.00     0.163 HD
HETATM   14  O   UNL     1      -8.254   0.419 -31.453  1.00  0.00    -0.268 OA
BRANCH  12  15
HETATM   15  C   UNL     1     -10.435   1.436 -32.946  1.00  0.00     0.084 C 
HETATM   16  C   UNL     1      -9.944   2.875 -33.157  1.00  0.00     0.025 C 
HETATM   17  C   UNL     1     -10.013   3.315 -34.618  1.00  0.00     0.002 C 
HETATM   18  C   UNL     1     -11.413   3.126 -35.191  1.00  0.00     0.000 C 
HETATM   19  C   UNL     1     -11.886   1.686 -35.034  1.00  0.00     0.002 C 
HETATM   20  C   UNL     1     -11.818   1.225 -33.580  1.00  0.00     0.025 C 
ENDBRANCH  12  15
ENDBRANCH   6  11
ENDBRANCH   2   5
BRANCH   1  21
HETATM   21  C   UNL     1      -4.393   2.840 -31.649  1.00  0.00     0.329 C 
HETATM   22  N   UNL     1      -3.120   3.093 -32.119  1.00  0.00    -0.239 N 
HETATM   23  H   UNL     1      -2.863   2.735 -33.037  1.00  0.00     0.192 HD
HETATM   24  O   UNL     1      -4.885   3.148 -30.569  1.00  0.00    -0.261 OA
BRANCH  22  25
HETATM   25  N   UNL     1      -2.217   3.741 -31.332  1.00  0.00    -0.183 NA
HETATM   26  C   UNL     1      -2.252   5.035 -31.387  1.00  0.00     0.150 C 
BRANCH  26  27
HETATM   27  C   UNL     1      -1.319   5.868 -30.599  1.00  0.00    -0.017 A 
HETATM   28  C   UNL     1      -1.619   7.201 -30.308  1.00  0.00     0.016 A 
HETATM   29  C   UNL     1      -0.724   7.962 -29.552  1.00  0.00     0.037 A 
HETATM   30  C   UNL     1       0.462   7.400 -29.073  1.00  0.00     0.068 A 
HETATM   31  C   UNL     1       0.764   6.071 -29.379  1.00  0.00     0.037 A 
HETATM   32  C   UNL     1      -0.126   5.303 -30.141  1.00  0.00     0.016 A 
BRANCH  30  33
HETATM   33  O   UNL     1       1.245   8.248 -28.340  1.00  0.00    -0.356 OA
HETATM   34  C   UNL     1       1.459   7.900 -26.977  1.00  0.00     0.210 C 
ENDBRANCH  30  33
ENDBRANCH  26  27
ENDBRANCH  22  25
ENDBRANCH   1  21
TORSDOF 7
ENDMDL
MODEL 3
REMARK VINA RESULT:      -8.3      3.726      9.767
REMARK  7 active torsions:
REMARK  status: ('A' for Active; 'I' for Inactive)
REMARK    1  A    between atoms: O_2  and  C_3 
REMARK    2  A    between atoms: C_6  and  C_7 
REMARK    3  A    between atoms: N_8  and  N_9 
REMARK       I    between atoms: N_9  and  C_10 
REMARK    4  A    between atoms: C_10  and  C_11 
REMARK       I    between atoms: C_11  and  N_12 
REMARK    5  A    between atoms: N_12  and  C_13 
REMARK    6  A    between atoms: C_14  and  C_15 
REMARK       I    between atoms: C_15  and  N_16 
REMARK    7  A    between atoms: N_16  and  C_17 
ROOT
HETATM    1  C   UNL     1      -7.104   2.820 -32.966  1.00  0.00     0.315 C 
HETATM    2  N   UNL     1      -6.263   3.563 -32.161  1.00  0.00    -0.318 N 
HETATM    3  O   UNL     1      -6.911   2.381 -34.089  1.00  0.00    -0.262 OA
HETATM    4  H   UNL     1      -6.760   4.022 -31.397  1.00  0.00     0.169 HD
ENDROOT
BRANCH   2   5
HETATM    5  C   UNL     1      -4.987   4.052 -32.503  1.00  0.00     0.051 A 
HETATM    6  C   UNL     1      -3.807   3.299 -32.637  1.00  0.00     0.058 A 
HETATM    7  C   UNL     1      -2.632   3.928 -33.094  1.00  0.00     0.019 A 
HETATM    8  C   UNL     1      -2.606   5.294 -33.368  1.00  0.00     0.001 A 
HETATM    9  C   UNL     1      -3.753   6.053 -33.174  1.00  0.00     0.002 A 
HETATM   10  C   UNL     1      -4.930   5.438 -32.740  1.00  0.00     0.030 A 
BRANCH   6  11
HETATM   11  C   UNL     1      -3.601   1.907 -32.150  1.00  0.00     0.254 C 
HETATM   12  N   UNL     1      -4.345   0.931 -32.787  1.00  0.00    -0.352 N 
HETATM   13  H   UNL     1      -4.973   1.223 -33.524  1.00  0.00     0.163 HD
HETATM   14  O   UNL     1      -2.935   1.704 -31.140  1.00  0.00    -0.268 OA
BRANCH  12  15
HETATM   15  C   UNL     1      -4.538  -0.384 -32.185  1.00  0.00     0.084 C 
HETATM   16  C   UNL     1      -6.032  -0.677 -31.985  1.00  0.00     0.025 C 
HETATM   17  C   UNL     1      -6.748  -1.014 -33.292  1.00  0.00     0.002 C 
HETATM   18  C   UNL     1      -6.060  -2.160 -34.025  1.00  0.00     0.000 C 
HETATM   19  C   UNL     1      -4.588  -1.853 -34.276  1.00  0.00     0.002 C 
HETATM   20  C   UNL     1      -3.856  -1.508 -32.981  1.00  0.00     0.025 C 
ENDBRANCH  12  15
ENDBRANCH   6  11
ENDBRANCH   2   5
BRANCH   1  21
HETATM   21  C   UNL     1      -8.488   2.644 -32.319  1.00  0.00     0.329 C 
HETATM   22  N   UNL     1      -9.523   2.988 -33.165  1.00  0.00    -0.239 N 
HETATM   23  H   UNL     1      -9.293   3.328 -34.097  1.00  0.00     0.192 HD
HETATM   24  O   UNL     1      -8.546   2.250 -31.159  1.00  0.00    -0.261 OA
BRANCH  22  25
HETATM   25  N   UNL     1     -10.810   2.938 -32.726  1.00  0.00    -0.183 NA
HETATM   26  C   UNL     1     -11.667   2.433 -33.554  1.00  0.00     0.150 C 
BRANCH  26  27
HETATM   27  C   UNL     1     -13.103   2.332 -33.217  1.00  0.00    -0.017 A 
HETATM   28  C   UNL     1     -13.680   3.186 -32.275  1.00  0.00     0.016 A 
HETATM   29  C   UNL     1     -15.042   3.076 -31.985  1.00  0.00     0.037 A 
HETATM   30  C   UNL     1     -15.836   2.128 -32.636  1.00  0.00     0.068 A 
HETATM   31  C   UNL     1     -15.250   1.266 -33.567  1.00  0.00     0.037 A 
HETATM   32  C   UNL     1     -13.884   1.368 -33.859  1.00  0.00     0.016 A 
BRANCH  30  33
HETATM   33  O   UNL     1     -17.153   2.130 -32.267  1.00  0.00    -0.356 OA
HETATM   34  C   UNL     1     -17.826   3.382 -32.315  1.00  0.00     0.210 C 
ENDBRANCH  30  33
ENDBRANCH  26  27
ENDBRANCH  22  25
ENDBRANCH   1  21
TORSDOF 7
ENDMDL
MODEL 4
REMARK VINA RESULT:      -8.2      5.889      9.843
REMARK  7 active torsions:
REMARK  status: ('A' for Active; 'I' for Inactive)
REMARK    1  A    between atoms: O_2  and  C_3 
REMARK    2  A    between atoms: C_6  and  C_7 
REMARK    3  A    between atoms: N_8  and  N_9 
REMARK       I    between atoms: N_9  and  C_10 
REMARK    4  A    between atoms: C_10  and  C_11 
REMARK       I    between atoms: C_11  and  N_12 
REMARK    5  A    between atoms: N_12  and  C_13 
REMARK    6  A    between atoms: C_14  and  C_15 
REMARK       I    between atoms: C_15  and  N_16 
REMARK    7  A    between atoms: N_16  and  C_17 
ROOT
HETATM    1  C   UNL     1      -3.225  -1.677 -32.158  1.00  0.00     0.315 C 
HETATM    2  N   UNL     1      -4.079  -1.476 -33.225  1.00  0.00    -0.318 N 
HETATM    3  O   UNL     1      -2.909  -2.720 -31.607  1.00  0.00    -0.262 OA
HETATM    4  H   UNL     1      -4.373  -0.502 -33.310  1.00  0.00     0.169 HD
ENDROOT
BRANCH   2   5
HETATM    5  C   UNL     1      -4.850  -2.455 -33.882  1.00  0.00     0.051 A 
HETATM    6  C   UNL     1      -6.066  -2.252 -34.556  1.00  0.00     0.058 A 
HETATM    7  C   UNL     1      -6.657  -3.323 -35.257  1.00  0.00     0.019 A 
HETATM    8  C   UNL     1      -6.081  -4.593 -35.251  1.00  0.00     0.001 A 
HETATM    9  C   UNL     1      -4.914  -4.811 -34.531  1.00  0.00     0.002 A 
HETATM   10  C   UNL     1      -4.308  -3.754 -33.848  1.00  0.00     0.030 A 
BRANCH   6  11
HETATM   11  C   UNL     1      -6.932  -1.045 -34.451  1.00  0.00     0.254 C 
HETATM   12  N   UNL     1      -6.915  -0.400 -33.227  1.00  0.00    -0.352 N 
HETATM   13  H   UNL     1      -6.333  -0.788 -32.498  1.00  0.00     0.163 HD
HETATM   14  O   UNL     1      -7.716  -0.773 -35.353  1.00  0.00    -0.268 OA
BRANCH  12  15
HETATM   15  C   UNL     1      -7.969   0.539 -32.856  1.00  0.00     0.084 C 
HETATM   16  C   UNL     1      -8.072   0.666 -31.330  1.00  0.00     0.025 C 
HETATM   17  C   UNL     1      -6.932   1.486 -30.726  1.00  0.00     0.002 C 
HETATM   18  C   UNL     1      -6.826   2.858 -31.383  1.00  0.00     0.000 C 
HETATM   19  C   UNL     1      -6.670   2.740 -32.894  1.00  0.00     0.002 C 
HETATM   20  C   UNL     1      -7.797   1.916 -33.515  1.00  0.00     0.025 C 
ENDBRANCH  12  15
ENDBRANCH   6  11
ENDBRANCH   2   5
BRANCH   1  21
HETATM   21  C   UNL     1      -2.718  -0.343 -31.587  1.00  0.00     0.329 C 
HETATM   22  N   UNL     1      -3.560   0.714 -31.865  1.00  0.00    -0.239 N 
HETATM   23  H   UNL     1      -4.399   0.534 -32.413  1.00  0.00     0.192 HD
HETATM   24  O   UNL     1      -1.652  -0.334 -30.980  1.00  0.00    -0.261 OA
BRANCH  22  25
HETATM   25  N   UNL     1      -3.227   1.975 -31.473  1.00  0.00    -0.183 NA
HETATM   26  C   UNL     1      -3.194   2.865 -32.413  1.00  0.00     0.150 C 
BRANCH  26  27
HETATM   27  C   UNL     1      -2.832   4.271 -32.135  1.00  0.00    -0.017 A 
HETATM   28  C   UNL     1      -1.501   4.692 -32.184  1.00  0.00     0.016 A 
HETATM   29  C   UNL     1      -1.188   6.029 -31.929  1.00  0.00     0.037 A 
HETATM   30  C   UNL     1      -2.195   6.953 -31.638  1.00  0.00     0.068 A 
HETATM   31  C   UNL     1      -3.522   6.525 -31.576  1.00  0.00     0.037 A 
HETATM   32  C   UNL     1      -3.843   5.184 -31.826  1.00  0.00     0.016 A 
BRANCH  30  33
HETATM   33  O   UNL     1      -1.756   8.230 -31.417  1.00  0.00    -0.356 OA
HETATM   34  C   UNL     1      -1.869   8.721 -30.086  1.00  0.00     0.210 C 
ENDBRANCH  30  33
ENDBRANCH  26  27
ENDBRANCH  22  25
ENDBRANCH   1  21
TORSDOF 7
ENDMDL
MODEL 5
REMARK VINA RESULT:      -8.1      6.840      8.903
REMARK  7 active torsions:
REMARK  status: ('A' for Active; 'I' for Inactive)
REMARK    1  A    between atoms: O_2  and  C_3 
REMARK    2  A    between atoms: C_6  and  C_7 
REMARK    3  A    between atoms: N_8  and  N_9 
REMARK       I    between atoms: N_9  and  C_10 
REMARK    4  A    between atoms: C_10  and  C_11 
REMARK       I    between atoms: C_11  and  N_12 
REMARK    5  A    between atoms: N_12  and  C_13 
REMARK    6  A    between atoms: C_14  and  C_15 
REMARK       I    between atoms: C_15  and  N_16 
REMARK    7  A    between atoms: N_16  and  C_17 
ROOT
HETATM    1  C   UNL     1      -5.743   4.776 -30.533  1.00  0.00     0.315 C 
HETATM    2  N   UNL     1      -4.847   5.158 -29.555  1.00  0.00    -0.318 N 
HETATM    3  O   UNL     1      -6.561   5.451 -31.139  1.00  0.00    -0.262 OA
HETATM    4  H   UNL     1      -4.476   4.362 -29.033  1.00  0.00     0.169 HD
ENDROOT
BRANCH   2   5
HETATM    5  C   UNL     1      -4.730   6.436 -28.974  1.00  0.00     0.051 A 
HETATM    6  C   UNL     1      -3.683   7.354 -29.170  1.00  0.00     0.058 A 
HETATM    7  C   UNL     1      -3.773   8.639 -28.598  1.00  0.00     0.019 A 
HETATM    8  C   UNL     1      -4.858   8.998 -27.800  1.00  0.00     0.001 A 
HETATM    9  C   UNL     1      -5.862   8.070 -27.551  1.00  0.00     0.002 A 
HETATM   10  C   UNL     1      -5.794   6.799 -28.128  1.00  0.00     0.030 A 
BRANCH   6  11
HETATM   11  C   UNL     1      -2.356   7.048 -29.771  1.00  0.00     0.254 C 
HETATM   12  N   UNL     1      -2.333   6.934 -31.149  1.00  0.00    -0.352 N 
HETATM   13  H   UNL     1      -3.205   7.058 -31.647  1.00  0.00     0.163 HD
HETATM   14  O   UNL     1      -1.408   6.760 -29.049  1.00  0.00    -0.268 OA
BRANCH  12  15
HETATM   15  C   UNL     1      -1.224   6.277 -31.833  1.00  0.00     0.084 C 
HETATM   16  C   UNL     1      -1.461   4.763 -31.922  1.00  0.00     0.025 C 
HETATM   17  C   UNL     1      -2.512   4.389 -32.966  1.00  0.00     0.002 C 
HETATM   18  C   UNL     1      -2.170   4.969 -34.333  1.00  0.00     0.000 C 
HETATM   19  C   UNL     1      -1.987   6.481 -34.264  1.00  0.00     0.002 C 
HETATM   20  C   UNL     1      -0.943   6.875 -33.220  1.00  0.00     0.025 C 
ENDBRANCH  12  15
ENDBRANCH   6  11
ENDBRANCH   2   5
BRANCH   1  21
HETATM   21  C   UNL     1      -5.704   3.256 -30.768  1.00  0.00     0.329 C 
HETATM   22  N   UNL     1      -6.339   2.877 -31.933  1.00  0.00    -0.239 N 
HETATM   23  H   UNL     1      -6.774   3.599 -32.504  1.00  0.00     0.192 HD
HETATM   24  O   UNL     1      -5.154   2.549 -29.930  1.00  0.00    -0.261 OA
BRANCH  22  25
HETATM   25  N   UNL     1      -6.438   1.559 -32.259  1.00  0.00    -0.183 NA
HETATM   26  C   UNL     1      -5.665   1.158 -33.217  1.00  0.00     0.150 C 
BRANCH  26  27
HETATM   27  C   UNL     1      -5.678  -0.243 -33.688  1.00  0.00    -0.017 A 
HETATM   28  C   UNL     1      -4.541  -1.047 -33.578  1.00  0.00     0.016 A 
HETATM   29  C   UNL     1      -4.586  -2.372 -34.020  1.00  0.00     0.037 A 
HETATM   30  C   UNL     1      -5.759  -2.904 -34.560  1.00  0.00     0.068 A 
HETATM   31  C   UNL     1      -6.888  -2.091 -34.682  1.00  0.00     0.037 A 
HETATM   32  C   UNL     1      -6.850  -0.761 -34.245  1.00  0.00     0.016 A 
BRANCH  30  33
HETATM   33  O   UNL     1      -5.672  -4.213 -34.947  1.00  0.00    -0.356 OA
HETATM   34  C   UNL     1      -4.694  -5.008 -34.286  1.00  0.00     0.210 C 
ENDBRANCH  30  33
ENDBRANCH  26  27
ENDBRANCH  22  25
ENDBRANCH   1  21
TORSDOF 7
ENDMDL
MODEL 6
REMARK VINA RESULT:      -8.1      7.345      9.895
REMARK  7 active torsions:
REMARK  status: ('A' for Active; 'I' for Inactive)
REMARK    1  A    between atoms: O_2  and  C_3 
REMARK    2  A    between atoms: C_6  and  C_7 
REMARK    3  A    between atoms: N_8  and  N_9 
REMARK       I    between atoms: N_9  and  C_10 
REMARK    4  A    between atoms: C_10  and  C_11 
REMARK       I    between atoms: C_11  and  N_12 
REMARK    5  A    between atoms: N_12  and  C_13 
REMARK    6  A    between atoms: C_14  and  C_15 
REMARK       I    between atoms: C_15  and  N_16 
REMARK    7  A    between atoms: N_16  and  C_17 
ROOT
HETATM    1  C   UNL     1      -4.104   5.294 -31.452  1.00  0.00     0.315 C 
HETATM    2  N   UNL     1      -4.768   6.412 -31.915  1.00  0.00    -0.318 N 
HETATM    3  O   UNL     1      -3.463   5.146 -30.424  1.00  0.00    -0.262 OA
HETATM    4  H   UNL     1      -4.989   6.351 -32.910  1.00  0.00     0.169 HD
ENDROOT
BRANCH   2   5
HETATM    5  C   UNL     1      -4.789   7.687 -31.315  1.00  0.00     0.051 A 
HETATM    6  C   UNL     1      -3.721   8.598 -31.244  1.00  0.00     0.058 A 
HETATM    7  C   UNL     1      -3.940   9.881 -30.703  1.00  0.00     0.019 A 
HETATM    8  C   UNL     1      -5.185  10.244 -30.191  1.00  0.00     0.001 A 
HETATM    9  C   UNL     1      -6.224   9.322 -30.201  1.00  0.00     0.002 A 
HETATM   10  C   UNL     1      -6.025   8.054 -30.752  1.00  0.00     0.030 A 
BRANCH   6  11
HETATM   11  C   UNL     1      -2.289   8.286 -31.505  1.00  0.00     0.254 C 
HETATM   12  N   UNL     1      -1.617   7.644 -30.481  1.00  0.00    -0.352 N 
HETATM   13  H   UNL     1      -2.133   7.440 -29.635  1.00  0.00     0.163 HD
HETATM   14  O   UNL     1      -1.737   8.733 -32.506  1.00  0.00    -0.268 OA
BRANCH  12  15
HETATM   15  C   UNL     1      -0.159   7.620 -30.435  1.00  0.00     0.084 C 
HETATM   16  C   UNL     1       0.338   7.547 -28.984  1.00  0.00     0.025 C 
HETATM   17  C   UNL     1       0.153   6.162 -28.364  1.00  0.00     0.002 C 
HETATM   18  C   UNL     1       0.802   5.079 -29.219  1.00  0.00     0.000 C 
HETATM   19  C   UNL     1       0.273   5.110 -30.648  1.00  0.00     0.002 C 
HETATM   20  C   UNL     1       0.443   6.489 -31.283  1.00  0.00     0.025 C 
ENDBRANCH  12  15
ENDBRANCH   6  11
ENDBRANCH   2   5
BRANCH   1  21
HETATM   21  C   UNL     1      -4.151   4.149 -32.478  1.00  0.00     0.329 C 
HETATM   22  N   UNL     1      -4.248   2.905 -31.889  1.00  0.00    -0.239 N 
HETATM   23  H   UNL     1      -4.264   2.851 -30.872  1.00  0.00     0.192 HD
HETATM   24  O   UNL     1      -4.082   4.428 -33.670  1.00  0.00    -0.261 OA
BRANCH  22  25
HETATM   25  N   UNL     1      -4.248   1.782 -32.658  1.00  0.00    -0.183 NA
HETATM   26  C   UNL     1      -5.149   0.900 -32.365  1.00  0.00     0.150 C 
BRANCH  26  27
HETATM   27  C   UNL     1      -5.255  -0.375 -33.106  1.00  0.00    -0.017 A 
HETATM   28  C   UNL     1      -4.120  -1.138 -33.387  1.00  0.00     0.016 A 
HETATM   29  C   UNL     1      -4.251  -2.344 -34.079  1.00  0.00     0.037 A 
HETATM   30  C   UNL     1      -5.508  -2.802 -34.482  1.00  0.00     0.068 A 
HETATM   31  C   UNL     1      -6.638  -2.028 -34.211  1.00  0.00     0.037 A 
HETATM   32  C   UNL     1      -6.514  -0.815 -33.522  1.00  0.00     0.016 A 
BRANCH  30  33
HETATM   33  O   UNL     1      -5.498  -4.000 -35.142  1.00  0.00    -0.356 OA
HETATM   34  C   UNL     1      -6.766  -4.574 -35.438  1.00  0.00     0.210 C 
ENDBRANCH  30  33
ENDBRANCH  26  27
ENDBRANCH  22  25
ENDBRANCH   1  21
TORSDOF 7
ENDMDL
MODEL 7
REMARK VINA RESULT:      -8.1      2.950      9.273
REMARK  7 active torsions:
REMARK  status: ('A' for Active; 'I' for Inactive)
REMARK    1  A    between atoms: O_2  and  C_3 
REMARK    2  A    between atoms: C_6  and  C_7 
REMARK    3  A    between atoms: N_8  and  N_9 
REMARK       I    between atoms: N_9  and  C_10 
REMARK    4  A    between atoms: C_10  and  C_11 
REMARK       I    between atoms: C_11  and  N_12 
REMARK    5  A    between atoms: N_12  and  C_13 
REMARK    6  A    between atoms: C_14  and  C_15 
REMARK       I    between atoms: C_15  and  N_16 
REMARK    7  A    between atoms: N_16  and  C_17 
ROOT
HETATM    1  C   UNL     1      -8.510   0.453 -34.006  1.00  0.00     0.315 C 
HETATM    2  N   UNL     1      -8.048  -0.803 -33.667  1.00  0.00    -0.318 N 
HETATM    3  O   UNL     1      -7.892   1.415 -34.433  1.00  0.00    -0.262 OA
HETATM    4  H   UNL     1      -8.713  -1.322 -33.091  1.00  0.00     0.169 HD
ENDROOT
BRANCH   2   5
HETATM    5  C   UNL     1      -6.707  -1.236 -33.672  1.00  0.00     0.051 A 
HETATM    6  C   UNL     1      -5.695  -0.843 -32.779  1.00  0.00     0.058 A 
HETATM    7  C   UNL     1      -4.428  -1.456 -32.856  1.00  0.00     0.019 A 
HETATM    8  C   UNL     1      -4.146  -2.408 -33.834  1.00  0.00     0.001 A 
HETATM    9  C   UNL     1      -5.124  -2.749 -34.759  1.00  0.00     0.002 A 
HETATM   10  C   UNL     1      -6.390  -2.164 -34.682  1.00  0.00     0.030 A 
BRANCH   6  11
HETATM   11  C   UNL     1      -5.750   0.323 -31.856  1.00  0.00     0.254 C 
HETATM   12  N   UNL     1      -5.308   1.525 -32.379  1.00  0.00    -0.352 N 
HETATM   13  H   UNL     1      -4.977   1.529 -33.334  1.00  0.00     0.163 HD
HETATM   14  O   UNL     1      -6.018   0.154 -30.671  1.00  0.00    -0.268 OA
BRANCH  12  15
HETATM   15  C   UNL     1      -4.949   2.639 -31.508  1.00  0.00     0.084 C 
HETATM   16  C   UNL     1      -3.427   2.844 -31.488  1.00  0.00     0.025 C 
HETATM   17  C   UNL     1      -2.900   3.490 -32.768  1.00  0.00     0.002 C 
HETATM   18  C   UNL     1      -3.623   4.797 -33.072  1.00  0.00     0.000 C 
HETATM   19  C   UNL     1      -5.132   4.592 -33.147  1.00  0.00     0.002 C 
HETATM   20  C   UNL     1      -5.677   3.941 -31.877  1.00  0.00     0.025 C 
ENDBRANCH  12  15
ENDBRANCH   6  11
ENDBRANCH   2   5
BRANCH   1  21
HETATM   21  C   UNL     1     -10.006   0.605 -33.684  1.00  0.00     0.329 C 
HETATM   22  N   UNL     1     -10.609   1.616 -34.405  1.00  0.00    -0.239 N 
HETATM   23  H   UNL     1     -10.037   2.160 -35.048  1.00  0.00     0.192 HD
HETATM   24  O   UNL     1     -10.502  -0.135 -32.842  1.00  0.00    -0.261 OA
BRANCH  22  25
HETATM   25  N   UNL     1     -11.921   1.914 -34.198  1.00  0.00    -0.183 NA
HETATM   26  C   UNL     1     -12.184   2.565 -33.110  1.00  0.00     0.150 C 
BRANCH  26  27
HETATM   27  C   UNL     1     -13.567   2.941 -32.747  1.00  0.00    -0.017 A 
HETATM   28  C   UNL     1     -13.888   4.259 -32.417  1.00  0.00     0.016 A 
HETATM   29  C   UNL     1     -15.206   4.589 -32.090  1.00  0.00     0.037 A 
HETATM   30  C   UNL     1     -16.208   3.616 -32.103  1.00  0.00     0.068 A 
HETATM   31  C   UNL     1     -15.879   2.296 -32.421  1.00  0.00     0.037 A 
HETATM   32  C   UNL     1     -14.559   1.957 -32.744  1.00  0.00     0.016 A 
BRANCH  30  33
HETATM   33  O   UNL     1     -17.455   4.071 -31.772  1.00  0.00    -0.356 OA
HETATM   34  C   UNL     1     -18.558   3.374 -32.338  1.00  0.00     0.210 C 
ENDBRANCH  30  33
ENDBRANCH  26  27
ENDBRANCH  22  25
ENDBRANCH   1  21
TORSDOF 7
ENDMDL
MODEL 8
REMARK VINA RESULT:      -8.1      8.172     10.343
REMARK  7 active torsions:
REMARK  status: ('A' for Active; 'I' for Inactive)
REMARK    1  A    between atoms: O_2  and  C_3 
REMARK    2  A    between atoms: C_6  and  C_7 
REMARK    3  A    between atoms: N_8  and  N_9 
REMARK       I    between atoms: N_9  and  C_10 
REMARK    4  A    between atoms: C_10  and  C_11 
REMARK       I    between atoms: C_11  and  N_12 
REMARK    5  A    between atoms: N_12  and  C_13 
REMARK    6  A    between atoms: C_14  and  C_15 
REMARK       I    between atoms: C_15  and  N_16 
REMARK    7  A    between atoms: N_16  and  C_17 
ROOT
HETATM    1  C   UNL     1      -3.876   5.368 -31.468  1.00  0.00     0.315 C 
HETATM    2  N   UNL     1      -3.953   5.395 -30.090  1.00  0.00    -0.318 N 
HETATM    3  O   UNL     1      -4.137   6.248 -32.274  1.00  0.00    -0.262 OA
HETATM    4  H   UNL     1      -3.940   4.459 -29.680  1.00  0.00     0.169 HD
ENDROOT
BRANCH   2   5
HETATM    5  C   UNL     1      -4.434   6.453 -29.294  1.00  0.00     0.051 A 
HETATM    6  C   UNL     1      -3.769   7.660 -29.013  1.00  0.00     0.058 A 
HETATM    7  C   UNL     1      -4.438   8.665 -28.286  1.00  0.00     0.019 A 
HETATM    8  C   UNL     1      -5.729   8.464 -27.798  1.00  0.00     0.001 A 
HETATM    9  C   UNL     1      -6.362   7.248 -28.019  1.00  0.00     0.002 A 
HETATM   10  C   UNL     1      -5.718   6.250 -28.755  1.00  0.00     0.030 A 
BRANCH   6  11
HETATM   11  C   UNL     1      -2.322   7.931 -29.234  1.00  0.00     0.254 C 
HETATM   12  N   UNL     1      -1.584   8.214 -28.100  1.00  0.00    -0.352 N 
HETATM   13  H   UNL     1      -2.068   8.223 -27.212  1.00  0.00     0.163 HD
HETATM   14  O   UNL     1      -1.890   8.052 -30.376  1.00  0.00    -0.268 OA
BRANCH  12  15
HETATM   15  C   UNL     1      -0.279   8.861 -28.191  1.00  0.00     0.084 C 
HETATM   16  C   UNL     1      -0.047   9.789 -26.991  1.00  0.00     0.025 C 
HETATM   17  C   UNL     1       0.264   9.026 -25.704  1.00  0.00     0.002 C 
HETATM   18  C   UNL     1       1.438   8.072 -25.892  1.00  0.00     0.000 C 
HETATM   19  C   UNL     1       1.192   7.111 -27.049  1.00  0.00     0.002 C 
HETATM   20  C   UNL     1       0.873   7.856 -28.344  1.00  0.00     0.025 C 
ENDBRANCH  12  15
ENDBRANCH   6  11
ENDBRANCH   2   5
BRANCH   1  21
HETATM   21  C   UNL     1      -3.488   3.972 -31.982  1.00  0.00     0.329 C 
HETATM   22  N   UNL     1      -4.581   3.155 -32.193  1.00  0.00    -0.239 N 
HETATM   23  H   UNL     1      -5.508   3.524 -31.986  1.00  0.00     0.192 HD
HETATM   24  O   UNL     1      -2.299   3.712 -32.132  1.00  0.00    -0.261 OA
BRANCH  22  25
HETATM   25  N   UNL     1      -4.405   1.868 -32.598  1.00  0.00    -0.183 NA
HETATM   26  C   UNL     1      -5.472   1.253 -32.999  1.00  0.00     0.150 C 
BRANCH  26  27
HETATM   27  C   UNL     1      -5.432  -0.153 -33.451  1.00  0.00    -0.017 A 
HETATM   28  C   UNL     1      -6.496  -0.706 -34.167  1.00  0.00     0.016 A 
HETATM   29  C   UNL     1      -6.426  -2.035 -34.593  1.00  0.00     0.037 A 
HETATM   30  C   UNL     1      -5.298  -2.813 -34.319  1.00  0.00     0.068 A 
HETATM   31  C   UNL     1      -4.244  -2.259 -33.590  1.00  0.00     0.037 A 
HETATM   32  C   UNL     1      -4.308  -0.929 -33.157  1.00  0.00     0.016 A 
BRANCH  30  33
HETATM   33  O   UNL     1      -5.354  -4.093 -34.798  1.00  0.00    -0.356 OA
HETATM   34  C   UNL     1      -6.553  -4.473 -35.462  1.00  0.00     0.210 C 
ENDBRANCH  30  33
ENDBRANCH  26  27
ENDBRANCH  22  25
ENDBRANCH   1  21
TORSDOF 7
ENDMDL
MODEL 9
REMARK VINA RESULT:      -8.0      8.502     10.823
REMARK  7 active torsions:
REMARK  status: ('A' for Active; 'I' for Inactive)
REMARK    1  A    between atoms: O_2  and  C_3 
REMARK    2  A    between atoms: C_6  and  C_7 
REMARK    3  A    between atoms: N_8  and  N_9 
REMARK       I    between atoms: N_9  and  C_10 
REMARK    4  A    between atoms: C_10  and  C_11 
REMARK       I    between atoms: C_11  and  N_12 
REMARK    5  A    between atoms: N_12  and  C_13 
REMARK    6  A    between atoms: C_14  and  C_15 
REMARK       I    between atoms: C_15  and  N_16 
REMARK    7  A    between atoms: N_16  and  C_17 
ROOT
HETATM    1  C   UNL     1      -2.305   6.240 -30.793  1.00  0.00     0.315 C 
HETATM    2  N   UNL     1      -3.504   6.238 -30.108  1.00  0.00    -0.318 N 
HETATM    3  O   UNL     1      -1.596   7.183 -31.107  1.00  0.00    -0.262 OA
HETATM    4  H   UNL     1      -4.013   5.360 -30.215  1.00  0.00     0.169 HD
ENDROOT
BRANCH   2   5
HETATM    5  C   UNL     1      -4.227   7.368 -29.674  1.00  0.00     0.051 A 
HETATM    6  C   UNL     1      -3.973   8.135 -28.524  1.00  0.00     0.058 A 
HETATM    7  C   UNL     1      -4.726   9.303 -28.291  1.00  0.00     0.019 A 
HETATM    8  C   UNL     1      -5.751   9.684 -29.156  1.00  0.00     0.001 A 
HETATM    9  C   UNL     1      -6.047   8.892 -30.257  1.00  0.00     0.002 A 
HETATM   10  C   UNL     1      -5.295   7.741 -30.510  1.00  0.00     0.030 A 
BRANCH   6  11
HETATM   11  C   UNL     1      -3.102   7.736 -27.384  1.00  0.00     0.254 C 
HETATM   12  N   UNL     1      -1.937   8.466 -27.235  1.00  0.00    -0.352 N 
HETATM   13  H   UNL     1      -1.754   9.204 -27.902  1.00  0.00     0.163 HD
HETATM   14  O   UNL     1      -3.355   6.719 -26.747  1.00  0.00    -0.268 OA
BRANCH  12  15
HETATM   15  C   UNL     1      -0.830   7.962 -26.428  1.00  0.00     0.084 C 
HETATM   16  C   UNL     1       0.042   6.998 -27.245  1.00  0.00     0.025 C 
HETATM   17  C   UNL     1       0.925   7.717 -28.263  1.00  0.00     0.002 C 
HETATM   18  C   UNL     1       1.776   8.795 -27.600  1.00  0.00     0.000 C 
HETATM   19  C   UNL     1       0.912   9.788 -26.832  1.00  0.00     0.002 C 
HETATM   20  C   UNL     1       0.016   9.087 -25.813  1.00  0.00     0.025 C 
ENDBRANCH  12  15
ENDBRANCH   6  11
ENDBRANCH   2   5
BRANCH   1  21
HETATM   21  C   UNL     1      -1.929   4.827 -31.269  1.00  0.00     0.329 C 
HETATM   22  N   UNL     1      -2.956   3.918 -31.112  1.00  0.00    -0.239 N 
HETATM   23  H   UNL     1      -3.829   4.240 -30.699  1.00  0.00     0.192 HD
HETATM   24  O   UNL     1      -0.800   4.638 -31.707  1.00  0.00    -0.261 OA
BRANCH  22  25
HETATM   25  N   UNL     1      -2.766   2.610 -31.438  1.00  0.00    -0.183 NA
HETATM   26  C   UNL     1      -3.836   1.941 -31.726  1.00  0.00     0.150 C 
BRANCH  26  27
HETATM   27  C   UNL     1      -3.782   0.508 -32.081  1.00  0.00    -0.017 A 
HETATM   28  C   UNL     1      -2.908  -0.361 -31.425  1.00  0.00     0.016 A 
HETATM   29  C   UNL     1      -2.886  -1.714 -31.773  1.00  0.00     0.037 A 
HETATM   30  C   UNL     1      -3.739  -2.209 -32.762  1.00  0.00     0.068 A 
HETATM   31  C   UNL     1      -4.601  -1.333 -33.426  1.00  0.00     0.037 A 
HETATM   32  C   UNL     1      -4.625   0.025 -33.086  1.00  0.00     0.016 A 
BRANCH  30  33
HETATM   33  O   UNL     1      -3.624  -3.551 -33.001  1.00  0.00    -0.356 OA
HETATM   34  C   UNL     1      -4.252  -4.045 -34.178  1.00  0.00     0.210 C 
ENDBRANCH  30  33
ENDBRANCH  26  27
ENDBRANCH  22  25
ENDBRANCH   1  21
TORSDOF 7
ENDMDL
MODEL 10
REMARK VINA RESULT:      -7.9      7.420     10.333
REMARK  7 active torsions:
REMARK  status: ('A' for Active; 'I' for Inactive)
REMARK    1  A    between atoms: O_2  and  C_3 
REMARK    2  A    between atoms: C_6  and  C_7 
REMARK    3  A    between atoms: N_8  and  N_9 
REMARK       I    between atoms: N_9  and  C_10 
REMARK    4  A    between atoms: C_10  and  C_11 
REMARK       I    between atoms: C_11  and  N_12 
REMARK    5  A    between atoms: N_12  and  C_13 
REMARK    6  A    between atoms: C_14  and  C_15 
REMARK       I    between atoms: C_15  and  N_16 
REMARK    7  A    between atoms: N_16  and  C_17 
ROOT
HETATM    1  C   UNL     1      -2.718   5.170 -31.298  1.00  0.00     0.315 C 
HETATM    2  N   UNL     1      -1.430   5.660 -31.213  1.00  0.00    -0.318 N 
HETATM    3  O   UNL     1      -3.701   5.459 -30.634  1.00  0.00    -0.262 OA
HETATM    4  H   UNL     1      -0.754   5.065 -31.693  1.00  0.00     0.169 HD
ENDROOT
BRANCH   2   5
HETATM    5  C   UNL     1      -0.940   6.576 -30.261  1.00  0.00     0.051 A 
HETATM    6  C   UNL     1      -1.446   7.860 -29.994  1.00  0.00     0.058 A 
HETATM    7  C   UNL     1      -0.907   8.609 -28.929  1.00  0.00     0.019 A 
HETATM    8  C   UNL     1       0.154   8.120 -28.168  1.00  0.00     0.001 A 
HETATM    9  C   UNL     1       0.699   6.879 -28.473  1.00  0.00     0.002 A 
HETATM   10  C   UNL     1       0.161   6.118 -29.513  1.00  0.00     0.030 A 
BRANCH   6  11
HETATM   11  C   UNL     1      -2.388   8.623 -30.858  1.00  0.00     0.254 C 
HETATM   12  N   UNL     1      -3.672   8.769 -30.365  1.00  0.00    -0.352 N 
HETATM   13  H   UNL     1      -3.883   8.350 -29.469  1.00  0.00     0.163 HD
HETATM   14  O   UNL     1      -2.056   8.940 -31.995  1.00  0.00    -0.268 OA
BRANCH  12  15
HETATM   15  C   UNL     1      -4.777   9.145 -31.240  1.00  0.00     0.084 C 
HETATM   16  C   UNL     1      -5.908   8.108 -31.163  1.00  0.00     0.025 C 
HETATM   17  C   UNL     1      -6.713   8.206 -29.868  1.00  0.00     0.002 C 
HETATM   18  C   UNL     1      -7.249   9.617 -29.651  1.00  0.00     0.000 C 
HETATM   19  C   UNL     1      -6.126  10.647 -29.672  1.00  0.00     0.002 C 
HETATM   20  C   UNL     1      -5.305  10.560 -30.958  1.00  0.00     0.025 C 
ENDBRANCH  12  15
ENDBRANCH   6  11
ENDBRANCH   2   5
BRANCH   1  21
HETATM   21  C   UNL     1      -2.821   4.042 -32.338  1.00  0.00     0.329 C 
HETATM   22  N   UNL     1      -3.525   2.949 -31.876  1.00  0.00    -0.239 N 
HETATM   23  H   UNL     1      -3.886   2.973 -30.924  1.00  0.00     0.192 HD
HETATM   24  O   UNL     1      -2.279   4.199 -33.427  1.00  0.00    -0.261 OA
BRANCH  22  25
HETATM   25  N   UNL     1      -3.661   1.843 -32.658  1.00  0.00    -0.183 NA
HETATM   26  C   UNL     1      -4.688   1.097 -32.402  1.00  0.00     0.150 C 
BRANCH  26  27
HETATM   27  C   UNL     1      -4.952  -0.144 -33.160  1.00  0.00    -0.017 A 
HETATM   28  C   UNL     1      -6.037  -0.232 -34.036  1.00  0.00     0.016 A 
HETATM   29  C   UNL     1      -6.256  -1.413 -34.749  1.00  0.00     0.037 A 
HETATM   30  C   UNL     1      -5.394  -2.503 -34.605  1.00  0.00     0.068 A 
HETATM   31  C   UNL     1      -4.319  -2.415 -33.717  1.00  0.00     0.037 A 
HETATM   32  C   UNL     1      -4.096  -1.235 -32.995  1.00  0.00     0.016 A 
BRANCH  30  33
HETATM   33  O   UNL     1      -5.715  -3.594 -35.365  1.00  0.00    -0.356 OA
HETATM   34  C   UNL     1      -6.735  -4.446 -34.857  1.00  0.00     0.210 C 
ENDBRANCH  30  33
ENDBRANCH  26  27
ENDBRANCH  22  25
ENDBRANCH   1  21
TORSDOF 7
ENDMDL
