MODEL 1
REMARK VINA RESULT:      -7.9      0.000      0.000
REMARK  6 active torsions:
REMARK  status: ('A' for Active; 'I' for Inactive)
REMARK    1  A    between atoms: O_2  and  C_3 
REMARK    2  A    between atoms: C_6  and  C_7 
REMARK    3  A    between atoms: C_7  and  N_8 
REMARK    4  A    between atoms: N_8  and  C_9 
REMARK    5  A    between atoms: C_15  and  C_16 
REMARK       I    between atoms: C_16  and  N_17 
REMARK    6  A    between atoms: N_17  and  C_18 
ROOT
HETATM    1  C   UNL     1      -4.836  -2.148 -33.907  1.00  0.00     0.096 A 
HETATM    2  N   UNL     1      -4.279  -3.373 -33.947  1.00  0.00    -0.356 N 
HETATM    3  H   UNL     1      -3.296  -3.437 -33.686  1.00  0.00     0.166 HD
HETATM    4  C   UNL     1      -4.921  -4.474 -34.362  1.00  0.00     0.089 A 
HETATM    5  C   UNL     1      -6.230  -4.384 -34.810  1.00  0.00     0.018 A 
HETATM    6  C   UNL     1      -6.845  -3.136 -34.861  1.00  0.00     0.022 A 
HETATM    7  C   UNL     1      -6.141  -2.000 -34.444  1.00  0.00     0.070 A 
ENDROOT
BRANCH   1   8
HETATM    8  N   UNL     1      -4.045  -1.081 -33.476  1.00  0.00    -0.274 NA
HETATM    9  H   UNL     1      -4.544  -0.199 -33.688  1.00  0.00     0.129 HD
BRANCH   8  10
HETATM   10  C   UNL     1      -3.658  -1.040 -32.062  1.00  0.00     0.132 C 
BRANCH  10  11
HETATM   11  C   UNL     1      -4.191   0.208 -31.407  1.00  0.00    -0.045 A 
HETATM   12  C   UNL     1      -3.654   1.463 -31.736  1.00  0.00     0.011 A 
HETATM   13  C   UNL     1      -4.174   2.635 -31.181  1.00  0.00     0.037 A 
HETATM   14  C   UNL     1      -5.243   2.571 -30.291  1.00  0.00     0.068 A 
HETATM   15  C   UNL     1      -5.772   1.324 -29.945  1.00  0.00     0.037 A 
HETATM   16  C   UNL     1      -5.262   0.150 -30.507  1.00  0.00     0.011 A 
BRANCH  14  17
HETATM   17  O   UNL     1      -5.845   3.641 -29.691  1.00  0.00    -0.356 OA
HETATM   18  C   UNL     1      -7.265   3.587 -29.581  1.00  0.00     0.210 C 
ENDBRANCH  14  17
ENDBRANCH  10  11
ENDBRANCH   8  10
ENDBRANCH   1   8
BRANCH   7  19
HETATM   19  C   UNL     1      -6.739  -0.636 -34.508  1.00  0.00     0.259 C 
HETATM   20  N   UNL     1      -7.130  -0.070 -33.314  1.00  0.00    -0.320 N 
HETATM   21  H   UNL     1      -6.955  -0.557 -32.441  1.00  0.00     0.169 HD
HETATM   22  O   UNL     1      -6.865  -0.142 -35.624  1.00  0.00    -0.267 OA
BRANCH  20  23
HETATM   23  C   UNL     1      -7.837   1.152 -33.137  1.00  0.00     0.075 A 
HETATM   24  C   UNL     1      -9.207   1.121 -32.841  1.00  0.00     0.152 A 
HETATM   25 CL   UNL     1     -10.044  -0.377 -32.647  1.00  0.00    -0.060 Cl
HETATM   26  N   UNL     1     -10.000   2.202 -32.682  1.00  0.00    -0.247 NA
HETATM   27  C   UNL     1      -9.404   3.402 -32.826  1.00  0.00     0.118 A 
HETATM   28  C   UNL     1      -8.057   3.556 -33.117  1.00  0.00     0.022 A 
HETATM   29  C   UNL     1      -7.265   2.416 -33.271  1.00  0.00     0.034 A 
ENDBRANCH  20  23
ENDBRANCH   7  19
TORSDOF 6
ENDMDL
MODEL 2
REMARK VINA RESULT:      -7.5      5.808      8.752
REMARK  6 active torsions:
REMARK  status: ('A' for Active; 'I' for Inactive)
REMARK    1  A    between atoms: O_2  and  C_3 
REMARK    2  A    between atoms: C_6  and  C_7 
REMARK    3  A    between atoms: C_7  and  N_8 
REMARK    4  A    between atoms: N_8  and  C_9 
REMARK    5  A    between atoms: C_15  and  C_16 
REMARK       I    between atoms: C_16  and  N_17 
REMARK    6  A    between atoms: N_17  and  C_18 
ROOT
HETATM    1  C   UNL     1      -2.158   4.310 -32.228  1.00  0.00     0.096 A 
HETATM    2  N   UNL     1      -2.559   4.128 -33.500  1.00  0.00    -0.356 N 
HETATM    3  H   UNL     1      -3.103   3.288 -33.692  1.00  0.00     0.166 HD
HETATM    4  C   UNL     1      -2.231   4.943 -34.512  1.00  0.00     0.089 A 
HETATM    5  C   UNL     1      -1.410   6.037 -34.281  1.00  0.00     0.018 A 
HETATM    6  C   UNL     1      -0.904   6.246 -33.001  1.00  0.00     0.022 A 
HETATM    7  C   UNL     1      -1.244   5.363 -31.970  1.00  0.00     0.070 A 
ENDROOT
BRANCH   1   8
HETATM    8  N   UNL     1      -2.553   3.369 -31.275  1.00  0.00    -0.274 NA
HETATM    9  H   UNL     1      -2.395   3.771 -30.334  1.00  0.00     0.129 HD
BRANCH   8  10
HETATM   10  C   UNL     1      -3.935   2.882 -31.319  1.00  0.00     0.132 C 
BRANCH  10  11
HETATM   11  C   UNL     1      -3.971   1.438 -31.748  1.00  0.00    -0.045 A 
HETATM   12  C   UNL     1      -4.841   1.027 -32.770  1.00  0.00     0.011 A 
HETATM   13  C   UNL     1      -4.848  -0.297 -33.218  1.00  0.00     0.037 A 
HETATM   14  C   UNL     1      -3.981  -1.228 -32.654  1.00  0.00     0.068 A 
HETATM   15  C   UNL     1      -3.124  -0.830 -31.624  1.00  0.00     0.037 A 
HETATM   16  C   UNL     1      -3.106   0.495 -31.180  1.00  0.00     0.011 A 
BRANCH  14  17
HETATM   17  O   UNL     1      -3.883  -2.544 -33.011  1.00  0.00    -0.356 OA
HETATM   18  C   UNL     1      -4.465  -2.905 -34.260  1.00  0.00     0.210 C 
ENDBRANCH  14  17
ENDBRANCH  10  11
ENDBRANCH   8  10
ENDBRANCH   1   8
BRANCH   7  19
HETATM   19  C   UNL     1      -0.705   5.521 -30.589  1.00  0.00     0.259 C 
HETATM   20  N   UNL     1      -0.991   6.701 -29.938  1.00  0.00    -0.320 N 
HETATM   21  H   UNL     1      -1.592   7.390 -30.379  1.00  0.00     0.169 HD
HETATM   22  O   UNL     1      -0.019   4.599 -30.157  1.00  0.00    -0.267 OA
BRANCH  20  23
HETATM   23  C   UNL     1      -0.483   7.130 -28.680  1.00  0.00     0.075 A 
HETATM   24  C   UNL     1      -1.369   7.354 -27.617  1.00  0.00     0.152 A 
HETATM   25 CL   UNL     1      -3.065   7.078 -27.796  1.00  0.00    -0.060 Cl
HETATM   26  N   UNL     1      -1.026   7.791 -26.387  1.00  0.00    -0.247 NA
HETATM   27  C   UNL     1       0.286   8.029 -26.187  1.00  0.00     0.118 A 
HETATM   28  C   UNL     1       1.254   7.843 -27.162  1.00  0.00     0.022 A 
HETATM   29  C   UNL     1       0.863   7.385 -28.422  1.00  0.00     0.034 A 
ENDBRANCH  20  23
ENDBRANCH   7  19
TORSDOF 6
ENDMDL
MODEL 3
REMARK VINA RESULT:      -7.4      2.548      6.575
REMARK  6 active torsions:
REMARK  status: ('A' for Active; 'I' for Inactive)
REMARK    1  A    between atoms: O_2  and  C_3 
REMARK    2  A    between atoms: C_6  and  C_7 
REMARK    3  A    between atoms: C_7  and  N_8 
REMARK    4  A    between atoms: N_8  and  C_9 
REMARK    5  A    between atoms: C_15  and  C_16 
REMARK       I    between atoms: C_16  and  N_17 
REMARK    6  A    between atoms: N_17  and  C_18 
ROOT
HETATM    1  C   UNL     1      -5.799   2.112 -32.307  1.00  0.00     0.096 A 
HETATM    2  N   UNL     1      -5.504   3.425 -32.293  1.00  0.00    -0.356 N 
HETATM    3  H   UNL     1      -6.283   4.070 -32.418  1.00  0.00     0.166 HD
HETATM    4  C   UNL     1      -4.259   3.911 -32.190  1.00  0.00     0.089 A 
HETATM    5  C   UNL     1      -3.181   3.042 -32.116  1.00  0.00     0.018 A 
HETATM    6  C   UNL     1      -3.409   1.671 -32.194  1.00  0.00     0.022 A 
HETATM    7  C   UNL     1      -4.718   1.194 -32.327  1.00  0.00     0.070 A 
ENDROOT
BRANCH   1   8
HETATM    8  N   UNL     1      -7.139   1.742 -32.445  1.00  0.00    -0.274 NA
HETATM    9  H   UNL     1      -7.629   1.953 -31.558  1.00  0.00     0.129 HD
BRANCH   8  10
HETATM   10  C   UNL     1      -7.912   2.352 -33.532  1.00  0.00     0.132 C 
BRANCH  10  11
HETATM   11  C   UNL     1      -9.276   1.717 -33.627  1.00  0.00    -0.045 A 
HETATM   12  C   UNL     1      -9.557   0.539 -32.917  1.00  0.00     0.011 A 
HETATM   13  C   UNL     1     -10.832  -0.032 -32.949  1.00  0.00     0.037 A 
HETATM   14  C   UNL     1     -11.848   0.570 -33.688  1.00  0.00     0.068 A 
HETATM   15  C   UNL     1     -11.571   1.734 -34.411  1.00  0.00     0.037 A 
HETATM   16  C   UNL     1     -10.300   2.314 -34.372  1.00  0.00     0.011 A 
BRANCH  14  17
HETATM   17  O   UNL     1     -13.133   0.119 -33.789  1.00  0.00    -0.356 OA
HETATM   18  C   UNL     1     -14.154   1.113 -33.797  1.00  0.00     0.210 C 
ENDBRANCH  14  17
ENDBRANCH  10  11
ENDBRANCH   8  10
ENDBRANCH   1   8
BRANCH   7  19
HETATM   19  C   UNL     1      -5.017  -0.262 -32.448  1.00  0.00     0.259 C 
HETATM   20  N   UNL     1      -4.558  -0.902 -33.579  1.00  0.00    -0.320 N 
HETATM   21  H   UNL     1      -3.995  -0.395 -34.254  1.00  0.00     0.169 HD
HETATM   22  O   UNL     1      -5.679  -0.765 -31.546  1.00  0.00    -0.267 OA
BRANCH  20  23
HETATM   23  C   UNL     1      -4.829  -2.241 -33.974  1.00  0.00     0.075 A 
HETATM   24  C   UNL     1      -6.043  -2.542 -34.606  1.00  0.00     0.152 A 
HETATM   25 CL   UNL     1      -7.200  -1.306 -34.950  1.00  0.00    -0.060 Cl
HETATM   26  N   UNL     1      -6.439  -3.770 -35.002  1.00  0.00    -0.247 NA
HETATM   27  C   UNL     1      -5.579  -4.779 -34.756  1.00  0.00     0.118 A 
HETATM   28  C   UNL     1      -4.350  -4.602 -34.139  1.00  0.00     0.022 A 
HETATM   29  C   UNL     1      -3.971  -3.316 -33.747  1.00  0.00     0.034 A 
ENDBRANCH  20  23
ENDBRANCH   7  19
TORSDOF 6
ENDMDL
MODEL 4
REMARK VINA RESULT:      -7.3      2.926      6.185
REMARK  6 active torsions:
REMARK  status: ('A' for Active; 'I' for Inactive)
REMARK    1  A    between atoms: O_2  and  C_3 
REMARK    2  A    between atoms: C_6  and  C_7 
REMARK    3  A    between atoms: C_7  and  N_8 
REMARK    4  A    between atoms: N_8  and  C_9 
REMARK    5  A    between atoms: C_15  and  C_16 
REMARK       I    between atoms: C_16  and  N_17 
REMARK    6  A    between atoms: N_17  and  C_18 
ROOT
HETATM    1  C   UNL     1      -7.276   2.697 -33.871  1.00  0.00     0.096 A 
HETATM    2  N   UNL     1      -6.095   3.324 -34.025  1.00  0.00    -0.356 N 
HETATM    3  H   UNL     1      -5.283   2.733 -34.202  1.00  0.00     0.166 HD
HETATM    4  C   UNL     1      -5.928   4.648 -33.898  1.00  0.00     0.089 A 
HETATM    5  C   UNL     1      -7.006   5.452 -33.562  1.00  0.00     0.018 A 
HETATM    6  C   UNL     1      -8.243   4.861 -33.320  1.00  0.00     0.022 A 
HETATM    7  C   UNL     1      -8.382   3.473 -33.437  1.00  0.00     0.070 A 
ENDROOT
BRANCH   1   8
HETATM    8  N   UNL     1      -7.304   1.308 -34.007  1.00  0.00    -0.274 NA
HETATM    9  H   UNL     1      -6.696   1.046 -34.804  1.00  0.00     0.129 HD
BRANCH   8  10
HETATM   10  C   UNL     1      -6.898   0.495 -32.857  1.00  0.00     0.132 C 
BRANCH  10  11
HETATM   11  C   UNL     1      -6.172  -0.743 -33.317  1.00  0.00    -0.045 A 
HETATM   12  C   UNL     1      -6.735  -1.564 -34.307  1.00  0.00     0.011 A 
HETATM   13  C   UNL     1      -6.052  -2.685 -34.786  1.00  0.00     0.037 A 
HETATM   14  C   UNL     1      -4.791  -2.999 -34.285  1.00  0.00     0.068 A 
HETATM   15  C   UNL     1      -4.232  -2.197 -33.287  1.00  0.00     0.037 A 
HETATM   16  C   UNL     1      -4.907  -1.069 -32.813  1.00  0.00     0.011 A 
BRANCH  14  17
HETATM   17  O   UNL     1      -4.019  -4.056 -34.677  1.00  0.00    -0.356 OA
HETATM   18  C   UNL     1      -3.400  -4.807 -33.637  1.00  0.00     0.210 C 
ENDBRANCH  14  17
ENDBRANCH  10  11
ENDBRANCH   8  10
ENDBRANCH   1   8
BRANCH   7  19
HETATM   19  C   UNL     1      -9.674   2.784 -33.158  1.00  0.00     0.259 C 
HETATM   20  N   UNL     1     -10.249   2.090 -34.200  1.00  0.00    -0.320 N 
HETATM   21  H   UNL     1      -9.765   2.019 -35.089  1.00  0.00     0.169 HD
HETATM   22  O   UNL     1     -10.139   2.921 -32.030  1.00  0.00    -0.267 OA
BRANCH  20  23
HETATM   23  C   UNL     1     -11.529   1.470 -34.212  1.00  0.00     0.075 A 
HETATM   24  C   UNL     1     -12.568   2.045 -34.957  1.00  0.00     0.152 A 
HETATM   25 CL   UNL     1     -12.309   3.473 -35.894  1.00  0.00    -0.060 Cl
HETATM   26  N   UNL     1     -13.833   1.581 -35.029  1.00  0.00    -0.247 NA
HETATM   27  C   UNL     1     -14.099   0.469 -34.315  1.00  0.00     0.118 A 
HETATM   28  C   UNL     1     -13.152  -0.187 -33.543  1.00  0.00     0.022 A 
HETATM   29  C   UNL     1     -11.852   0.319 -33.495  1.00  0.00     0.034 A 
ENDBRANCH  20  23
ENDBRANCH   7  19
TORSDOF 6
ENDMDL
MODEL 5
REMARK VINA RESULT:      -7.3      2.436      5.723
REMARK  6 active torsions:
REMARK  status: ('A' for Active; 'I' for Inactive)
REMARK    1  A    between atoms: O_2  and  C_3 
REMARK    2  A    between atoms: C_6  and  C_7 
REMARK    3  A    between atoms: C_7  and  N_8 
REMARK    4  A    between atoms: N_8  and  C_9 
REMARK    5  A    between atoms: C_15  and  C_16 
REMARK       I    between atoms: C_16  and  N_17 
REMARK    6  A    between atoms: N_17  and  C_18 
ROOT
HETATM    1  C   UNL     1      -8.238   2.431 -33.256  1.00  0.00     0.096 A 
HETATM    2  N   UNL     1      -9.136   3.251 -32.679  1.00  0.00    -0.356 N 
HETATM    3  H   UNL     1      -8.764   3.995 -32.091  1.00  0.00     0.166 HD
HETATM    4  C   UNL     1     -10.464   3.100 -32.786  1.00  0.00     0.089 A 
HETATM    5  C   UNL     1     -10.984   2.034 -33.505  1.00  0.00     0.018 A 
HETATM    6  C   UNL     1     -10.112   1.108 -34.071  1.00  0.00     0.022 A 
HETATM    7  C   UNL     1      -8.730   1.278 -33.921  1.00  0.00     0.070 A 
ENDROOT
BRANCH   1   8
HETATM    8  N   UNL     1      -6.883   2.688 -33.043  1.00  0.00    -0.274 NA
HETATM    9  H   UNL     1      -6.358   1.804 -33.170  1.00  0.00     0.129 HD
BRANCH   8  10
HETATM   10  C   UNL     1      -6.236   3.708 -33.875  1.00  0.00     0.132 C 
BRANCH  10  11
HETATM   11  C   UNL     1      -4.847   3.998 -33.368  1.00  0.00    -0.045 A 
HETATM   12  C   UNL     1      -4.361   3.341 -32.227  1.00  0.00     0.011 A 
HETATM   13  C   UNL     1      -3.056   3.554 -31.776  1.00  0.00     0.037 A 
HETATM   14  C   UNL     1      -2.215   4.426 -32.462  1.00  0.00     0.068 A 
HETATM   15  C   UNL     1      -2.697   5.097 -33.589  1.00  0.00     0.037 A 
HETATM   16  C   UNL     1      -3.998   4.878 -34.051  1.00  0.00     0.011 A 
BRANCH  14  17
HETATM   17  O   UNL     1      -0.920   4.710 -32.131  1.00  0.00    -0.356 OA
HETATM   18  C   UNL     1      -0.686   5.113 -30.785  1.00  0.00     0.210 C 
ENDBRANCH  14  17
ENDBRANCH  10  11
ENDBRANCH   8  10
ENDBRANCH   1   8
BRANCH   7  19
HETATM   19  C   UNL     1      -7.752   0.300 -34.477  1.00  0.00     0.259 C 
HETATM   20  N   UNL     1      -7.538  -0.851 -33.751  1.00  0.00    -0.320 N 
HETATM   21  H   UNL     1      -8.077  -1.026 -32.910  1.00  0.00     0.169 HD
HETATM   22  O   UNL     1      -7.191   0.617 -35.522  1.00  0.00    -0.267 OA
BRANCH  20  23
HETATM   23  C   UNL     1      -6.567  -1.858 -34.010  1.00  0.00     0.075 A 
HETATM   24  C   UNL     1      -5.241  -1.660 -33.602  1.00  0.00     0.152 A 
HETATM   25 CL   UNL     1      -4.773  -0.230 -32.755  1.00  0.00    -0.060 Cl
HETATM   26  N   UNL     1      -4.218  -2.515 -33.813  1.00  0.00    -0.247 NA
HETATM   27  C   UNL     1      -4.521  -3.650 -34.475  1.00  0.00     0.118 A 
HETATM   28  C   UNL     1      -5.796  -3.955 -34.925  1.00  0.00     0.022 A 
HETATM   29  C   UNL     1      -6.831  -3.049 -34.685  1.00  0.00     0.034 A 
ENDBRANCH  20  23
ENDBRANCH   7  19
TORSDOF 6
ENDMDL
MODEL 6
REMARK VINA RESULT:      -7.1      2.644      6.273
REMARK  6 active torsions:
REMARK  status: ('A' for Active; 'I' for Inactive)
REMARK    1  A    between atoms: O_2  and  C_3 
REMARK    2  A    between atoms: C_6  and  C_7 
REMARK    3  A    between atoms: C_7  and  N_8 
REMARK    4  A    between atoms: N_8  and  C_9 
REMARK    5  A    between atoms: C_15  and  C_16 
REMARK       I    between atoms: C_16  and  N_17 
REMARK    6  A    between atoms: N_17  and  C_18 
ROOT
HETATM    1  C   UNL     1      -9.503   1.059 -33.047  1.00  0.00     0.096 A 
HETATM    2  N   UNL     1     -10.672   0.778 -33.652  1.00  0.00    -0.356 N 
HETATM    3  H   UNL     1     -10.714  -0.090 -34.184  1.00  0.00     0.166 HD
HETATM    4  C   UNL     1     -11.735   1.595 -33.643  1.00  0.00     0.089 A 
HETATM    5  C   UNL     1     -11.658   2.823 -33.005  1.00  0.00     0.018 A 
HETATM    6  C   UNL     1     -10.456   3.208 -32.416  1.00  0.00     0.022 A 
HETATM    7  C   UNL     1      -9.356   2.344 -32.464  1.00  0.00     0.070 A 
ENDROOT
BRANCH   1   8
HETATM    8  N   UNL     1      -8.467   0.129 -33.156  1.00  0.00    -0.274 NA
HETATM    9  H   UNL     1      -8.797  -0.774 -32.771  1.00  0.00     0.129 HD
BRANCH   8  10
HETATM   10  C   UNL     1      -7.918  -0.135 -34.490  1.00  0.00     0.132 C 
BRANCH  10  11
HETATM   11  C   UNL     1      -6.749  -1.082 -34.399  1.00  0.00    -0.045 A 
HETATM   12  C   UNL     1      -5.513  -0.633 -33.908  1.00  0.00     0.011 A 
HETATM   13  C   UNL     1      -4.435  -1.510 -33.764  1.00  0.00     0.037 A 
HETATM   14  C   UNL     1      -4.578  -2.852 -34.105  1.00  0.00     0.068 A 
HETATM   15  C   UNL     1      -5.800  -3.303 -34.612  1.00  0.00     0.037 A 
HETATM   16  C   UNL     1      -6.884  -2.432 -34.746  1.00  0.00     0.011 A 
BRANCH  14  17
HETATM   17  O   UNL     1      -3.608  -3.808 -34.000  1.00  0.00    -0.356 OA
HETATM   18  C   UNL     1      -4.057  -5.149 -33.823  1.00  0.00     0.210 C 
ENDBRANCH  14  17
ENDBRANCH  10  11
ENDBRANCH   8  10
ENDBRANCH   1   8
BRANCH   7  19
HETATM   19  C   UNL     1      -8.036   2.718 -31.880  1.00  0.00     0.259 C 
HETATM   20  N   UNL     1      -6.953   2.717 -32.731  1.00  0.00    -0.320 N 
HETATM   21  H   UNL     1      -7.086   2.524 -33.719  1.00  0.00     0.169 HD
HETATM   22  O   UNL     1      -8.016   2.963 -30.677  1.00  0.00    -0.267 OA
BRANCH  20  23
HETATM   23  C   UNL     1      -5.588   2.909 -32.381  1.00  0.00     0.075 A 
HETATM   24  C   UNL     1      -4.896   4.020 -32.884  1.00  0.00     0.152 A 
HETATM   25 CL   UNL     1      -5.684   5.182 -33.889  1.00  0.00    -0.060 Cl
HETATM   26  N   UNL     1      -3.595   4.303 -32.658  1.00  0.00    -0.247 NA
HETATM   27  C   UNL     1      -2.924   3.428 -31.882  1.00  0.00     0.118 A 
HETATM   28  C   UNL     1      -3.503   2.297 -31.329  1.00  0.00     0.022 A 
HETATM   29  C   UNL     1      -4.853   2.038 -31.580  1.00  0.00     0.034 A 
ENDBRANCH  20  23
ENDBRANCH   7  19
TORSDOF 6
ENDMDL
MODEL 7
REMARK VINA RESULT:      -7.1     14.186     16.644
REMARK  6 active torsions:
REMARK  status: ('A' for Active; 'I' for Inactive)
REMARK    1  A    between atoms: O_2  and  C_3 
REMARK    2  A    between atoms: C_6  and  C_7 
REMARK    3  A    between atoms: C_7  and  N_8 
REMARK    4  A    between atoms: N_8  and  C_9 
REMARK    5  A    between atoms: C_15  and  C_16 
REMARK       I    between atoms: C_16  and  N_17 
REMARK    6  A    between atoms: N_17  and  C_18 
ROOT
HETATM    1  C   UNL     1      -6.252 -13.431 -36.645  1.00  0.00     0.096 A 
HETATM    2  N   UNL     1      -7.204 -13.447 -35.695  1.00  0.00    -0.356 N 
HETATM    3  H   UNL     1      -8.171 -13.446 -36.016  1.00  0.00     0.166 HD
HETATM    4  C   UNL     1      -6.950 -13.400 -34.379  1.00  0.00     0.089 A 
HETATM    5  C   UNL     1      -5.641 -13.304 -33.931  1.00  0.00     0.018 A 
HETATM    6  C   UNL     1      -4.610 -13.213 -34.862  1.00  0.00     0.022 A 
HETATM    7  C   UNL     1      -4.909 -13.239 -36.230  1.00  0.00     0.070 A 
ENDROOT
BRANCH   1   8
HETATM    8  N   UNL     1      -6.658 -13.459 -37.981  1.00  0.00    -0.274 NA
HETATM    9  H   UNL     1      -7.180 -14.338 -38.145  1.00  0.00     0.129 HD
BRANCH   8  10
HETATM   10  C   UNL     1      -7.488 -12.354 -38.472  1.00  0.00     0.132 C 
BRANCH  10  11
HETATM   11  C   UNL     1      -8.722 -12.886 -39.152  1.00  0.00    -0.045 A 
HETATM   12  C   UNL     1      -9.609 -12.006 -39.794  1.00  0.00     0.011 A 
HETATM   13  C   UNL     1     -10.729 -12.486 -40.478  1.00  0.00     0.037 A 
HETATM   14  C   UNL     1     -10.977 -13.856 -40.534  1.00  0.00     0.068 A 
HETATM   15  C   UNL     1     -10.109 -14.736 -39.883  1.00  0.00     0.037 A 
HETATM   16  C   UNL     1      -8.982 -14.261 -39.207  1.00  0.00     0.011 A 
BRANCH  14  17
HETATM   17  O   UNL     1     -12.026 -14.449 -41.177  1.00  0.00    -0.356 OA
HETATM   18  C   UNL     1     -11.714 -15.575 -41.991  1.00  0.00     0.210 C 
ENDBRANCH  14  17
ENDBRANCH  10  11
ENDBRANCH   8  10
ENDBRANCH   1   8
BRANCH   7  19
HETATM   19  C   UNL     1      -3.848 -13.113 -37.270  1.00  0.00     0.259 C 
HETATM   20  N   UNL     1      -3.079 -14.230 -37.515  1.00  0.00    -0.320 N 
HETATM   21  H   UNL     1      -3.285 -15.101 -37.037  1.00  0.00     0.169 HD
HETATM   22  O   UNL     1      -3.724 -12.013 -37.799  1.00  0.00    -0.267 OA
BRANCH  20  23
HETATM   23  C   UNL     1      -1.936 -14.313 -38.357  1.00  0.00     0.075 A 
HETATM   24  C   UNL     1      -2.103 -14.564 -39.726  1.00  0.00     0.152 A 
HETATM   25 CL   UNL     1      -3.678 -14.734 -40.416  1.00  0.00    -0.060 Cl
HETATM   26  N   UNL     1      -1.107 -14.700 -40.627  1.00  0.00    -0.247 NA
HETATM   27  C   UNL     1       0.147 -14.582 -40.148  1.00  0.00     0.118 A 
HETATM   28  C   UNL     1       0.435 -14.333 -38.815  1.00  0.00     0.022 A 
HETATM   29  C   UNL     1      -0.621 -14.194 -37.911  1.00  0.00     0.034 A 
ENDBRANCH  20  23
ENDBRANCH   7  19
TORSDOF 6
ENDMDL
MODEL 8
REMARK VINA RESULT:      -6.9     14.403     15.837
REMARK  6 active torsions:
REMARK  status: ('A' for Active; 'I' for Inactive)
REMARK    1  A    between atoms: O_2  and  C_3 
REMARK    2  A    between atoms: C_6  and  C_7 
REMARK    3  A    between atoms: C_7  and  N_8 
REMARK    4  A    between atoms: N_8  and  C_9 
REMARK    5  A    between atoms: C_15  and  C_16 
REMARK       I    between atoms: C_16  and  N_17 
REMARK    6  A    between atoms: N_17  and  C_18 
ROOT
HETATM    1  C   UNL     1      -3.142 -12.784 -37.908  1.00  0.00     0.096 A 
HETATM    2  N   UNL     1      -2.262 -12.750 -38.926  1.00  0.00    -0.356 N 
HETATM    3  H   UNL     1      -2.548 -12.241 -39.761  1.00  0.00     0.166 HD
HETATM    4  C   UNL     1      -1.085 -13.392 -38.919  1.00  0.00     0.089 A 
HETATM    5  C   UNL     1      -0.726 -14.167 -37.826  1.00  0.00     0.018 A 
HETATM    6  C   UNL     1      -1.620 -14.301 -36.767  1.00  0.00     0.022 A 
HETATM    7  C   UNL     1      -2.853 -13.639 -36.814  1.00  0.00     0.070 A 
ENDROOT
BRANCH   1   8
HETATM    8  N   UNL     1      -4.344 -12.089 -38.058  1.00  0.00    -0.274 NA
HETATM    9  H   UNL     1      -4.211 -11.126 -37.702  1.00  0.00     0.129 HD
BRANCH   8  10
HETATM   10  C   UNL     1      -4.917 -11.986 -39.404  1.00  0.00     0.132 C 
BRANCH  10  11
HETATM   11  C   UNL     1      -6.381 -12.339 -39.381  1.00  0.00    -0.045 A 
HETATM   12  C   UNL     1      -6.997 -12.722 -38.179  1.00  0.00     0.011 A 
HETATM   13  C   UNL     1      -8.365 -12.998 -38.128  1.00  0.00     0.037 A 
HETATM   14  C   UNL     1      -9.141 -12.892 -39.280  1.00  0.00     0.068 A 
HETATM   15  C   UNL     1      -8.533 -12.529 -40.484  1.00  0.00     0.037 A 
HETATM   16  C   UNL     1      -7.166 -12.240 -40.537  1.00  0.00     0.011 A 
BRANCH  14  17
HETATM   17  O   UNL     1     -10.486 -13.123 -39.358  1.00  0.00    -0.356 OA
HETATM   18  C   UNL     1     -10.941 -13.820 -40.514  1.00  0.00     0.210 C 
ENDBRANCH  14  17
ENDBRANCH  10  11
ENDBRANCH   8  10
ENDBRANCH   1   8
BRANCH   7  19
HETATM   19  C   UNL     1      -3.860 -13.773 -35.724  1.00  0.00     0.259 C 
HETATM   20  N   UNL     1      -4.094 -15.043 -35.243  1.00  0.00    -0.320 N 
HETATM   21  H   UNL     1      -3.550 -15.825 -35.592  1.00  0.00     0.169 HD
HETATM   22  O   UNL     1      -4.426 -12.744 -35.367  1.00  0.00    -0.267 OA
BRANCH  20  23
HETATM   23  C   UNL     1      -5.092 -15.433 -34.307  1.00  0.00     0.075 A 
HETATM   24  C   UNL     1      -6.354 -15.831 -34.769  1.00  0.00     0.152 A 
HETATM   25 CL   UNL     1      -6.707 -15.895 -36.458  1.00  0.00    -0.060 Cl
HETATM   26  N   UNL     1      -7.397 -16.193 -33.991  1.00  0.00    -0.247 NA
HETATM   27  C   UNL     1      -7.184 -16.160 -32.660  1.00  0.00     0.118 A 
HETATM   28  C   UNL     1      -5.978 -15.784 -32.089  1.00  0.00     0.022 A 
HETATM   29  C   UNL     1      -4.920 -15.420 -32.924  1.00  0.00     0.034 A 
ENDBRANCH  20  23
ENDBRANCH   7  19
TORSDOF 6
ENDMDL
MODEL 9
REMARK VINA RESULT:      -6.9      5.804      7.846
REMARK  6 active torsions:
REMARK  status: ('A' for Active; 'I' for Inactive)
REMARK    1  A    between atoms: O_2  and  C_3 
REMARK    2  A    between atoms: C_6  and  C_7 
REMARK    3  A    between atoms: C_7  and  N_8 
REMARK    4  A    between atoms: N_8  and  C_9 
REMARK    5  A    between atoms: C_15  and  C_16 
REMARK       I    between atoms: C_16  and  N_17 
REMARK    6  A    between atoms: N_17  and  C_18 
ROOT
HETATM    1  C   UNL     1      -1.776   5.596 -31.786  1.00  0.00     0.096 A 
HETATM    2  N   UNL     1      -1.237   6.705 -32.325  1.00  0.00    -0.356 N 
HETATM    3  H   UNL     1      -1.016   7.465 -31.683  1.00  0.00     0.166 HD
HETATM    4  C   UNL     1      -1.040   6.879 -33.640  1.00  0.00     0.089 A 
HETATM    5  C   UNL     1      -1.425   5.890 -34.533  1.00  0.00     0.018 A 
HETATM    6  C   UNL     1      -2.053   4.745 -34.048  1.00  0.00     0.022 A 
HETATM    7  C   UNL     1      -2.267   4.604 -32.672  1.00  0.00     0.070 A 
ENDROOT
BRANCH   1   8
HETATM    8  N   UNL     1      -1.948   5.558 -30.400  1.00  0.00    -0.274 NA
HETATM    9  H   UNL     1      -1.132   5.075 -29.984  1.00  0.00     0.129 HD
BRANCH   8  10
HETATM   10  C   UNL     1      -2.115   6.831 -29.692  1.00  0.00     0.132 C 
BRANCH  10  11
HETATM   11  C   UNL     1      -0.958   7.069 -28.758  1.00  0.00    -0.045 A 
HETATM   12  C   UNL     1       0.155   7.809 -29.188  1.00  0.00     0.011 A 
HETATM   13  C   UNL     1       1.213   8.088 -28.318  1.00  0.00     0.037 A 
HETATM   14  C   UNL     1       1.171   7.635 -27.002  1.00  0.00     0.068 A 
HETATM   15  C   UNL     1       0.074   6.883 -26.571  1.00  0.00     0.037 A 
HETATM   16  C   UNL     1      -0.991   6.612 -27.435  1.00  0.00     0.011 A 
BRANCH  14  17
HETATM   17  O   UNL     1       2.132   7.851 -26.055  1.00  0.00    -0.356 OA
HETATM   18  C   UNL     1       1.809   8.784 -25.028  1.00  0.00     0.210 C 
ENDBRANCH  14  17
ENDBRANCH  10  11
ENDBRANCH   8  10
ENDBRANCH   1   8
BRANCH   7  19
HETATM   19  C   UNL     1      -2.963   3.415 -32.102  1.00  0.00     0.259 C 
HETATM   20  N   UNL     1      -4.165   3.061 -32.674  1.00  0.00    -0.320 N 
HETATM   21  H   UNL     1      -4.510   3.569 -33.482  1.00  0.00     0.169 HD
HETATM   22  O   UNL     1      -2.423   2.868 -31.145  1.00  0.00    -0.267 OA
BRANCH  20  23
HETATM   23  C   UNL     1      -5.065   2.056 -32.223  1.00  0.00     0.075 A 
HETATM   24  C   UNL     1      -6.119   2.407 -31.368  1.00  0.00     0.152 A 
HETATM   25 CL   UNL     1      -6.369   4.046 -30.885  1.00  0.00    -0.060 Cl
HETATM   26  N   UNL     1      -7.021   1.551 -30.842  1.00  0.00    -0.247 NA
HETATM   27  C   UNL     1      -6.876   0.254 -31.180  1.00  0.00     0.118 A 
HETATM   28  C   UNL     1      -5.873  -0.209 -32.017  1.00  0.00     0.022 A 
HETATM   29  C   UNL     1      -4.960   0.705 -32.547  1.00  0.00     0.034 A 
ENDBRANCH  20  23
ENDBRANCH   7  19
TORSDOF 6
ENDMDL
MODEL 10
REMARK VINA RESULT:      -6.9     13.988     15.791
REMARK  6 active torsions:
REMARK  status: ('A' for Active; 'I' for Inactive)
REMARK    1  A    between atoms: O_2  and  C_3 
REMARK    2  A    between atoms: C_6  and  C_7 
REMARK    3  A    between atoms: C_7  and  N_8 
REMARK    4  A    between atoms: N_8  and  C_9 
REMARK    5  A    between atoms: C_15  and  C_16 
REMARK       I    between atoms: C_16  and  N_17 
REMARK    6  A    between atoms: N_17  and  C_18 
ROOT
HETATM    1  C   UNL     1      -6.453 -12.689 -38.207  1.00  0.00     0.096 A 
HETATM    2  N   UNL     1      -7.744 -12.686 -38.586  1.00  0.00    -0.356 N 
HETATM    3  H   UNL     1      -8.433 -12.898 -37.866  1.00  0.00     0.166 HD
HETATM    4  C   UNL     1      -8.153 -12.486 -39.847  1.00  0.00     0.089 A 
HETATM    5  C   UNL     1      -7.221 -12.292 -40.855  1.00  0.00     0.018 A 
HETATM    6  C   UNL     1      -5.865 -12.351 -40.544  1.00  0.00     0.022 A 
HETATM    7  C   UNL     1      -5.467 -12.586 -39.222  1.00  0.00     0.070 A 
ENDROOT
BRANCH   1   8
HETATM    8  N   UNL     1      -6.165 -12.935 -36.863  1.00  0.00    -0.274 NA
HETATM    9  H   UNL     1      -6.004 -12.026 -36.392  1.00  0.00     0.129 HD
BRANCH   8  10
HETATM   10  C   UNL     1      -7.154 -13.673 -36.071  1.00  0.00     0.132 C 
BRANCH  10  11
HETATM   11  C   UNL     1      -6.592 -14.017 -34.716  1.00  0.00    -0.045 A 
HETATM   12  C   UNL     1      -6.001 -13.020 -33.923  1.00  0.00     0.011 A 
HETATM   13  C   UNL     1      -5.525 -13.309 -32.641  1.00  0.00     0.037 A 
HETATM   14  C   UNL     1      -5.638 -14.600 -32.131  1.00  0.00     0.068 A 
HETATM   15  C   UNL     1      -6.209 -15.602 -32.921  1.00  0.00     0.037 A 
HETATM   16  C   UNL     1      -6.696 -15.314 -34.199  1.00  0.00     0.011 A 
BRANCH  14  17
HETATM   17  O   UNL     1      -5.224 -15.006 -30.894  1.00  0.00    -0.356 OA
HETATM   18  C   UNL     1      -5.597 -16.324 -30.503  1.00  0.00     0.210 C 
ENDBRANCH  14  17
ENDBRANCH  10  11
ENDBRANCH   8  10
ENDBRANCH   1   8
BRANCH   7  19
HETATM   19  C   UNL     1      -4.031 -12.692 -38.839  1.00  0.00     0.259 C 
HETATM   20  N   UNL     1      -3.356 -13.821 -39.251  1.00  0.00    -0.320 N 
HETATM   21  H   UNL     1      -3.824 -14.505 -39.835  1.00  0.00     0.169 HD
HETATM   22  O   UNL     1      -3.574 -11.779 -38.157  1.00  0.00    -0.267 OA
BRANCH  20  23
HETATM   23  C   UNL     1      -2.031 -14.202 -38.899  1.00  0.00     0.075 A 
HETATM   24  C   UNL     1      -1.797 -14.825 -37.666  1.00  0.00     0.152 A 
HETATM   25 CL   UNL     1      -3.095 -15.175 -36.582  1.00  0.00    -0.060 Cl
HETATM   26  N   UNL     1      -0.590 -15.207 -37.196  1.00  0.00    -0.247 NA
HETATM   27  C   UNL     1       0.465 -14.956 -37.997  1.00  0.00     0.118 A 
HETATM   28  C   UNL     1       0.355 -14.347 -39.237  1.00  0.00     0.022 A 
HETATM   29  C   UNL     1      -0.910 -13.969 -39.693  1.00  0.00     0.034 A 
ENDBRANCH  20  23
ENDBRANCH   7  19
TORSDOF 6
ENDMDL
