MODEL 1
REMARK VINA RESULT:      -9.2      0.000      0.000
REMARK  5 active torsions:
REMARK  status: ('A' for Active; 'I' for Inactive)
REMARK    1  A    between atoms: C_4  and  N_5 
REMARK       I    between atoms: N_5  and  C_6 
REMARK       I    between atoms: C_6  and  N_7 
REMARK    2  A    between atoms: N_7  and  C_8 
REMARK    3  A    between atoms: C_10  and  C_11 
REMARK       I    between atoms: C_11  and  N_12 
REMARK    4  A    between atoms: N_12  and  C_13 
REMARK    5  A    between atoms: C_13  and  C_14 
ROOT
HETATM    1  C   UNL     1      -5.426   2.645 -32.207  1.00  0.00     0.175 A 
HETATM    2  S   UNL     1      -4.234   3.304 -31.190  1.00  0.00    -0.044 SA
HETATM    3  C   UNL     1      -3.783   4.413 -32.424  1.00  0.00     0.100 A 
HETATM    4  C   UNL     1      -4.578   4.194 -33.541  1.00  0.00     0.056 A 
HETATM    5  C   UNL     1      -4.523   4.917 -34.841  1.00  0.00     0.072 C 
HETATM    6  N   UNL     1      -5.525   3.193 -33.392  1.00  0.00    -0.228 NA
ENDROOT
BRANCH   1   7
HETATM    7  N   UNL     1      -6.278   1.646 -31.830  1.00  0.00    -0.287 N 
HETATM    8  C   UNL     1      -6.403   0.333 -32.166  1.00  0.00     0.326 C 
HETATM    9  N   UNL     1      -5.689  -0.130 -33.232  1.00  0.00    -0.309 N 
HETATM   10  O   UNL     1      -7.197  -0.332 -31.501  1.00  0.00    -0.247 OA
HETATM   11  H   UNL     1      -5.230   0.575 -33.788  1.00  0.00     0.170 HD
HETATM   12  H   UNL     1      -6.941   1.936 -31.122  1.00  0.00     0.172 HD
BRANCH   9  13
HETATM   13  C   UNL     1      -5.636  -1.446 -33.737  1.00  0.00     0.036 A 
HETATM   14  C   UNL     1      -4.556  -2.313 -33.550  1.00  0.00     0.036 A 
HETATM   15  C   UNL     1      -4.574  -3.615 -34.076  1.00  0.00    -0.060 A 
HETATM   16  C   UNL     1      -3.390  -4.518 -33.889  1.00  0.00     0.048 C 
HETATM   17  C   UNL     1      -5.678  -4.036 -34.823  1.00  0.00     0.007 A 
HETATM   18  C   UNL     1      -6.757  -3.177 -35.021  1.00  0.00     0.003 A 
HETATM   19  C   UNL     1      -6.736  -1.890 -34.482  1.00  0.00     0.029 A 
ENDBRANCH   9  13
ENDBRANCH   1   7
BRANCH   3  20
HETATM   20  C   UNL     1      -2.718   5.388 -32.267  1.00  0.00     0.260 C 
HETATM   21  N   UNL     1      -1.439   4.882 -32.167  1.00  0.00    -0.352 N 
HETATM   22  H   UNL     1      -1.297   3.888 -32.280  1.00  0.00     0.163 HD
HETATM   23  O   UNL     1      -2.931   6.597 -32.217  1.00  0.00    -0.267 OA
BRANCH  21  24
HETATM   24  C   UNL     1      -0.278   5.737 -32.052  1.00  0.00     0.161 C 
BRANCH  24  25
HETATM   25  C   UNL     1       0.116   6.076 -30.631  1.00  0.00    -0.040 A 
HETATM   26  C   UNL     1       0.475   5.118 -29.671  1.00  0.00     0.010 A 
HETATM   27  C   UNL     1       0.825   5.505 -28.373  1.00  0.00     0.024 A 
HETATM   28  C   UNL     1       0.812   6.851 -28.020  1.00  0.00     0.034 A 
HETATM   29 CL   UNL     1       1.239   7.323 -26.421  1.00  0.00    -0.084 Cl
HETATM   30  C   UNL     1       0.451   7.817 -28.954  1.00  0.00     0.024 A 
HETATM   31  C   UNL     1       0.107   7.430 -30.251  1.00  0.00     0.010 A 
ENDBRANCH  24  25
ENDBRANCH  21  24
ENDBRANCH   3  20
TORSDOF 5
ENDMDL
MODEL 2
REMARK VINA RESULT:      -9.1      3.429     10.243
REMARK  5 active torsions:
REMARK  status: ('A' for Active; 'I' for Inactive)
REMARK    1  A    between atoms: C_4  and  N_5 
REMARK       I    between atoms: N_5  and  C_6 
REMARK       I    between atoms: C_6  and  N_7 
REMARK    2  A    between atoms: N_7  and  C_8 
REMARK    3  A    between atoms: C_10  and  C_11 
REMARK       I    between atoms: C_11  and  N_12 
REMARK    4  A    between atoms: N_12  and  C_13 
REMARK    5  A    between atoms: C_13  and  C_14 
ROOT
HETATM    1  C   UNL     1      -3.662   5.684 -32.772  1.00  0.00     0.175 A 
HETATM    2  S   UNL     1      -5.192   5.317 -33.416  1.00  0.00    -0.044 SA
HETATM    3  C   UNL     1      -5.080   3.719 -32.794  1.00  0.00     0.100 A 
HETATM    4  C   UNL     1      -3.866   3.573 -32.138  1.00  0.00     0.056 A 
HETATM    5  C   UNL     1      -3.348   2.352 -31.462  1.00  0.00     0.072 C 
HETATM    6  N   UNL     1      -3.076   4.713 -32.118  1.00  0.00    -0.228 NA
ENDROOT
BRANCH   1   7
HETATM    7  N   UNL     1      -3.074   6.914 -32.864  1.00  0.00    -0.287 N 
HETATM    8  C   UNL     1      -2.252   7.632 -32.052  1.00  0.00     0.326 C 
HETATM    9  N   UNL     1      -2.066   7.193 -30.773  1.00  0.00    -0.309 N 
HETATM   10  O   UNL     1      -1.770   8.660 -32.526  1.00  0.00    -0.247 OA
HETATM   11  H   UNL     1      -2.672   6.444 -30.477  1.00  0.00     0.170 HD
HETATM   12  H   UNL     1      -3.265   7.379 -33.742  1.00  0.00     0.172 HD
BRANCH   9  13
HETATM   13  C   UNL     1      -1.241   7.752 -29.774  1.00  0.00     0.036 A 
HETATM   14  C   UNL     1      -1.635   8.791 -28.926  1.00  0.00     0.036 A 
HETATM   15  C   UNL     1      -0.763   9.295 -27.948  1.00  0.00    -0.060 A 
HETATM   16  C   UNL     1      -1.197  10.431 -27.068  1.00  0.00     0.048 C 
HETATM   17  C   UNL     1       0.528   8.769 -27.844  1.00  0.00     0.007 A 
HETATM   18  C   UNL     1       0.933   7.739 -28.690  1.00  0.00     0.003 A 
HETATM   19  C   UNL     1       0.054   7.234 -29.650  1.00  0.00     0.029 A 
ENDBRANCH   9  13
ENDBRANCH   1   7
BRANCH   3  20
HETATM   20  C   UNL     1      -6.119   2.720 -32.976  1.00  0.00     0.260 C 
HETATM   21  N   UNL     1      -5.889   1.774 -33.953  1.00  0.00    -0.352 N 
HETATM   22  H   UNL     1      -5.001   1.774 -34.433  1.00  0.00     0.163 HD
HETATM   23  O   UNL     1      -7.151   2.712 -32.310  1.00  0.00    -0.267 OA
BRANCH  21  24
HETATM   24  C   UNL     1      -6.816   0.694 -34.214  1.00  0.00     0.161 C 
BRANCH  24  25
HETATM   25  C   UNL     1      -6.191  -0.683 -34.229  1.00  0.00    -0.040 A 
HETATM   26  C   UNL     1      -6.806  -1.813 -34.787  1.00  0.00     0.010 A 
HETATM   27  C   UNL     1      -6.169  -3.059 -34.762  1.00  0.00     0.024 A 
HETATM   28  C   UNL     1      -4.914  -3.188 -34.172  1.00  0.00     0.034 A 
HETATM   29 CL   UNL     1      -4.135  -4.721 -34.139  1.00  0.00    -0.084 Cl
HETATM   30  C   UNL     1      -4.290  -2.081 -33.605  1.00  0.00     0.024 A 
HETATM   31  C   UNL     1      -4.924  -0.837 -33.636  1.00  0.00     0.010 A 
ENDBRANCH  24  25
ENDBRANCH  21  24
ENDBRANCH   3  20
TORSDOF 5
ENDMDL
MODEL 3
REMARK VINA RESULT:      -8.9      3.477      9.670
REMARK  5 active torsions:
REMARK  status: ('A' for Active; 'I' for Inactive)
REMARK    1  A    between atoms: C_4  and  N_5 
REMARK       I    between atoms: N_5  and  C_6 
REMARK       I    between atoms: C_6  and  N_7 
REMARK    2  A    between atoms: N_7  and  C_8 
REMARK    3  A    between atoms: C_10  and  C_11 
REMARK       I    between atoms: C_11  and  N_12 
REMARK    4  A    between atoms: N_12  and  C_13 
REMARK    5  A    between atoms: C_13  and  C_14 
ROOT
HETATM    1  C   UNL     1      -5.989   4.423 -30.665  1.00  0.00     0.175 A 
HETATM    2  S   UNL     1      -6.957   3.978 -31.991  1.00  0.00    -0.044 SA
HETATM    3  C   UNL     1      -6.876   2.330 -31.507  1.00  0.00     0.100 A 
HETATM    4  C   UNL     1      -6.101   2.233 -30.360  1.00  0.00     0.056 A 
HETATM    5  C   UNL     1      -5.757   0.995 -29.607  1.00  0.00     0.072 C 
HETATM    6  N   UNL     1      -5.618   3.441 -29.882  1.00  0.00    -0.228 NA
ENDROOT
BRANCH   1   7
HETATM    7  N   UNL     1      -5.644   5.712 -30.376  1.00  0.00    -0.287 N 
HETATM    8  C   UNL     1      -4.470   6.400 -30.379  1.00  0.00     0.326 C 
HETATM    9  N   UNL     1      -3.310   5.695 -30.509  1.00  0.00    -0.309 N 
HETATM   10  O   UNL     1      -4.546   7.618 -30.216  1.00  0.00    -0.247 OA
HETATM   11  H   UNL     1      -3.400   4.693 -30.445  1.00  0.00     0.170 HD
HETATM   12  H   UNL     1      -6.439   6.291 -30.137  1.00  0.00     0.172 HD
BRANCH   9  13
HETATM   13  C   UNL     1      -1.992   6.194 -30.571  1.00  0.00     0.036 A 
HETATM   14  C   UNL     1      -1.288   6.682 -29.467  1.00  0.00     0.036 A 
HETATM   15  C   UNL     1       0.026   7.159 -29.601  1.00  0.00    -0.060 A 
HETATM   16  C   UNL     1       0.752   7.707 -28.407  1.00  0.00     0.048 C 
HETATM   17  C   UNL     1       0.625   7.171 -30.864  1.00  0.00     0.007 A 
HETATM   18  C   UNL     1      -0.071   6.693 -31.972  1.00  0.00     0.003 A 
HETATM   19  C   UNL     1      -1.372   6.208 -31.827  1.00  0.00     0.029 A 
ENDBRANCH   9  13
ENDBRANCH   1   7
BRANCH   3  20
HETATM   20  C   UNL     1      -7.525   1.254 -32.237  1.00  0.00     0.260 C 
HETATM   21  N   UNL     1      -6.849   0.774 -33.340  1.00  0.00    -0.352 N 
HETATM   22  H   UNL     1      -5.926   1.131 -33.541  1.00  0.00     0.163 HD
HETATM   23  O   UNL     1      -8.615   0.796 -31.906  1.00  0.00    -0.267 OA
BRANCH  21  24
HETATM   24  C   UNL     1      -7.354  -0.324 -34.134  1.00  0.00     0.161 C 
BRANCH  24  25
HETATM   25  C   UNL     1      -6.445  -1.532 -34.190  1.00  0.00    -0.040 A 
HETATM   26  C   UNL     1      -6.830  -2.775 -34.713  1.00  0.00     0.010 A 
HETATM   27  C   UNL     1      -5.935  -3.851 -34.729  1.00  0.00     0.024 A 
HETATM   28  C   UNL     1      -4.650  -3.696 -34.216  1.00  0.00     0.034 A 
HETATM   29 CL   UNL     1      -3.554  -5.022 -34.234  1.00  0.00    -0.084 Cl
HETATM   30  C   UNL     1      -4.250  -2.474 -33.685  1.00  0.00     0.024 A 
HETATM   31  C   UNL     1      -5.142  -1.399 -33.675  1.00  0.00     0.010 A 
ENDBRANCH  24  25
ENDBRANCH  21  24
ENDBRANCH   3  20
TORSDOF 5
ENDMDL
MODEL 4
REMARK VINA RESULT:      -8.5      1.783      2.451
REMARK  5 active torsions:
REMARK  status: ('A' for Active; 'I' for Inactive)
REMARK    1  A    between atoms: C_4  and  N_5 
REMARK       I    between atoms: N_5  and  C_6 
REMARK       I    between atoms: C_6  and  N_7 
REMARK    2  A    between atoms: N_7  and  C_8 
REMARK    3  A    between atoms: C_10  and  C_11 
REMARK       I    between atoms: C_11  and  N_12 
REMARK    4  A    between atoms: N_12  and  C_13 
REMARK    5  A    between atoms: C_13  and  C_14 
ROOT
HETATM    1  C   UNL     1      -6.825   2.970 -33.134  1.00  0.00     0.175 A 
HETATM    2  S   UNL     1      -6.284   4.371 -33.931  1.00  0.00    -0.044 SA
HETATM    3  C   UNL     1      -5.494   4.892 -32.496  1.00  0.00     0.100 A 
HETATM    4  C   UNL     1      -5.707   3.954 -31.496  1.00  0.00     0.056 A 
HETATM    5  C   UNL     1      -5.217   4.008 -30.091  1.00  0.00     0.072 C 
HETATM    6  N   UNL     1      -6.454   2.852 -31.883  1.00  0.00    -0.228 NA
ENDROOT
BRANCH   1   7
HETATM    7  N   UNL     1      -7.554   1.986 -33.738  1.00  0.00    -0.287 N 
HETATM    8  C   UNL     1      -7.337   0.667 -33.990  1.00  0.00     0.326 C 
HETATM    9  N   UNL     1      -6.079   0.173 -33.797  1.00  0.00    -0.309 N 
HETATM   10  O   UNL     1      -8.293   0.024 -34.420  1.00  0.00    -0.247 OA
HETATM   11  H   UNL     1      -5.364   0.861 -33.623  1.00  0.00     0.170 HD
HETATM   12  H   UNL     1      -8.470   2.298 -34.037  1.00  0.00     0.172 HD
BRANCH   9  13
HETATM   13  C   UNL     1      -5.633  -1.155 -33.960  1.00  0.00     0.036 A 
HETATM   14  C   UNL     1      -6.329  -2.132 -34.678  1.00  0.00     0.036 A 
HETATM   15  C   UNL     1      -5.822  -3.435 -34.805  1.00  0.00    -0.060 A 
HETATM   16  C   UNL     1      -6.602  -4.475 -35.556  1.00  0.00     0.048 C 
HETATM   17  C   UNL     1      -4.617  -3.765 -34.177  1.00  0.00     0.007 A 
HETATM   18  C   UNL     1      -3.919  -2.801 -33.453  1.00  0.00     0.003 A 
HETATM   19  C   UNL     1      -4.425  -1.504 -33.345  1.00  0.00     0.029 A 
ENDBRANCH   9  13
ENDBRANCH   1   7
BRANCH   3  20
HETATM   20  C   UNL     1      -4.751   6.138 -32.404  1.00  0.00     0.260 C 
HETATM   21  N   UNL     1      -3.431   6.089 -32.801  1.00  0.00    -0.352 N 
HETATM   22  H   UNL     1      -3.071   5.232 -33.196  1.00  0.00     0.163 HD
HETATM   23  O   UNL     1      -5.256   7.179 -31.991  1.00  0.00    -0.267 OA
BRANCH  21  24
HETATM   24  C   UNL     1      -2.584   7.261 -32.805  1.00  0.00     0.161 C 
BRANCH  24  25
HETATM   25  C   UNL     1      -1.617   7.344 -31.644  1.00  0.00    -0.040 A 
HETATM   26  C   UNL     1      -0.356   6.730 -31.634  1.00  0.00     0.010 A 
HETATM   27  C   UNL     1       0.486   6.847 -30.522  1.00  0.00     0.024 A 
HETATM   28  C   UNL     1       0.071   7.571 -29.407  1.00  0.00     0.034 A 
HETATM   29 CL   UNL     1       1.106   7.709 -28.040  1.00  0.00    -0.084 Cl
HETATM   30  C   UNL     1      -1.180   8.181 -29.393  1.00  0.00     0.024 A 
HETATM   31  C   UNL     1      -2.016   8.069 -30.506  1.00  0.00     0.010 A 
ENDBRANCH  24  25
ENDBRANCH  21  24
ENDBRANCH   3  20
TORSDOF 5
ENDMDL
MODEL 5
REMARK VINA RESULT:      -8.4      3.478     10.353
REMARK  5 active torsions:
REMARK  status: ('A' for Active; 'I' for Inactive)
REMARK    1  A    between atoms: C_4  and  N_5 
REMARK       I    between atoms: N_5  and  C_6 
REMARK       I    between atoms: C_6  and  N_7 
REMARK    2  A    between atoms: N_7  and  C_8 
REMARK    3  A    between atoms: C_10  and  C_11 
REMARK       I    between atoms: C_11  and  N_12 
REMARK    4  A    between atoms: N_12  and  C_13 
REMARK    5  A    between atoms: C_13  and  C_14 
ROOT
HETATM    1  C   UNL     1      -2.595   4.504 -31.610  1.00  0.00     0.175 A 
HETATM    2  S   UNL     1      -3.043   2.905 -31.977  1.00  0.00    -0.044 SA
HETATM    3  C   UNL     1      -4.699   3.311 -31.759  1.00  0.00     0.100 A 
HETATM    4  C   UNL     1      -4.795   4.650 -31.410  1.00  0.00     0.056 A 
HETATM    5  C   UNL     1      -6.035   5.419 -31.115  1.00  0.00     0.072 C 
HETATM    6  N   UNL     1      -3.583   5.322 -31.348  1.00  0.00    -0.228 NA
ENDROOT
BRANCH   1   7
HETATM    7  N   UNL     1      -1.305   4.954 -31.628  1.00  0.00    -0.287 N 
HETATM    8  C   UNL     1      -0.544   5.676 -30.763  1.00  0.00     0.326 C 
HETATM    9  N   UNL     1      -1.165   6.280 -29.708  1.00  0.00    -0.309 N 
HETATM   10  O   UNL     1       0.654   5.768 -31.027  1.00  0.00    -0.247 OA
HETATM   11  H   UNL     1      -2.173   6.268 -29.731  1.00  0.00     0.170 HD
HETATM   12  H   UNL     1      -0.794   4.658 -32.450  1.00  0.00     0.172 HD
BRANCH   9  13
HETATM   13  C   UNL     1      -0.580   7.044 -28.676  1.00  0.00     0.036 A 
HETATM   14  C   UNL     1      -0.867   8.391 -28.441  1.00  0.00     0.036 A 
HETATM   15  C   UNL     1      -0.251   9.089 -27.389  1.00  0.00    -0.060 A 
HETATM   16  C   UNL     1      -0.552  10.543 -27.174  1.00  0.00     0.048 C 
HETATM   17  C   UNL     1       0.687   8.431 -26.588  1.00  0.00     0.007 A 
HETATM   18  C   UNL     1       0.986   7.090 -26.819  1.00  0.00     0.003 A 
HETATM   19  C   UNL     1       0.357   6.401 -27.858  1.00  0.00     0.029 A 
ENDBRANCH   9  13
ENDBRANCH   1   7
BRANCH   3  20
HETATM   20  C   UNL     1      -5.780   2.352 -31.914  1.00  0.00     0.260 C 
HETATM   21  N   UNL     1      -5.908   1.776 -33.160  1.00  0.00    -0.352 N 
HETATM   22  H   UNL     1      -5.219   1.984 -33.868  1.00  0.00     0.163 HD
HETATM   23  O   UNL     1      -6.548   2.069 -30.998  1.00  0.00    -0.267 OA
BRANCH  21  24
HETATM   24  C   UNL     1      -6.911   0.773 -33.446  1.00  0.00     0.161 C 
BRANCH  24  25
HETATM   25  C   UNL     1      -6.359  -0.603 -33.745  1.00  0.00    -0.040 A 
HETATM   26  C   UNL     1      -5.030  -0.981 -33.497  1.00  0.00     0.010 A 
HETATM   27  C   UNL     1      -4.588  -2.273 -33.802  1.00  0.00     0.024 A 
HETATM   28  C   UNL     1      -5.465  -3.196 -34.365  1.00  0.00     0.034 A 
HETATM   29 CL   UNL     1      -4.916  -4.782 -34.743  1.00  0.00    -0.084 Cl
HETATM   30  C   UNL     1      -6.785  -2.839 -34.626  1.00  0.00     0.024 A 
HETATM   31  C   UNL     1      -7.227  -1.551 -34.316  1.00  0.00     0.010 A 
ENDBRANCH  24  25
ENDBRANCH  21  24
ENDBRANCH   3  20
TORSDOF 5
ENDMDL
MODEL 6
REMARK VINA RESULT:      -8.3      3.489      9.967
REMARK  5 active torsions:
REMARK  status: ('A' for Active; 'I' for Inactive)
REMARK    1  A    between atoms: C_4  and  N_5 
REMARK       I    between atoms: N_5  and  C_6 
REMARK       I    between atoms: C_6  and  N_7 
REMARK    2  A    between atoms: N_7  and  C_8 
REMARK    3  A    between atoms: C_10  and  C_11 
REMARK       I    between atoms: C_11  and  N_12 
REMARK    4  A    between atoms: N_12  and  C_13 
REMARK    5  A    between atoms: C_13  and  C_14 
ROOT
HETATM    1  C   UNL     1      -5.144   5.112 -30.797  1.00  0.00     0.175 A 
HETATM    2  S   UNL     1      -6.645   4.341 -31.003  1.00  0.00    -0.044 SA
HETATM    3  C   UNL     1      -5.849   2.919 -31.550  1.00  0.00     0.100 A 
HETATM    4  C   UNL     1      -4.479   3.137 -31.546  1.00  0.00     0.056 A 
HETATM    5  C   UNL     1      -3.413   2.182 -31.955  1.00  0.00     0.072 C 
HETATM    6  N   UNL     1      -4.092   4.390 -31.094  1.00  0.00    -0.228 NA
ENDROOT
BRANCH   1   7
HETATM    7  N   UNL     1      -5.002   6.380 -30.309  1.00  0.00    -0.287 N 
HETATM    8  C   UNL     1      -3.954   7.087 -29.806  1.00  0.00     0.326 C 
HETATM    9  N   UNL     1      -2.802   6.416 -29.520  1.00  0.00    -0.309 N 
HETATM   10  O   UNL     1      -4.146   8.286 -29.603  1.00  0.00    -0.247 OA
HETATM   11  H   UNL     1      -2.861   5.410 -29.564  1.00  0.00     0.170 HD
HETATM   12  H   UNL     1      -5.855   6.922 -30.362  1.00  0.00     0.172 HD
BRANCH   9  13
HETATM   13  C   UNL     1      -1.589   6.942 -29.027  1.00  0.00     0.036 A 
HETATM   14  C   UNL     1      -1.414   7.415 -27.724  1.00  0.00     0.036 A 
HETATM   15  C   UNL     1      -0.175   7.921 -27.299  1.00  0.00    -0.060 A 
HETATM   16  C   UNL     1      -0.018   8.452 -25.903  1.00  0.00     0.048 C 
HETATM   17  C   UNL     1       0.889   7.978 -28.204  1.00  0.00     0.007 A 
HETATM   18  C   UNL     1       0.723   7.516 -29.508  1.00  0.00     0.003 A 
HETATM   19  C   UNL     1      -0.509   7.001 -29.917  1.00  0.00     0.029 A 
ENDBRANCH   9  13
ENDBRANCH   1   7
BRANCH   3  20
HETATM   20  C   UNL     1      -6.557   1.717 -31.956  1.00  0.00     0.260 C 
HETATM   21  N   UNL     1      -6.393   1.328 -33.270  1.00  0.00    -0.352 N 
HETATM   22  H   UNL     1      -5.747   1.840 -33.853  1.00  0.00     0.163 HD
HETATM   23  O   UNL     1      -7.271   1.079 -31.186  1.00  0.00    -0.267 OA
BRANCH  21  24
HETATM   24  C   UNL     1      -7.002   0.128 -33.800  1.00  0.00     0.161 C 
BRANCH  24  25
HETATM   25  C   UNL     1      -6.086  -1.074 -33.851  1.00  0.00    -0.040 A 
HETATM   26  C   UNL     1      -4.844  -1.137 -33.201  1.00  0.00     0.010 A 
HETATM   27  C   UNL     1      -4.047  -2.283 -33.295  1.00  0.00     0.024 A 
HETATM   28  C   UNL     1      -4.478  -3.372 -34.046  1.00  0.00     0.034 A 
HETATM   29 CL   UNL     1      -3.493  -4.777 -34.164  1.00  0.00    -0.084 Cl
HETATM   30  C   UNL     1      -5.702  -3.328 -34.706  1.00  0.00     0.024 A 
HETATM   31  C   UNL     1      -6.501  -2.186 -34.606  1.00  0.00     0.010 A 
ENDBRANCH  24  25
ENDBRANCH  21  24
ENDBRANCH   3  20
TORSDOF 5
ENDMDL
MODEL 7
REMARK VINA RESULT:      -7.8      4.194     10.062
REMARK  5 active torsions:
REMARK  status: ('A' for Active; 'I' for Inactive)
REMARK    1  A    between atoms: C_4  and  N_5 
REMARK       I    between atoms: N_5  and  C_6 
REMARK       I    between atoms: C_6  and  N_7 
REMARK    2  A    between atoms: N_7  and  C_8 
REMARK    3  A    between atoms: C_10  and  C_11 
REMARK       I    between atoms: C_11  and  N_12 
REMARK    4  A    between atoms: N_12  and  C_13 
REMARK    5  A    between atoms: C_13  and  C_14 
ROOT
HETATM    1  C   UNL     1      -5.963   4.717 -30.045  1.00  0.00     0.175 A 
HETATM    2  S   UNL     1      -7.121   4.045 -31.094  1.00  0.00    -0.044 SA
HETATM    3  C   UNL     1      -5.868   3.367 -32.056  1.00  0.00     0.100 A 
HETATM    4  C   UNL     1      -4.641   3.710 -31.508  1.00  0.00     0.056 A 
HETATM    5  C   UNL     1      -3.291   3.348 -32.022  1.00  0.00     0.072 C 
HETATM    6  N   UNL     1      -4.714   4.467 -30.348  1.00  0.00    -0.228 NA
ENDROOT
BRANCH   1   7
HETATM    7  N   UNL     1      -6.277   5.432 -28.925  1.00  0.00    -0.287 N 
HETATM    8  C   UNL     1      -5.590   6.298 -28.132  1.00  0.00     0.326 C 
HETATM    9  N   UNL     1      -4.240   6.398 -28.306  1.00  0.00    -0.309 N 
HETATM   10  O   UNL     1      -6.241   6.897 -27.277  1.00  0.00    -0.247 OA
HETATM   11  H   UNL     1      -3.827   5.709 -28.915  1.00  0.00     0.170 HD
HETATM   12  H   UNL     1      -7.241   5.317 -28.639  1.00  0.00     0.172 HD
BRANCH   9  13
HETATM   13  C   UNL     1      -3.337   7.245 -27.629  1.00  0.00     0.036 A 
HETATM   14  C   UNL     1      -2.880   8.465 -28.135  1.00  0.00     0.036 A 
HETATM   15  C   UNL     1      -1.984   9.261 -27.402  1.00  0.00    -0.060 A 
HETATM   16  C   UNL     1      -1.483  10.553 -27.979  1.00  0.00     0.048 C 
HETATM   17  C   UNL     1      -1.523   8.809 -26.163  1.00  0.00     0.007 A 
HETATM   18  C   UNL     1      -1.967   7.591 -25.653  1.00  0.00     0.003 A 
HETATM   19  C   UNL     1      -2.868   6.813 -26.382  1.00  0.00     0.029 A 
ENDBRANCH   9  13
ENDBRANCH   1   7
BRANCH   3  20
HETATM   20  C   UNL     1      -6.121   2.581 -33.252  1.00  0.00     0.260 C 
HETATM   21  N   UNL     1      -6.418   1.249 -33.053  1.00  0.00    -0.352 N 
HETATM   22  H   UNL     1      -6.517   0.906 -32.108  1.00  0.00     0.163 HD
HETATM   23  O   UNL     1      -6.068   3.061 -34.381  1.00  0.00    -0.267 OA
BRANCH  21  24
HETATM   24  C   UNL     1      -6.734   0.358 -34.147  1.00  0.00     0.161 C 
BRANCH  24  25
HETATM   25  C   UNL     1      -5.956  -0.939 -34.149  1.00  0.00    -0.040 A 
HETATM   26  C   UNL     1      -6.355  -2.088 -34.849  1.00  0.00     0.010 A 
HETATM   27  C   UNL     1      -5.585  -3.255 -34.802  1.00  0.00     0.024 A 
HETATM   28  C   UNL     1      -4.413  -3.288 -34.050  1.00  0.00     0.034 A 
HETATM   29 CL   UNL     1      -3.471  -4.726 -33.992  1.00  0.00    -0.084 Cl
HETATM   30  C   UNL     1      -4.003  -2.162 -33.343  1.00  0.00     0.024 A 
HETATM   31  C   UNL     1      -4.770  -0.995 -33.395  1.00  0.00     0.010 A 
ENDBRANCH  24  25
ENDBRANCH  21  24
ENDBRANCH   3  20
TORSDOF 5
ENDMDL
MODEL 8
REMARK VINA RESULT:      -7.8      3.621     10.263
REMARK  5 active torsions:
REMARK  status: ('A' for Active; 'I' for Inactive)
REMARK    1  A    between atoms: C_4  and  N_5 
REMARK       I    between atoms: N_5  and  C_6 
REMARK       I    between atoms: C_6  and  N_7 
REMARK    2  A    between atoms: N_7  and  C_8 
REMARK    3  A    between atoms: C_10  and  C_11 
REMARK       I    between atoms: C_11  and  N_12 
REMARK    4  A    between atoms: N_12  and  C_13 
REMARK    5  A    between atoms: C_13  and  C_14 
ROOT
HETATM    1  C   UNL     1      -4.467   6.426 -31.677  1.00  0.00     0.175 A 
HETATM    2  S   UNL     1      -4.006   4.814 -31.393  1.00  0.00    -0.044 SA
HETATM    3  C   UNL     1      -5.647   4.384 -31.118  1.00  0.00     0.100 A 
HETATM    4  C   UNL     1      -6.440   5.514 -31.256  1.00  0.00     0.056 A 
HETATM    5  C   UNL     1      -7.917   5.603 -31.093  1.00  0.00     0.072 C 
HETATM    6  N   UNL     1      -5.751   6.669 -31.595  1.00  0.00    -0.228 NA
ENDROOT
BRANCH   1   7
HETATM    7  N   UNL     1      -3.593   7.416 -32.022  1.00  0.00    -0.287 N 
HETATM    8  C   UNL     1      -2.537   8.004 -31.397  1.00  0.00     0.326 C 
HETATM    9  N   UNL     1      -2.345   7.743 -30.072  1.00  0.00    -0.309 N 
HETATM   10  O   UNL     1      -1.854   8.772 -32.075  1.00  0.00    -0.247 OA
HETATM   11  H   UNL     1      -3.092   7.245 -29.614  1.00  0.00     0.170 HD
HETATM   12  H   UNL     1      -3.742   7.769 -32.958  1.00  0.00     0.172 HD
BRANCH   9  13
HETATM   13  C   UNL     1      -1.309   8.209 -29.235  1.00  0.00     0.036 A 
HETATM   14  C   UNL     1      -1.420   9.325 -28.400  1.00  0.00     0.036 A 
HETATM   15  C   UNL     1      -0.348   9.729 -27.588  1.00  0.00    -0.060 A 
HETATM   16  C   UNL     1      -0.480  10.948 -26.722  1.00  0.00     0.048 C 
HETATM   17  C   UNL     1       0.856   9.021 -27.640  1.00  0.00     0.007 A 
HETATM   18  C   UNL     1       0.979   7.912 -28.475  1.00  0.00     0.003 A 
HETATM   19  C   UNL     1      -0.097   7.509 -29.268  1.00  0.00     0.029 A 
ENDBRANCH   9  13
ENDBRANCH   1   7
BRANCH   3  20
HETATM   20  C   UNL     1      -6.070   3.035 -30.781  1.00  0.00     0.260 C 
HETATM   21  N   UNL     1      -6.933   2.428 -31.669  1.00  0.00    -0.352 N 
HETATM   22  H   UNL     1      -7.167   2.907 -32.527  1.00  0.00     0.163 HD
HETATM   23  O   UNL     1      -5.695   2.461 -29.762  1.00  0.00    -0.267 OA
BRANCH  21  24
HETATM   24  C   UNL     1      -7.402   1.072 -31.484  1.00  0.00     0.161 C 
BRANCH  24  25
HETATM   25  C   UNL     1      -6.674   0.036 -32.311  1.00  0.00    -0.040 A 
HETATM   26  C   UNL     1      -5.378  -0.420 -32.027  1.00  0.00     0.010 A 
HETATM   27  C   UNL     1      -4.765  -1.380 -32.840  1.00  0.00     0.024 A 
HETATM   28  C   UNL     1      -5.438  -1.887 -33.948  1.00  0.00     0.034 A 
HETATM   29 CL   UNL     1      -4.679  -3.064 -34.947  1.00  0.00    -0.084 Cl
HETATM   30  C   UNL     1      -6.721  -1.443 -34.252  1.00  0.00     0.024 A 
HETATM   31  C   UNL     1      -7.334  -0.489 -33.437  1.00  0.00     0.010 A 
ENDBRANCH  24  25
ENDBRANCH  21  24
ENDBRANCH   3  20
TORSDOF 5
ENDMDL
MODEL 9
REMARK VINA RESULT:      -7.7      1.821      2.468
REMARK  5 active torsions:
REMARK  status: ('A' for Active; 'I' for Inactive)
REMARK    1  A    between atoms: C_4  and  N_5 
REMARK       I    between atoms: N_5  and  C_6 
REMARK       I    between atoms: C_6  and  N_7 
REMARK    2  A    between atoms: N_7  and  C_8 
REMARK    3  A    between atoms: C_10  and  C_11 
REMARK       I    between atoms: C_11  and  N_12 
REMARK    4  A    between atoms: N_12  and  C_13 
REMARK    5  A    between atoms: C_13  and  C_14 
ROOT
HETATM    1  C   UNL     1      -5.860   4.328 -31.457  1.00  0.00     0.175 A 
HETATM    2  S   UNL     1      -4.372   4.411 -32.277  1.00  0.00    -0.044 SA
HETATM    3  C   UNL     1      -3.755   5.465 -31.067  1.00  0.00     0.100 A 
HETATM    4  C   UNL     1      -4.741   5.689 -30.117  1.00  0.00     0.056 A 
HETATM    5  C   UNL     1      -4.645   6.547 -28.904  1.00  0.00     0.072 C 
HETATM    6  N   UNL     1      -5.932   5.016 -30.345  1.00  0.00    -0.228 NA
ENDROOT
BRANCH   1   7
HETATM    7  N   UNL     1      -6.914   3.566 -31.873  1.00  0.00    -0.287 N 
HETATM    8  C   UNL     1      -7.029   2.310 -32.384  1.00  0.00     0.326 C 
HETATM    9  N   UNL     1      -5.891   1.665 -32.770  1.00  0.00    -0.309 N 
HETATM   10  O   UNL     1      -8.171   1.866 -32.502  1.00  0.00    -0.247 OA
HETATM   11  H   UNL     1      -5.055   2.228 -32.785  1.00  0.00     0.170 HD
HETATM   12  H   UNL     1      -7.808   4.021 -31.743  1.00  0.00     0.172 HD
BRANCH   9  13
HETATM   13  C   UNL     1      -5.766   0.360 -33.291  1.00  0.00     0.036 A 
HETATM   14  C   UNL     1      -4.815  -0.568 -32.857  1.00  0.00     0.036 A 
HETATM   15  C   UNL     1      -4.752  -1.854 -33.416  1.00  0.00    -0.060 A 
HETATM   16  C   UNL     1      -3.702  -2.824 -32.956  1.00  0.00     0.048 C 
HETATM   17  C   UNL     1      -5.635  -2.199 -34.443  1.00  0.00     0.007 A 
HETATM   18  C   UNL     1      -6.582  -1.279 -34.889  1.00  0.00     0.003 A 
HETATM   19  C   UNL     1      -6.647  -0.007 -34.316  1.00  0.00     0.029 A 
ENDBRANCH   9  13
ENDBRANCH   1   7
BRANCH   3  20
HETATM   20  C   UNL     1      -2.411   6.014 -31.102  1.00  0.00     0.260 C 
HETATM   21  N   UNL     1      -1.492   5.429 -30.255  1.00  0.00    -0.352 N 
HETATM   22  H   UNL     1      -1.769   4.619 -29.719  1.00  0.00     0.163 HD
HETATM   23  O   UNL     1      -2.099   6.951 -31.832  1.00  0.00    -0.267 OA
BRANCH  21  24
HETATM   24  C   UNL     1      -0.107   5.844 -30.215  1.00  0.00     0.161 C 
BRANCH  24  25
HETATM   25  C   UNL     1       0.282   6.621 -28.978  1.00  0.00    -0.040 A 
HETATM   26  C   UNL     1       0.995   7.828 -29.007  1.00  0.00     0.010 A 
HETATM   27  C   UNL     1       1.324   8.492 -27.819  1.00  0.00     0.024 A 
HETATM   28  C   UNL     1       0.950   7.951 -26.592  1.00  0.00     0.034 A 
HETATM   29 CL   UNL     1       1.360   8.767 -25.134  1.00  0.00    -0.084 Cl
HETATM   30  C   UNL     1       0.249   6.750 -26.540  1.00  0.00     0.024 A 
HETATM   31  C   UNL     1      -0.084   6.092 -27.726  1.00  0.00     0.010 A 
ENDBRANCH  24  25
ENDBRANCH  21  24
ENDBRANCH   3  20
TORSDOF 5
ENDMDL
MODEL 10
REMARK VINA RESULT:      -7.7      2.270      2.873
REMARK  5 active torsions:
REMARK  status: ('A' for Active; 'I' for Inactive)
REMARK    1  A    between atoms: C_4  and  N_5 
REMARK       I    between atoms: N_5  and  C_6 
REMARK       I    between atoms: C_6  and  N_7 
REMARK    2  A    between atoms: N_7  and  C_8 
REMARK    3  A    between atoms: C_10  and  C_11 
REMARK       I    between atoms: C_11  and  N_12 
REMARK    4  A    between atoms: N_12  and  C_13 
REMARK    5  A    between atoms: C_13  and  C_14 
ROOT
HETATM    1  C   UNL     1      -7.418   3.573 -30.801  1.00  0.00     0.175 A 
HETATM    2  S   UNL     1      -6.678   4.580 -31.954  1.00  0.00    -0.044 SA
HETATM    3  C   UNL     1      -5.970   5.514 -30.697  1.00  0.00     0.100 A 
HETATM    4  C   UNL     1      -6.359   4.991 -29.471  1.00  0.00     0.056 A 
HETATM    5  C   UNL     1      -5.991   5.494 -28.119  1.00  0.00     0.072 C 
HETATM    6  N   UNL     1      -7.171   3.870 -29.550  1.00  0.00    -0.228 NA
ENDROOT
BRANCH   1   7
HETATM    7  N   UNL     1      -8.183   2.487 -31.121  1.00  0.00    -0.287 N 
HETATM    8  C   UNL     1      -7.921   1.285 -31.701  1.00  0.00     0.326 C 
HETATM    9  N   UNL     1      -6.703   1.105 -32.289  1.00  0.00    -0.309 N 
HETATM   10  O   UNL     1      -8.833   0.459 -31.692  1.00  0.00    -0.247 OA
HETATM   11  H   UNL     1      -6.136   1.933 -32.378  1.00  0.00     0.170 HD
HETATM   12  H   UNL     1      -9.148   2.585 -30.834  1.00  0.00     0.172 HD
BRANCH   9  13
HETATM   13  C   UNL     1      -6.204  -0.057 -32.916  1.00  0.00     0.036 A 
HETATM   14  C   UNL     1      -5.127  -0.805 -32.433  1.00  0.00     0.036 A 
HETATM   15  C   UNL     1      -4.687  -1.956 -33.106  1.00  0.00    -0.060 A 
HETATM   16  C   UNL     1      -3.510  -2.728 -32.586  1.00  0.00     0.048 C 
HETATM   17  C   UNL     1      -5.320  -2.339 -34.293  1.00  0.00     0.007 A 
HETATM   18  C   UNL     1      -6.389  -1.595 -34.787  1.00  0.00     0.003 A 
HETATM   19  C   UNL     1      -6.829  -0.460 -34.102  1.00  0.00     0.029 A 
ENDBRANCH   9  13
ENDBRANCH   1   7
BRANCH   3  20
HETATM   20  C   UNL     1      -5.122   6.668 -30.943  1.00  0.00     0.260 C 
HETATM   21  N   UNL     1      -3.834   6.399 -31.354  1.00  0.00    -0.352 N 
HETATM   22  H   UNL     1      -3.567   5.441 -31.532  1.00  0.00     0.163 HD
HETATM   23  O   UNL     1      -5.516   7.821 -30.790  1.00  0.00    -0.267 OA
BRANCH  21  24
HETATM   24  C   UNL     1      -2.893   7.449 -31.678  1.00  0.00     0.161 C 
BRANCH  24  25
HETATM   25  C   UNL     1      -1.824   7.681 -30.634  1.00  0.00    -0.040 A 
HETATM   26  C   UNL     1      -1.969   8.560 -29.549  1.00  0.00     0.010 A 
HETATM   27  C   UNL     1      -0.934   8.726 -28.622  1.00  0.00     0.024 A 
HETATM   28  C   UNL     1       0.258   8.024 -28.775  1.00  0.00     0.034 A 
HETATM   29 CL   UNL     1       1.529   8.235 -27.636  1.00  0.00    -0.084 Cl
HETATM   30  C   UNL     1       0.426   7.153 -29.847  1.00  0.00     0.024 A 
HETATM   31  C   UNL     1      -0.610   6.983 -30.769  1.00  0.00     0.010 A 
ENDBRANCH  24  25
ENDBRANCH  21  24
ENDBRANCH   3  20
TORSDOF 5
ENDMDL
