MODEL 1
REMARK VINA RESULT:      -8.9      0.000      0.000
REMARK  6 active torsions:
REMARK  status: ('A' for Active; 'I' for Inactive)
REMARK    1  A    between atoms: C_2  and  O_3 
REMARK    2  A    between atoms: O_3  and  C_4 
REMARK    3  A    between atoms: C_5  and  O_6 
REMARK    4  A    between atoms: C_10  and  C_11 
REMARK    5  A    between atoms: C_20  and  C_21 
REMARK       I    between atoms: C_21  and  N_22 
REMARK    6  A    between atoms: N_22  and  C_23 
ROOT
HETATM    1  C   UNL     1      -7.385   2.870 -34.179  1.00  0.00     0.202 C 
HETATM    2  N   UNL     1      -8.263   3.951 -33.719  1.00  0.00    -0.084 N 
HETATM    3  C   UNL     1      -9.354   3.761 -32.915  1.00  0.00     0.725 A 
HETATM    4  N   UNL     1      -9.924   4.913 -32.675  1.00  0.00    -0.054 NA
HETATM    5  C   UNL     1      -9.152   5.790 -33.394  1.00  0.00     0.275 A 
HETATM    6  N   UNL     1      -8.127   5.248 -34.065  1.00  0.00    -0.149 NA
HETATM    7  N   UNL     1      -9.691   2.511 -32.542  1.00  0.00    -0.192 N 
HETATM    8  C   UNL     1      -9.088   1.375 -33.074  1.00  0.00     0.037 C 
HETATM    9  C   UNL     1      -9.812   0.077 -32.809  1.00  0.00     0.070 C 
HETATM   10  C   UNL     1      -7.972   1.502 -33.838  1.00  0.00     0.062 C 
HETATM   11  H   UNL     1     -10.580   2.389 -32.063  1.00  0.00     0.184 HD
ENDROOT
BRANCH   1  12
HETATM   12  C   UNL     1      -5.983   3.076 -33.603  1.00  0.00    -0.024 A 
HETATM   13  C   UNL     1      -5.165   4.095 -34.124  1.00  0.00     0.031 A 
HETATM   14  C   UNL     1      -3.901   4.338 -33.583  1.00  0.00     0.047 A 
HETATM   15  C   UNL     1      -3.443   3.559 -32.522  1.00  0.00     0.116 A 
HETATM   16 BR   UNL     1      -2.857   5.742 -34.310  1.00  0.00    -0.048 Br
HETATM   17  C   UNL     1      -4.234   2.529 -31.994  1.00  0.00     0.103 A 
HETATM   18  C   UNL     1      -5.501   2.294 -32.532  1.00  0.00     0.049 A 
BRANCH  15  19
HETATM   19  O   UNL     1      -2.208   3.791 -31.972  1.00  0.00    -0.357 OA
HETATM   20  H   UNL     1      -1.676   4.191 -32.686  1.00  0.00     0.218 HD
ENDBRANCH  15  19
BRANCH  17  21
HETATM   21  O   UNL     1      -3.659   1.841 -30.955  1.00  0.00    -0.349 OA
BRANCH  21  22
HETATM   22  C   UNL     1      -3.965   0.452 -30.844  1.00  0.00     0.171 C 
HETATM   23  C   UNL     1      -2.843  -0.326 -31.510  1.00  0.00     0.034 C 
ENDBRANCH  21  22
ENDBRANCH  17  21
ENDBRANCH   1  12
BRANCH  10  24
HETATM   24  C   UNL     1      -7.292   0.370 -34.529  1.00  0.00     0.256 C 
HETATM   25  N   UNL     1      -6.844  -0.613 -33.675  1.00  0.00    -0.323 N 
HETATM   26  H   UNL     1      -6.982  -0.464 -32.684  1.00  0.00     0.169 HD
HETATM   27  O   UNL     1      -7.159   0.424 -35.744  1.00  0.00    -0.267 OA
BRANCH  25  28
HETATM   28  C   UNL     1      -6.262  -1.849 -34.029  1.00  0.00     0.035 A 
HETATM   29  C   UNL     1      -4.889  -2.101 -34.009  1.00  0.00     0.029 A 
HETATM   30  C   UNL     1      -4.390  -3.345 -34.405  1.00  0.00     0.002 A 
HETATM   31  C   UNL     1      -5.258  -4.348 -34.831  1.00  0.00     0.000 A 
HETATM   32  C   UNL     1      -6.629  -4.109 -34.853  1.00  0.00     0.002 A 
HETATM   33  C   UNL     1      -7.129  -2.867 -34.449  1.00  0.00     0.029 A 
ENDBRANCH  25  28
ENDBRANCH  10  24
TORSDOF 6
ENDMDL
MODEL 2
REMARK VINA RESULT:      -8.7      3.264      5.971
REMARK  6 active torsions:
REMARK  status: ('A' for Active; 'I' for Inactive)
REMARK    1  A    between atoms: C_2  and  O_3 
REMARK    2  A    between atoms: O_3  and  C_4 
REMARK    3  A    between atoms: C_5  and  O_6 
REMARK    4  A    between atoms: C_10  and  C_11 
REMARK    5  A    between atoms: C_20  and  C_21 
REMARK       I    between atoms: C_21  and  N_22 
REMARK    6  A    between atoms: N_22  and  C_23 
ROOT
HETATM    1  C   UNL     1      -8.437   1.933 -32.427  1.00  0.00     0.202 C 
HETATM    2  N   UNL     1      -8.522   2.984 -31.407  1.00  0.00    -0.084 N 
HETATM    3  C   UNL     1      -7.671   4.053 -31.338  1.00  0.00     0.725 A 
HETATM    4  N   UNL     1      -8.007   4.813 -30.328  1.00  0.00    -0.054 NA
HETATM    5  C   UNL     1      -9.069   4.138 -29.781  1.00  0.00     0.275 A 
HETATM    6  N   UNL     1      -9.416   3.002 -30.398  1.00  0.00    -0.149 NA
HETATM    7  N   UNL     1      -6.657   4.150 -32.220  1.00  0.00    -0.192 N 
HETATM    8  C   UNL     1      -6.320   3.125 -33.100  1.00  0.00     0.037 C 
HETATM    9  C   UNL     1      -4.970   3.261 -33.762  1.00  0.00     0.070 C 
HETATM   10  C   UNL     1      -7.155   2.064 -33.247  1.00  0.00     0.062 C 
HETATM   11  H   UNL     1      -5.962   4.876 -32.058  1.00  0.00     0.184 HD
ENDROOT
BRANCH   1  12
HETATM   12  C   UNL     1      -9.700   1.961 -33.290  1.00  0.00    -0.024 A 
HETATM   13  C   UNL     1     -10.649   0.931 -33.158  1.00  0.00     0.031 A 
HETATM   14  C   UNL     1     -11.834   0.959 -33.897  1.00  0.00     0.047 A 
HETATM   15  C   UNL     1     -12.075   2.012 -34.777  1.00  0.00     0.116 A 
HETATM   16 BR   UNL     1     -13.086  -0.444 -33.658  1.00  0.00    -0.048 Br
HETATM   17  C   UNL     1     -11.139   3.043 -34.934  1.00  0.00     0.103 A 
HETATM   18  C   UNL     1      -9.958   3.018 -34.188  1.00  0.00     0.049 A 
BRANCH  15  19
HETATM   19  O   UNL     1     -13.238   2.060 -35.502  1.00  0.00    -0.357 OA
HETATM   20  H   UNL     1     -13.213   1.278 -36.086  1.00  0.00     0.218 HD
ENDBRANCH  15  19
BRANCH  17  21
HETATM   21  O   UNL     1     -11.503   4.015 -35.834  1.00  0.00    -0.349 OA
BRANCH  21  22
HETATM   22  C   UNL     1     -11.679   5.338 -35.329  1.00  0.00     0.171 C 
HETATM   23  C   UNL     1     -13.163   5.654 -35.359  1.00  0.00     0.034 C 
ENDBRANCH  21  22
ENDBRANCH  17  21
ENDBRANCH   1  12
BRANCH  10  24
HETATM   24  C   UNL     1      -6.860   0.872 -34.090  1.00  0.00     0.256 C 
HETATM   25  N   UNL     1      -6.349  -0.194 -33.383  1.00  0.00    -0.323 N 
HETATM   26  H   UNL     1      -6.192  -0.062 -32.393  1.00  0.00     0.169 HD
HETATM   27  O   UNL     1      -7.051   0.948 -35.296  1.00  0.00    -0.267 OA
BRANCH  25  28
HETATM   28  C   UNL     1      -6.071  -1.488 -33.875  1.00  0.00     0.035 A 
HETATM   29  C   UNL     1      -7.045  -2.376 -34.333  1.00  0.00     0.029 A 
HETATM   30  C   UNL     1      -6.689  -3.653 -34.776  1.00  0.00     0.002 A 
HETATM   31  C   UNL     1      -5.357  -4.057 -34.761  1.00  0.00     0.000 A 
HETATM   32  C   UNL     1      -4.375  -3.179 -34.308  1.00  0.00     0.002 A 
HETATM   33  C   UNL     1      -4.730  -1.899 -33.873  1.00  0.00     0.029 A 
ENDBRANCH  25  28
ENDBRANCH  10  24
TORSDOF 6
ENDMDL
MODEL 3
REMARK VINA RESULT:      -8.6      2.002      2.743
REMARK  6 active torsions:
REMARK  status: ('A' for Active; 'I' for Inactive)
REMARK    1  A    between atoms: C_2  and  O_3 
REMARK    2  A    between atoms: O_3  and  C_4 
REMARK    3  A    between atoms: C_5  and  O_6 
REMARK    4  A    between atoms: C_10  and  C_11 
REMARK    5  A    between atoms: C_20  and  C_21 
REMARK       I    between atoms: C_21  and  N_22 
REMARK    6  A    between atoms: N_22  and  C_23 
ROOT
HETATM    1  C   UNL     1      -8.632   3.174 -34.036  1.00  0.00     0.202 C 
HETATM    2  N   UNL     1      -9.830   3.942 -33.680  1.00  0.00    -0.084 N 
HETATM    3  C   UNL     1     -10.873   3.440 -32.950  1.00  0.00     0.725 A 
HETATM    4  N   UNL     1     -11.782   4.366 -32.795  1.00  0.00    -0.054 NA
HETATM    5  C   UNL     1     -11.256   5.427 -33.488  1.00  0.00     0.275 A 
HETATM    6  N   UNL     1     -10.065   5.214 -34.062  1.00  0.00    -0.149 NA
HETATM    7  N   UNL     1     -10.845   2.151 -32.558  1.00  0.00    -0.192 N 
HETATM    8  C   UNL     1      -9.886   1.245 -33.003  1.00  0.00     0.037 C 
HETATM    9  C   UNL     1     -10.203  -0.207 -32.744  1.00  0.00     0.070 C 
HETATM   10  C   UNL     1      -8.803   1.696 -33.688  1.00  0.00     0.062 C 
HETATM   11  H   UNL     1     -11.691   1.770 -32.141  1.00  0.00     0.184 HD
ENDROOT
BRANCH   1  12
HETATM   12  C   UNL     1      -7.408   3.803 -33.367  1.00  0.00    -0.024 A 
HETATM   13  C   UNL     1      -7.188   3.594 -31.993  1.00  0.00     0.031 A 
HETATM   14  C   UNL     1      -6.053   4.115 -31.368  1.00  0.00     0.047 A 
HETATM   15  C   UNL     1      -5.134   4.854 -32.111  1.00  0.00     0.116 A 
HETATM   16 BR   UNL     1      -5.799   3.778 -29.521  1.00  0.00    -0.048 Br
HETATM   17  C   UNL     1      -5.338   5.086 -33.478  1.00  0.00     0.103 A 
HETATM   18  C   UNL     1      -6.470   4.557 -34.102  1.00  0.00     0.049 A 
BRANCH  15  19
HETATM   19  O   UNL     1      -4.008   5.363 -31.515  1.00  0.00    -0.357 OA
HETATM   20  H   UNL     1      -4.309   6.150 -31.021  1.00  0.00     0.218 HD
ENDBRANCH  15  19
BRANCH  17  21
HETATM   21  O   UNL     1      -4.356   5.829 -34.085  1.00  0.00    -0.349 OA
BRANCH  21  22
HETATM   22  C   UNL     1      -3.674   5.232 -35.187  1.00  0.00     0.171 C 
HETATM   23  C   UNL     1      -2.200   5.149 -34.833  1.00  0.00     0.034 C 
ENDBRANCH  21  22
ENDBRANCH  17  21
ENDBRANCH   1  12
BRANCH  10  24
HETATM   24  C   UNL     1      -7.760   0.816 -34.286  1.00  0.00     0.256 C 
HETATM   25  N   UNL     1      -7.241  -0.106 -33.405  1.00  0.00    -0.323 N 
HETATM   26  H   UNL     1      -7.579  -0.079 -32.452  1.00  0.00     0.169 HD
HETATM   27  O   UNL     1      -7.436   1.003 -35.451  1.00  0.00    -0.267 OA
BRANCH  25  28
HETATM   28  C   UNL     1      -6.323  -1.139 -33.695  1.00  0.00     0.035 A 
HETATM   29  C   UNL     1      -4.982  -1.123 -33.311  1.00  0.00     0.029 A 
HETATM   30  C   UNL     1      -4.130  -2.174 -33.666  1.00  0.00     0.002 A 
HETATM   31  C   UNL     1      -4.609  -3.247 -34.413  1.00  0.00     0.000 A 
HETATM   32  C   UNL     1      -5.947  -3.275 -34.800  1.00  0.00     0.002 A 
HETATM   33  C   UNL     1      -6.801  -2.228 -34.438  1.00  0.00     0.029 A 
ENDBRANCH  25  28
ENDBRANCH  10  24
TORSDOF 6
ENDMDL
MODEL 4
REMARK VINA RESULT:      -8.5      3.218      5.401
REMARK  6 active torsions:
REMARK  status: ('A' for Active; 'I' for Inactive)
REMARK    1  A    between atoms: C_2  and  O_3 
REMARK    2  A    between atoms: O_3  and  C_4 
REMARK    3  A    between atoms: C_5  and  O_6 
REMARK    4  A    between atoms: C_10  and  C_11 
REMARK    5  A    between atoms: C_20  and  C_21 
REMARK       I    between atoms: C_21  and  N_22 
REMARK    6  A    between atoms: N_22  and  C_23 
ROOT
HETATM    1  C   UNL     1      -7.212   2.456 -30.764  1.00  0.00     0.202 C 
HETATM    2  N   UNL     1      -7.011   3.746 -30.097  1.00  0.00    -0.084 N 
HETATM    3  C   UNL     1      -5.804   4.385 -30.012  1.00  0.00     0.725 A 
HETATM    4  N   UNL     1      -5.952   5.512 -29.365  1.00  0.00    -0.054 NA
HETATM    5  C   UNL     1      -7.284   5.503 -29.040  1.00  0.00     0.275 A 
HETATM    6  N   UNL     1      -7.977   4.435 -29.454  1.00  0.00    -0.149 NA
HETATM    7  N   UNL     1      -4.707   3.796 -30.526  1.00  0.00    -0.192 N 
HETATM    8  C   UNL     1      -4.701   2.484 -30.992  1.00  0.00     0.037 C 
HETATM    9  C   UNL     1      -3.334   1.883 -31.207  1.00  0.00     0.070 C 
HETATM   10  C   UNL     1      -5.876   1.820 -31.145  1.00  0.00     0.062 C 
HETATM   11  H   UNL     1      -3.807   4.226 -30.326  1.00  0.00     0.184 HD
ENDROOT
BRANCH   1  12
HETATM   12  C   UNL     1      -8.143   2.645 -31.964  1.00  0.00    -0.024 A 
HETATM   13  C   UNL     1      -9.151   1.696 -32.211  1.00  0.00     0.031 A 
HETATM   14  C   UNL     1     -10.047   1.870 -33.268  1.00  0.00     0.047 A 
HETATM   15  C   UNL     1      -9.936   2.990 -34.089  1.00  0.00     0.116 A 
HETATM   16 BR   UNL     1     -11.400   0.570 -33.535  1.00  0.00    -0.048 Br
HETATM   17  C   UNL     1      -8.932   3.944 -33.870  1.00  0.00     0.103 A 
HETATM   18  C   UNL     1      -8.043   3.771 -32.807  1.00  0.00     0.049 A 
BRANCH  15  19
HETATM   19  O   UNL     1     -10.814   3.183 -35.126  1.00  0.00    -0.357 OA
HETATM   20  H   UNL     1     -10.316   3.684 -35.799  1.00  0.00     0.218 HD
ENDBRANCH  15  19
BRANCH  17  21
HETATM   21  O   UNL     1      -8.937   4.994 -34.754  1.00  0.00    -0.349 OA
BRANCH  21  22
HETATM   22  C   UNL     1      -9.612   6.184 -34.348  1.00  0.00     0.171 C 
HETATM   23  C   UNL     1     -10.436   6.677 -35.525  1.00  0.00     0.034 C 
ENDBRANCH  21  22
ENDBRANCH  17  21
ENDBRANCH   1  12
BRANCH  10  24
HETATM   24  C   UNL     1      -5.988   0.391 -31.551  1.00  0.00     0.256 C 
HETATM   25  N   UNL     1      -5.735   0.173 -32.887  1.00  0.00    -0.323 N 
HETATM   26  H   UNL     1      -5.537   0.983 -33.460  1.00  0.00     0.169 HD
HETATM   27  O   UNL     1      -6.321  -0.431 -30.708  1.00  0.00    -0.267 OA
BRANCH  25  28
HETATM   28  C   UNL     1      -5.659  -1.072 -33.547  1.00  0.00     0.035 A 
HETATM   29  C   UNL     1      -4.465  -1.743 -33.816  1.00  0.00     0.029 A 
HETATM   30  C   UNL     1      -4.474  -2.960 -34.504  1.00  0.00     0.002 A 
HETATM   31  C   UNL     1      -5.676  -3.516 -34.935  1.00  0.00     0.000 A 
HETATM   32  C   UNL     1      -6.874  -2.857 -34.670  1.00  0.00     0.002 A 
HETATM   33  C   UNL     1      -6.866  -1.644 -33.975  1.00  0.00     0.029 A 
ENDBRANCH  25  28
ENDBRANCH  10  24
TORSDOF 6
ENDMDL
MODEL 5
REMARK VINA RESULT:      -8.5      2.850      5.433
REMARK  6 active torsions:
REMARK  status: ('A' for Active; 'I' for Inactive)
REMARK    1  A    between atoms: C_2  and  O_3 
REMARK    2  A    between atoms: O_3  and  C_4 
REMARK    3  A    between atoms: C_5  and  O_6 
REMARK    4  A    between atoms: C_10  and  C_11 
REMARK    5  A    between atoms: C_20  and  C_21 
REMARK       I    between atoms: C_21  and  N_22 
REMARK    6  A    between atoms: N_22  and  C_23 
ROOT
HETATM    1  C   UNL     1      -8.044   2.181 -32.221  1.00  0.00     0.202 C 
HETATM    2  N   UNL     1      -8.040   3.146 -31.116  1.00  0.00    -0.084 N 
HETATM    3  C   UNL     1      -7.021   4.025 -30.871  1.00  0.00     0.725 A 
HETATM    4  N   UNL     1      -7.315   4.752 -29.825  1.00  0.00    -0.054 NA
HETATM    5  C   UNL     1      -8.531   4.250 -29.438  1.00  0.00     0.275 A 
HETATM    6  N   UNL     1      -9.014   3.253 -30.189  1.00  0.00    -0.149 NA
HETATM    7  N   UNL     1      -5.922   3.996 -31.650  1.00  0.00    -0.192 N 
HETATM    8  C   UNL     1      -5.689   2.999 -32.593  1.00  0.00     0.037 C 
HETATM    9  C   UNL     1      -4.277   2.929 -33.121  1.00  0.00     0.070 C 
HETATM   10  C   UNL     1      -6.683   2.131 -32.912  1.00  0.00     0.062 C 
HETATM   11  H   UNL     1      -5.127   4.562 -31.360  1.00  0.00     0.184 HD
ENDROOT
BRANCH   1  12
HETATM   12  C   UNL     1      -9.187   2.517 -33.182  1.00  0.00    -0.024 A 
HETATM   13  C   UNL     1      -9.246   3.796 -33.763  1.00  0.00     0.031 A 
HETATM   14  C   UNL     1     -10.249   4.113 -34.683  1.00  0.00     0.047 A 
HETATM   15  C   UNL     1     -11.202   3.155 -35.021  1.00  0.00     0.116 A 
HETATM   16 BR   UNL     1     -10.262   5.845 -35.451  1.00  0.00    -0.048 Br
HETATM   17  C   UNL     1     -11.171   1.877 -34.446  1.00  0.00     0.103 A 
HETATM   18  C   UNL     1     -10.162   1.561 -33.534  1.00  0.00     0.049 A 
BRANCH  15  19
HETATM   19  O   UNL     1     -12.187   3.446 -35.931  1.00  0.00    -0.357 OA
HETATM   20  H   UNL     1     -11.734   3.515 -36.793  1.00  0.00     0.218 HD
ENDBRANCH  15  19
BRANCH  17  21
HETATM   21  O   UNL     1     -12.169   1.035 -34.868  1.00  0.00    -0.349 OA
BRANCH  21  22
HETATM   22  C   UNL     1     -13.046   0.512 -33.871  1.00  0.00     0.171 C 
HETATM   23  C   UNL     1     -14.468   0.862 -34.271  1.00  0.00     0.034 C 
ENDBRANCH  21  22
ENDBRANCH  17  21
ENDBRANCH   1  12
BRANCH  10  24
HETATM   24  C   UNL     1      -6.525   0.975 -33.838  1.00  0.00     0.256 C 
HETATM   25  N   UNL     1      -6.110  -0.182 -33.216  1.00  0.00    -0.323 N 
HETATM   26  H   UNL     1      -5.922  -0.133 -32.223  1.00  0.00     0.169 HD
HETATM   27  O   UNL     1      -6.730   1.150 -35.032  1.00  0.00    -0.267 OA
BRANCH  25  28
HETATM   28  C   UNL     1      -5.973  -1.460 -33.798  1.00  0.00     0.035 A 
HETATM   29  C   UNL     1      -7.044  -2.231 -34.254  1.00  0.00     0.029 A 
HETATM   30  C   UNL     1      -6.825  -3.503 -34.790  1.00  0.00     0.002 A 
HETATM   31  C   UNL     1      -5.534  -4.020 -34.872  1.00  0.00     0.000 A 
HETATM   32  C   UNL     1      -4.458  -3.259 -34.423  1.00  0.00     0.002 A 
HETATM   33  C   UNL     1      -4.676  -1.984 -33.894  1.00  0.00     0.029 A 
ENDBRANCH  25  28
ENDBRANCH  10  24
TORSDOF 6
ENDMDL
MODEL 6
REMARK VINA RESULT:      -8.3      1.601      1.992
REMARK  6 active torsions:
REMARK  status: ('A' for Active; 'I' for Inactive)
REMARK    1  A    between atoms: C_2  and  O_3 
REMARK    2  A    between atoms: O_3  and  C_4 
REMARK    3  A    between atoms: C_5  and  O_6 
REMARK    4  A    between atoms: C_10  and  C_11 
REMARK    5  A    between atoms: C_20  and  C_21 
REMARK       I    between atoms: C_21  and  N_22 
REMARK    6  A    between atoms: N_22  and  C_23 
ROOT
HETATM    1  C   UNL     1      -8.302   2.964 -34.012  1.00  0.00     0.202 C 
HETATM    2  N   UNL     1      -9.399   3.848 -33.604  1.00  0.00    -0.084 N 
HETATM    3  C   UNL     1     -10.460   3.449 -32.839  1.00  0.00     0.725 A 
HETATM    4  N   UNL     1     -11.261   4.463 -32.641  1.00  0.00    -0.054 NA
HETATM    5  C   UNL     1     -10.653   5.472 -33.344  1.00  0.00     0.275 A 
HETATM    6  N   UNL     1      -9.514   5.143 -33.965  1.00  0.00    -0.149 NA
HETATM    7  N   UNL     1     -10.553   2.159 -32.459  1.00  0.00    -0.192 N 
HETATM    8  C   UNL     1      -9.711   1.164 -32.949  1.00  0.00     0.037 C 
HETATM    9  C   UNL     1     -10.168  -0.251 -32.691  1.00  0.00     0.070 C 
HETATM   10  C   UNL     1      -8.614   1.508 -33.671  1.00  0.00     0.062 C 
HETATM   11  H   UNL     1     -11.418   1.863 -32.013  1.00  0.00     0.184 HD
ENDROOT
BRANCH   1  12
HETATM   12  C   UNL     1      -6.995   3.455 -33.386  1.00  0.00    -0.024 A 
HETATM   13  C   UNL     1      -5.994   3.995 -34.213  1.00  0.00     0.031 A 
HETATM   14  C   UNL     1      -4.812   4.497 -33.663  1.00  0.00     0.047 A 
HETATM   15  C   UNL     1      -4.621   4.455 -32.284  1.00  0.00     0.116 A 
HETATM   16 BR   UNL     1      -3.511   5.236 -34.826  1.00  0.00    -0.048 Br
HETATM   17  C   UNL     1      -5.599   3.910 -31.440  1.00  0.00     0.103 A 
HETATM   18  C   UNL     1      -6.783   3.417 -31.992  1.00  0.00     0.049 A 
BRANCH  15  19
HETATM   19  O   UNL     1      -3.471   4.953 -31.726  1.00  0.00    -0.357 OA
HETATM   20  H   UNL     1      -2.750   4.673 -32.322  1.00  0.00     0.218 HD
ENDBRANCH  15  19
BRANCH  17  21
HETATM   21  O   UNL     1      -5.280   3.931 -30.105  1.00  0.00    -0.349 OA
BRANCH  21  22
HETATM   22  C   UNL     1      -6.231   4.516 -29.216  1.00  0.00     0.171 C 
HETATM   23  C   UNL     1      -5.973   6.011 -29.176  1.00  0.00     0.034 C 
ENDBRANCH  21  22
ENDBRANCH  17  21
ENDBRANCH   1  12
BRANCH  10  24
HETATM   24  C   UNL     1      -7.692   0.532 -34.317  1.00  0.00     0.256 C 
HETATM   25  N   UNL     1      -7.134  -0.369 -33.438  1.00  0.00    -0.323 N 
HETATM   26  H   UNL     1      -7.366  -0.267 -32.459  1.00  0.00     0.169 HD
HETATM   27  O   UNL     1      -7.484   0.632 -35.519  1.00  0.00    -0.267 OA
BRANCH  25  28
HETATM   28  C   UNL     1      -6.312  -1.472 -33.756  1.00  0.00     0.035 A 
HETATM   29  C   UNL     1      -4.953  -1.547 -33.450  1.00  0.00     0.029 A 
HETATM   30  C   UNL     1      -4.201  -2.664 -33.828  1.00  0.00     0.002 A 
HETATM   31  C   UNL     1      -4.801  -3.714 -34.519  1.00  0.00     0.000 A 
HETATM   32  C   UNL     1      -6.157  -3.652 -34.827  1.00  0.00     0.002 A 
HETATM   33  C   UNL     1      -6.910  -2.538 -34.442  1.00  0.00     0.029 A 
ENDBRANCH  25  28
ENDBRANCH  10  24
TORSDOF 6
ENDMDL
MODEL 7
REMARK VINA RESULT:      -8.1      2.878      5.763
REMARK  6 active torsions:
REMARK  status: ('A' for Active; 'I' for Inactive)
REMARK    1  A    between atoms: C_2  and  O_3 
REMARK    2  A    between atoms: O_3  and  C_4 
REMARK    3  A    between atoms: C_5  and  O_6 
REMARK    4  A    between atoms: C_10  and  C_11 
REMARK    5  A    between atoms: C_20  and  C_21 
REMARK       I    between atoms: C_21  and  N_22 
REMARK    6  A    between atoms: N_22  and  C_23 
ROOT
HETATM    1  C   UNL     1      -6.258   1.125 -31.813  1.00  0.00     0.202 C 
HETATM    2  N   UNL     1      -4.890   0.596 -31.793  1.00  0.00    -0.084 N 
HETATM    3  C   UNL     1      -4.393  -0.275 -32.724  1.00  0.00     0.725 A 
HETATM    4  N   UNL     1      -3.148  -0.553 -32.438  1.00  0.00    -0.054 NA
HETATM    5  C   UNL     1      -2.934   0.159 -31.285  1.00  0.00     0.275 A 
HETATM    6  N   UNL     1      -3.977   0.871 -30.839  1.00  0.00    -0.149 NA
HETATM    7  N   UNL     1      -5.199  -0.726 -33.705  1.00  0.00    -0.192 N 
HETATM    8  C   UNL     1      -6.571  -0.487 -33.726  1.00  0.00     0.037 C 
HETATM    9  C   UNL     1      -7.358  -1.341 -34.690  1.00  0.00     0.070 C 
HETATM   10  C   UNL     1      -7.110   0.408 -32.859  1.00  0.00     0.062 C 
HETATM   11  H   UNL     1      -4.845  -1.475 -34.295  1.00  0.00     0.184 HD
ENDROOT
BRANCH   1  12
HETATM   12  C   UNL     1      -6.214   2.640 -32.020  1.00  0.00    -0.024 A 
HETATM   13  C   UNL     1      -6.538   3.493 -30.950  1.00  0.00     0.031 A 
HETATM   14  C   UNL     1      -6.456   4.879 -31.096  1.00  0.00     0.047 A 
HETATM   15  C   UNL     1      -6.057   5.422 -32.316  1.00  0.00     0.116 A 
HETATM   16 BR   UNL     1      -6.882   5.976 -29.610  1.00  0.00    -0.048 Br
HETATM   17  C   UNL     1      -5.740   4.593 -33.401  1.00  0.00     0.103 A 
HETATM   18  C   UNL     1      -5.815   3.207 -33.249  1.00  0.00     0.049 A 
BRANCH  15  19
HETATM   19  O   UNL     1      -5.961   6.782 -32.474  1.00  0.00    -0.357 OA
HETATM   20  H   UNL     1      -6.842   7.133 -32.243  1.00  0.00     0.218 HD
ENDBRANCH  15  19
BRANCH  17  21
HETATM   21  O   UNL     1      -5.364   5.260 -34.540  1.00  0.00    -0.349 OA
BRANCH  21  22
HETATM   22  C   UNL     1      -4.085   4.945 -35.088  1.00  0.00     0.171 C 
HETATM   23  C   UNL     1      -3.057   5.838 -34.416  1.00  0.00     0.034 C 
ENDBRANCH  21  22
ENDBRANCH  17  21
ENDBRANCH   1  12
BRANCH  10  24
HETATM   24  C   UNL     1      -8.569   0.680 -32.731  1.00  0.00     0.256 C 
HETATM   25  N   UNL     1      -9.114   1.309 -33.828  1.00  0.00    -0.323 N 
HETATM   26  H   UNL     1      -8.486   1.553 -34.583  1.00  0.00     0.169 HD
HETATM   27  O   UNL     1      -9.132   0.372 -31.689  1.00  0.00    -0.267 OA
BRANCH  25  28
HETATM   28  C   UNL     1     -10.476   1.603 -34.053  1.00  0.00     0.035 A 
HETATM   29  C   UNL     1     -11.525   0.736 -33.743  1.00  0.00     0.029 A 
HETATM   30  C   UNL     1     -12.847   1.091 -34.026  1.00  0.00     0.002 A 
HETATM   31  C   UNL     1     -13.133   2.315 -34.627  1.00  0.00     0.000 A 
HETATM   32  C   UNL     1     -12.096   3.189 -34.938  1.00  0.00     0.002 A 
HETATM   33  C   UNL     1     -10.774   2.838 -34.647  1.00  0.00     0.029 A 
ENDBRANCH  25  28
ENDBRANCH  10  24
TORSDOF 6
ENDMDL
MODEL 8
REMARK VINA RESULT:      -8.0      5.164      8.757
REMARK  6 active torsions:
REMARK  status: ('A' for Active; 'I' for Inactive)
REMARK    1  A    between atoms: C_2  and  O_3 
REMARK    2  A    between atoms: O_3  and  C_4 
REMARK    3  A    between atoms: C_5  and  O_6 
REMARK    4  A    between atoms: C_10  and  C_11 
REMARK    5  A    between atoms: C_20  and  C_21 
REMARK       I    between atoms: C_21  and  N_22 
REMARK    6  A    between atoms: N_22  and  C_23 
ROOT
HETATM    1  C   UNL     1      -3.605   6.397 -31.958  1.00  0.00     0.202 C 
HETATM    2  N   UNL     1      -3.330   5.853 -33.292  1.00  0.00    -0.084 N 
HETATM    3  C   UNL     1      -2.088   5.480 -33.726  1.00  0.00     0.725 A 
HETATM    4  N   UNL     1      -2.171   5.030 -34.951  1.00  0.00    -0.054 NA
HETATM    5  C   UNL     1      -3.503   5.180 -35.240  1.00  0.00     0.275 A 
HETATM    6  N   UNL     1      -4.257   5.695 -34.260  1.00  0.00    -0.149 NA
HETATM    7  N   UNL     1      -1.025   5.652 -32.915  1.00  0.00    -0.192 N 
HETATM    8  C   UNL     1      -1.096   6.353 -31.714  1.00  0.00     0.037 C 
HETATM    9  C   UNL     1       0.234   6.741 -31.116  1.00  0.00     0.070 C 
HETATM   10  C   UNL     1      -2.308   6.703 -31.212  1.00  0.00     0.062 C 
HETATM   11  H   UNL     1      -0.102   5.497 -33.314  1.00  0.00     0.184 HD
ENDROOT
BRANCH   1  12
HETATM   12  C   UNL     1      -4.517   5.434 -31.195  1.00  0.00    -0.024 A 
HETATM   13  C   UNL     1      -5.672   5.930 -30.565  1.00  0.00     0.031 A 
HETATM   14  C   UNL     1      -6.548   5.066 -29.905  1.00  0.00     0.047 A 
HETATM   15  C   UNL     1      -6.271   3.701 -29.865  1.00  0.00     0.116 A 
HETATM   16 BR   UNL     1      -8.102   5.791 -29.097  1.00  0.00    -0.048 Br
HETATM   17  C   UNL     1      -5.120   3.184 -30.475  1.00  0.00     0.103 A 
HETATM   18  C   UNL     1      -4.250   4.050 -31.141  1.00  0.00     0.049 A 
BRANCH  15  19
HETATM   19  O   UNL     1      -7.127   2.836 -29.230  1.00  0.00    -0.357 OA
HETATM   20  H   UNL     1      -6.917   1.953 -29.588  1.00  0.00     0.218 HD
ENDBRANCH  15  19
BRANCH  17  21
HETATM   21  O   UNL     1      -4.971   1.825 -30.357  1.00  0.00    -0.349 OA
BRANCH  21  22
HETATM   22  C   UNL     1      -4.541   1.113 -31.517  1.00  0.00     0.171 C 
HETATM   23  C   UNL     1      -3.414   0.185 -31.103  1.00  0.00     0.034 C 
ENDBRANCH  21  22
ENDBRANCH  17  21
ENDBRANCH   1  12
BRANCH  10  24
HETATM   24  C   UNL     1      -2.504   7.526 -29.985  1.00  0.00     0.256 C 
HETATM   25  N   UNL     1      -2.433   6.803 -28.815  1.00  0.00    -0.323 N 
HETATM   26  H   UNL     1      -2.295   5.804 -28.895  1.00  0.00     0.169 HD
HETATM   27  O   UNL     1      -2.741   8.720 -30.114  1.00  0.00    -0.267 OA
BRANCH  25  28
HETATM   28  C   UNL     1      -2.472   7.308 -27.498  1.00  0.00     0.035 A 
HETATM   29  C   UNL     1      -1.343   7.704 -26.779  1.00  0.00     0.029 A 
HETATM   30  C   UNL     1      -1.464   8.165 -25.464  1.00  0.00     0.002 A 
HETATM   31  C   UNL     1      -2.714   8.230 -24.854  1.00  0.00     0.000 A 
HETATM   32  C   UNL     1      -3.848   7.841 -25.562  1.00  0.00     0.002 A 
HETATM   33  C   UNL     1      -3.728   7.387 -26.880  1.00  0.00     0.029 A 
ENDBRANCH  25  28
ENDBRANCH  10  24
TORSDOF 6
ENDMDL
MODEL 9
REMARK VINA RESULT:      -7.8      2.598      3.205
REMARK  6 active torsions:
REMARK  status: ('A' for Active; 'I' for Inactive)
REMARK    1  A    between atoms: C_2  and  O_3 
REMARK    2  A    between atoms: O_3  and  C_4 
REMARK    3  A    between atoms: C_5  and  O_6 
REMARK    4  A    between atoms: C_10  and  C_11 
REMARK    5  A    between atoms: C_20  and  C_21 
REMARK       I    between atoms: C_21  and  N_22 
REMARK    6  A    between atoms: N_22  and  C_23 
ROOT
HETATM    1  C   UNL     1      -8.882   3.396 -33.980  1.00  0.00     0.202 C 
HETATM    2  N   UNL     1      -9.746   4.429 -34.560  1.00  0.00    -0.084 N 
HETATM    3  C   UNL     1     -11.110   4.345 -34.614  1.00  0.00     0.725 A 
HETATM    4  N   UNL     1     -11.591   5.421 -35.180  1.00  0.00    -0.054 NA
HETATM    5  C   UNL     1     -10.461   6.132 -35.490  1.00  0.00     0.275 A 
HETATM    6  N   UNL     1      -9.300   5.561 -35.143  1.00  0.00    -0.149 NA
HETATM    7  N   UNL     1     -11.723   3.237 -34.153  1.00  0.00    -0.192 N 
HETATM    8  C   UNL     1     -11.029   2.089 -33.778  1.00  0.00     0.037 C 
HETATM    9  C   UNL     1     -11.873   0.848 -33.621  1.00  0.00     0.070 C 
HETATM   10  C   UNL     1      -9.677   2.131 -33.659  1.00  0.00     0.062 C 
HETATM   11  H   UNL     1     -12.720   3.143 -34.333  1.00  0.00     0.184 HD
ENDROOT
BRANCH   1  12
HETATM   12  C   UNL     1      -8.156   3.967 -32.760  1.00  0.00    -0.024 A 
HETATM   13  C   UNL     1      -8.862   4.782 -31.856  1.00  0.00     0.031 A 
HETATM   14  C   UNL     1      -8.238   5.275 -30.708  1.00  0.00     0.047 A 
HETATM   15  C   UNL     1      -6.903   4.962 -30.460  1.00  0.00     0.116 A 
HETATM   16 BR   UNL     1      -9.247   6.346 -29.515  1.00  0.00    -0.048 Br
HETATM   17  C   UNL     1      -6.175   4.162 -31.352  1.00  0.00     0.103 A 
HETATM   18  C   UNL     1      -6.804   3.664 -32.495  1.00  0.00     0.049 A 
BRANCH  15  19
HETATM   19  O   UNL     1      -6.277   5.429 -29.331  1.00  0.00    -0.357 OA
HETATM   20  H   UNL     1      -5.791   6.227 -29.615  1.00  0.00     0.218 HD
ENDBRANCH  15  19
BRANCH  17  21
HETATM   21  O   UNL     1      -4.872   3.935 -30.985  1.00  0.00    -0.349 OA
BRANCH  21  22
HETATM   22  C   UNL     1      -4.462   2.576 -30.843  1.00  0.00     0.171 C 
HETATM   23  C   UNL     1      -3.331   2.325 -31.825  1.00  0.00     0.034 C 
ENDBRANCH  21  22
ENDBRANCH  17  21
ENDBRANCH   1  12
BRANCH  10  24
HETATM   24  C   UNL     1      -8.823   0.950 -33.350  1.00  0.00     0.256 C 
HETATM   25  N   UNL     1      -7.904   0.658 -34.334  1.00  0.00    -0.323 N 
HETATM   26  H   UNL     1      -7.917   1.233 -35.166  1.00  0.00     0.169 HD
HETATM   27  O   UNL     1      -9.026   0.339 -32.310  1.00  0.00    -0.267 OA
BRANCH  25  28
HETATM   28  C   UNL     1      -6.892  -0.325 -34.290  1.00  0.00     0.035 A 
HETATM   29  C   UNL     1      -7.048  -1.629 -34.763  1.00  0.00     0.029 A 
HETATM   30  C   UNL     1      -6.004  -2.553 -34.654  1.00  0.00     0.002 A 
HETATM   31  C   UNL     1      -4.797  -2.184 -34.065  1.00  0.00     0.000 A 
HETATM   32  C   UNL     1      -4.629  -0.886 -33.591  1.00  0.00     0.002 A 
HETATM   33  C   UNL     1      -5.670   0.041 -33.708  1.00  0.00     0.029 A 
ENDBRANCH  25  28
ENDBRANCH  10  24
TORSDOF 6
ENDMDL
MODEL 10
REMARK VINA RESULT:      -7.7      5.250      8.984
REMARK  6 active torsions:
REMARK  status: ('A' for Active; 'I' for Inactive)
REMARK    1  A    between atoms: C_2  and  O_3 
REMARK    2  A    between atoms: O_3  and  C_4 
REMARK    3  A    between atoms: C_5  and  O_6 
REMARK    4  A    between atoms: C_10  and  C_11 
REMARK    5  A    between atoms: C_20  and  C_21 
REMARK       I    between atoms: C_21  and  N_22 
REMARK    6  A    between atoms: N_22  and  C_23 
ROOT
HETATM    1  C   UNL     1      -3.752   6.268 -32.051  1.00  0.00     0.202 C 
HETATM    2  N   UNL     1      -3.442   5.800 -33.406  1.00  0.00    -0.084 N 
HETATM    3  C   UNL     1      -2.175   5.555 -33.860  1.00  0.00     0.725 A 
HETATM    4  N   UNL     1      -2.228   5.145 -35.101  1.00  0.00    -0.054 NA
HETATM    5  C   UNL     1      -3.570   5.189 -35.377  1.00  0.00     0.275 A 
HETATM    6  N   UNL     1      -4.359   5.597 -34.375  1.00  0.00    -0.149 NA
HETATM    7  N   UNL     1      -1.125   5.789 -33.048  1.00  0.00    -0.192 N 
HETATM    8  C   UNL     1      -1.247   6.436 -31.822  1.00  0.00     0.037 C 
HETATM    9  C   UNL     1       0.048   6.917 -31.215  1.00  0.00     0.070 C 
HETATM   10  C   UNL     1      -2.481   6.659 -31.300  1.00  0.00     0.062 C 
HETATM   11  H   UNL     1      -0.195   5.731 -33.457  1.00  0.00     0.184 HD
ENDROOT
BRANCH   1  12
HETATM   12  C   UNL     1      -4.570   5.201 -31.321  1.00  0.00    -0.024 A 
HETATM   13  C   UNL     1      -4.220   3.846 -31.465  1.00  0.00     0.031 A 
HETATM   14  C   UNL     1      -4.916   2.855 -30.770  1.00  0.00     0.047 A 
HETATM   15  C   UNL     1      -5.972   3.211 -29.933  1.00  0.00     0.116 A 
HETATM   16 BR   UNL     1      -4.382   1.049 -30.984  1.00  0.00    -0.048 Br
HETATM   17  C   UNL     1      -6.347   4.553 -29.783  1.00  0.00     0.103 A 
HETATM   18  C   UNL     1      -5.643   5.543 -30.473  1.00  0.00     0.049 A 
BRANCH  15  19
HETATM   19  O   UNL     1      -6.660   2.251 -29.234  1.00  0.00    -0.357 OA
HETATM   20  H   UNL     1      -6.513   2.460 -28.292  1.00  0.00     0.218 HD
ENDBRANCH  15  19
BRANCH  17  21
HETATM   21  O   UNL     1      -7.402   4.761 -28.930  1.00  0.00    -0.349 OA
BRANCH  21  22
HETATM   22  C   UNL     1      -7.396   5.967 -28.167  1.00  0.00     0.171 C 
HETATM   23  C   UNL     1      -8.680   6.718 -28.472  1.00  0.00     0.034 C 
ENDBRANCH  21  22
ENDBRANCH  17  21
ENDBRANCH   1  12
BRANCH  10  24
HETATM   24  C   UNL     1      -2.738   7.415 -30.042  1.00  0.00     0.256 C 
HETATM   25  N   UNL     1      -2.457   6.701 -28.899  1.00  0.00    -0.323 N 
HETATM   26  H   UNL     1      -2.145   5.745 -29.013  1.00  0.00     0.169 HD
HETATM   27  O   UNL     1      -3.196   8.547 -30.124  1.00  0.00    -0.267 OA
BRANCH  25  28
HETATM   28  C   UNL     1      -2.496   7.172 -27.569  1.00  0.00     0.035 A 
HETATM   29  C   UNL     1      -3.659   7.252 -26.801  1.00  0.00     0.029 A 
HETATM   30  C   UNL     1      -3.617   7.761 -25.500  1.00  0.00     0.002 A 
HETATM   31  C   UNL     1      -2.412   8.199 -24.955  1.00  0.00     0.000 A 
HETATM   32  C   UNL     1      -1.245   8.122 -25.710  1.00  0.00     0.002 A 
HETATM   33  C   UNL     1      -1.286   7.605 -27.008  1.00  0.00     0.029 A 
ENDBRANCH  25  28
ENDBRANCH  10  24
TORSDOF 6
ENDMDL
