MODEL 1
REMARK VINA RESULT:      -9.1      0.000      0.000
REMARK  5 active torsions:
REMARK  status: ('A' for Active; 'I' for Inactive)
REMARK    1  A    between atoms: C_8  and  C_9 
REMARK    2  A    between atoms: C_9  and  N_10 
REMARK       I    between atoms: N_10  and  C_11 
REMARK       I    between atoms: C_11  and  N_12 
REMARK    3  A    between atoms: C_13  and  C_14 
REMARK    4  A    between atoms: C_14  and  C_15 
REMARK    5  A    between atoms: C_15  and  C_16 
ROOT
HETATM    1  N   UNL     1      -9.553   2.254 -32.753  1.00  0.00    -0.339 N 
HETATM    2  C   UNL     1      -8.816   2.165 -31.606  1.00  0.00     0.318 C 
HETATM    3  N   UNL     1      -7.548   1.622 -31.749  1.00  0.00    -0.330 N 
HETATM    4  C   UNL     1      -6.918   1.193 -33.017  1.00  0.00     0.089 C 
HETATM    5  C   UNL     1      -5.540   1.865 -33.175  1.00  0.00     0.025 C 
HETATM    6  C   UNL     1      -4.652   1.698 -31.945  1.00  0.00     0.004 C 
HETATM    7  C   UNL     1      -5.381   2.169 -30.691  1.00  0.00     0.020 C 
HETATM    8  C   UNL     1      -6.729   1.473 -30.541  1.00  0.00     0.128 C 
HETATM    9  O   UNL     1      -9.257   2.570 -30.533  1.00  0.00    -0.247 OA
HETATM   10  H   UNL     1      -9.416   1.535 -33.441  1.00  0.00     0.164 HD
ENDROOT
BRANCH   4  11
HETATM   11  C   UNL     1      -6.817  -0.343 -33.124  1.00  0.00     0.030 C 
BRANCH  11  12
HETATM   12  C   UNL     1      -6.422  -0.815 -34.527  1.00  0.00     0.040 C 
BRANCH  12  13
HETATM   13  C   UNL     1      -5.922  -2.237 -34.515  1.00  0.00    -0.058 A 
HETATM   14  C   UNL     1      -6.789  -3.293 -34.828  1.00  0.00     0.007 A 
HETATM   15  C   UNL     1      -6.334  -4.612 -34.803  1.00  0.00     0.001 A 
HETATM   16  C   UNL     1      -5.011  -4.887 -34.460  1.00  0.00     0.000 A 
HETATM   17  C   UNL     1      -4.144  -3.845 -34.140  1.00  0.00     0.001 A 
HETATM   18  C   UNL     1      -4.596  -2.525 -34.164  1.00  0.00     0.007 A 
ENDBRANCH  12  13
ENDBRANCH  11  12
ENDBRANCH   4  11
BRANCH   1  19
HETATM   19  C   UNL     1     -10.883   2.818 -32.720  1.00  0.00     0.167 C 
BRANCH  19  20
HETATM   20  C   UNL     1     -11.469   2.675 -34.078  1.00  0.00     0.009 A 
HETATM   21  C   UNL     1     -11.323   3.500 -35.180  1.00  0.00     0.034 A 
HETATM   22  C   UNL     1     -10.564   4.755 -35.384  1.00  0.00     0.070 C 
HETATM   23  N   UNL     1     -12.058   2.924 -36.178  1.00  0.00    -0.282 N 
HETATM   24  H   UNL     1     -12.179   3.244 -37.133  1.00  0.00     0.189 HD
HETATM   25  N   UNL     1     -12.685   1.800 -35.808  1.00  0.00    -0.179 NA
HETATM   26  C   UNL     1     -12.325   1.631 -34.532  1.00  0.00     0.060 A 
HETATM   27  C   UNL     1     -12.830   0.470 -33.756  1.00  0.00     0.073 C 
ENDBRANCH  19  20
ENDBRANCH   1  19
TORSDOF 5
ENDMDL
MODEL 2
REMARK VINA RESULT:      -8.7      3.127      6.065
REMARK  5 active torsions:
REMARK  status: ('A' for Active; 'I' for Inactive)
REMARK    1  A    between atoms: C_8  and  C_9 
REMARK    2  A    between atoms: C_9  and  N_10 
REMARK       I    between atoms: N_10  and  C_11 
REMARK       I    between atoms: C_11  and  N_12 
REMARK    3  A    between atoms: C_13  and  C_14 
REMARK    4  A    between atoms: C_14  and  C_15 
REMARK    5  A    between atoms: C_15  and  C_16 
ROOT
HETATM    1  N   UNL     1      -5.426   3.778 -33.546  1.00  0.00    -0.339 N 
HETATM    2  C   UNL     1      -6.749   3.643 -33.862  1.00  0.00     0.318 C 
HETATM    3  N   UNL     1      -7.287   2.381 -33.665  1.00  0.00    -0.330 N 
HETATM    4  C   UNL     1      -6.582   1.208 -33.101  1.00  0.00     0.089 C 
HETATM    5  C   UNL     1      -7.390   0.623 -31.927  1.00  0.00     0.025 C 
HETATM    6  C   UNL     1      -8.853   0.367 -32.279  1.00  0.00     0.004 C 
HETATM    7  C   UNL     1      -9.495   1.629 -32.846  1.00  0.00     0.020 C 
HETATM    8  C   UNL     1      -8.694   2.176 -34.023  1.00  0.00     0.128 C 
HETATM    9  O   UNL     1      -7.406   4.599 -34.268  1.00  0.00    -0.247 OA
HETATM   10  H   UNL     1      -4.837   2.979 -33.696  1.00  0.00     0.164 HD
ENDROOT
BRANCH   4  11
HETATM   11  C   UNL     1      -6.284   0.140 -34.174  1.00  0.00     0.030 C 
BRANCH  11  12
HETATM   12  C   UNL     1      -5.063  -0.720 -33.831  1.00  0.00     0.040 C 
BRANCH  12  13
HETATM   13  C   UNL     1      -5.291  -2.171 -34.172  1.00  0.00    -0.058 A 
HETATM   14  C   UNL     1      -6.527  -2.589 -34.685  1.00  0.00     0.007 A 
HETATM   15  C   UNL     1      -6.748  -3.933 -34.987  1.00  0.00     0.001 A 
HETATM   16  C   UNL     1      -5.738  -4.871 -34.776  1.00  0.00     0.000 A 
HETATM   17  C   UNL     1      -4.509  -4.466 -34.260  1.00  0.00     0.001 A 
HETATM   18  C   UNL     1      -4.286  -3.122 -33.956  1.00  0.00     0.007 A 
ENDBRANCH  12  13
ENDBRANCH  11  12
ENDBRANCH   4  11
BRANCH   1  19
HETATM   19  C   UNL     1      -4.769   5.055 -33.699  1.00  0.00     0.167 C 
BRANCH  19  20
HETATM   20  C   UNL     1      -3.599   5.075 -32.782  1.00  0.00     0.009 A 
HETATM   21  C   UNL     1      -3.577   5.112 -31.399  1.00  0.00     0.034 A 
HETATM   22  C   UNL     1      -4.663   5.140 -30.391  1.00  0.00     0.070 C 
HETATM   23  N   UNL     1      -2.257   5.111 -31.045  1.00  0.00    -0.282 N 
HETATM   24  H   UNL     1      -1.857   5.123 -30.113  1.00  0.00     0.189 HD
HETATM   25  N   UNL     1      -1.418   5.094 -32.089  1.00  0.00    -0.179 NA
HETATM   26  C   UNL     1      -2.225   5.062 -33.154  1.00  0.00     0.060 A 
HETATM   27  C   UNL     1      -1.656   5.038 -34.526  1.00  0.00     0.073 C 
ENDBRANCH  19  20
ENDBRANCH   1  19
TORSDOF 5
ENDMDL
MODEL 3
REMARK VINA RESULT:      -8.7      2.024      5.458
REMARK  5 active torsions:
REMARK  status: ('A' for Active; 'I' for Inactive)
REMARK    1  A    between atoms: C_8  and  C_9 
REMARK    2  A    between atoms: C_9  and  N_10 
REMARK       I    between atoms: N_10  and  C_11 
REMARK       I    between atoms: C_11  and  N_12 
REMARK    3  A    between atoms: C_13  and  C_14 
REMARK    4  A    between atoms: C_14  and  C_15 
REMARK    5  A    between atoms: C_15  and  C_16 
ROOT
HETATM    1  N   UNL     1      -6.893   1.772 -31.009  1.00  0.00    -0.339 N 
HETATM    2  C   UNL     1      -7.765   2.513 -31.756  1.00  0.00     0.318 C 
HETATM    3  N   UNL     1      -8.555   1.797 -32.642  1.00  0.00    -0.330 N 
HETATM    4  C   UNL     1      -8.575   0.326 -32.803  1.00  0.00     0.089 C 
HETATM    5  C   UNL     1     -10.017  -0.200 -32.678  1.00  0.00     0.025 C 
HETATM    6  C   UNL     1     -11.002   0.543 -33.576  1.00  0.00     0.004 C 
HETATM    7  C   UNL     1     -10.915   2.047 -33.336  1.00  0.00     0.020 C 
HETATM    8  C   UNL     1      -9.484   2.549 -33.491  1.00  0.00     0.128 C 
HETATM    9  O   UNL     1      -7.847   3.731 -31.617  1.00  0.00    -0.247 OA
HETATM   10  H   UNL     1      -6.505   0.953 -31.441  1.00  0.00     0.164 HD
ENDROOT
BRANCH   4  11
HETATM   11  C   UNL     1      -7.921  -0.120 -34.128  1.00  0.00     0.030 C 
BRANCH  11  12
HETATM   12  C   UNL     1      -6.412  -0.350 -33.996  1.00  0.00     0.040 C 
BRANCH  12  13
HETATM   13  C   UNL     1      -6.046  -1.792 -34.244  1.00  0.00    -0.058 A 
HETATM   14  C   UNL     1      -7.031  -2.716 -34.618  1.00  0.00     0.007 A 
HETATM   15  C   UNL     1      -6.700  -4.055 -34.833  1.00  0.00     0.001 A 
HETATM   16  C   UNL     1      -5.383  -4.481 -34.673  1.00  0.00     0.000 A 
HETATM   17  C   UNL     1      -4.397  -3.572 -34.296  1.00  0.00     0.001 A 
HETATM   18  C   UNL     1      -4.726  -2.233 -34.079  1.00  0.00     0.007 A 
ENDBRANCH  12  13
ENDBRANCH  11  12
ENDBRANCH   4  11
BRANCH   1  19
HETATM   19  C   UNL     1      -6.034   2.418 -30.044  1.00  0.00     0.167 C 
BRANCH  19  20
HETATM   20  C   UNL     1      -4.782   2.809 -30.744  1.00  0.00     0.009 A 
HETATM   21  C   UNL     1      -4.327   4.075 -31.070  1.00  0.00     0.034 A 
HETATM   22  C   UNL     1      -4.898   5.422 -30.842  1.00  0.00     0.070 C 
HETATM   23  N   UNL     1      -3.127   3.891 -31.699  1.00  0.00    -0.282 N 
HETATM   24  H   UNL     1      -2.498   4.595 -32.070  1.00  0.00     0.189 HD
HETATM   25  N   UNL     1      -2.775   2.605 -31.825  1.00  0.00    -0.179 NA
HETATM   26  C   UNL     1      -3.772   1.935 -31.237  1.00  0.00     0.060 A 
HETATM   27  C   UNL     1      -3.747   0.451 -31.175  1.00  0.00     0.073 C 
ENDBRANCH  19  20
ENDBRANCH   1  19
TORSDOF 5
ENDMDL
MODEL 4
REMARK VINA RESULT:      -8.6      0.525      1.704
REMARK  5 active torsions:
REMARK  status: ('A' for Active; 'I' for Inactive)
REMARK    1  A    between atoms: C_8  and  C_9 
REMARK    2  A    between atoms: C_9  and  N_10 
REMARK       I    between atoms: N_10  and  C_11 
REMARK       I    between atoms: C_11  and  N_12 
REMARK    3  A    between atoms: C_13  and  C_14 
REMARK    4  A    between atoms: C_14  and  C_15 
REMARK    5  A    between atoms: C_15  and  C_16 
ROOT
HETATM    1  N   UNL     1      -9.614   2.191 -32.860  1.00  0.00    -0.339 N 
HETATM    2  C   UNL     1      -8.855   1.904 -31.761  1.00  0.00     0.318 C 
HETATM    3  N   UNL     1      -7.700   1.176 -32.002  1.00  0.00    -0.330 N 
HETATM    4  C   UNL     1      -7.200   0.743 -33.327  1.00  0.00     0.089 C 
HETATM    5  C   UNL     1      -5.739   1.195 -33.512  1.00  0.00     0.025 C 
HETATM    6  C   UNL     1      -4.841   0.801 -32.342  1.00  0.00     0.004 C 
HETATM    7  C   UNL     1      -5.431   1.293 -31.025  1.00  0.00     0.020 C 
HETATM    8  C   UNL     1      -6.868   0.813 -30.851  1.00  0.00     0.128 C 
HETATM    9  O   UNL     1      -9.180   2.297 -30.643  1.00  0.00    -0.247 OA
HETATM   10  H   UNL     1      -9.623   1.511 -33.599  1.00  0.00     0.164 HD
ENDROOT
BRANCH   4  11
HETATM   11  C   UNL     1      -7.356  -0.778 -33.535  1.00  0.00     0.030 C 
BRANCH  11  12
HETATM   12  C   UNL     1      -6.742  -1.261 -34.853  1.00  0.00     0.040 C 
BRANCH  12  13
HETATM   13  C   UNL     1      -5.992  -2.557 -34.675  1.00  0.00    -0.058 A 
HETATM   14  C   UNL     1      -6.593  -3.774 -35.025  1.00  0.00     0.007 A 
HETATM   15  C   UNL     1      -5.908  -4.977 -34.847  1.00  0.00     0.001 A 
HETATM   16  C   UNL     1      -4.621  -4.974 -34.314  1.00  0.00     0.000 A 
HETATM   17  C   UNL     1      -4.018  -3.770 -33.956  1.00  0.00     0.001 A 
HETATM   18  C   UNL     1      -4.701  -2.565 -34.132  1.00  0.00     0.007 A 
ENDBRANCH  12  13
ENDBRANCH  11  12
ENDBRANCH   4  11
BRANCH   1  19
HETATM   19  C   UNL     1     -10.830   2.957 -32.723  1.00  0.00     0.167 C 
BRANCH  19  20
HETATM   20  C   UNL     1     -11.583   2.844 -34.000  1.00  0.00     0.009 A 
HETATM   21  C   UNL     1     -12.503   1.884 -34.385  1.00  0.00     0.034 A 
HETATM   22  C   UNL     1     -13.039   0.690 -33.691  1.00  0.00     0.070 C 
HETATM   23  N   UNL     1     -12.905   2.235 -35.643  1.00  0.00    -0.282 N 
HETATM   24  H   UNL     1     -13.581   1.769 -36.239  1.00  0.00     0.189 HD
HETATM   25  N   UNL     1     -12.306   3.336 -36.114  1.00  0.00    -0.179 NA
HETATM   26  C   UNL     1     -11.505   3.723 -35.117  1.00  0.00     0.060 A 
HETATM   27  C   UNL     1     -10.654   4.932 -35.262  1.00  0.00     0.073 C 
ENDBRANCH  19  20
ENDBRANCH   1  19
TORSDOF 5
ENDMDL
MODEL 5
REMARK VINA RESULT:      -8.5      2.927      5.684
REMARK  5 active torsions:
REMARK  status: ('A' for Active; 'I' for Inactive)
REMARK    1  A    between atoms: C_8  and  C_9 
REMARK    2  A    between atoms: C_9  and  N_10 
REMARK       I    between atoms: N_10  and  C_11 
REMARK       I    between atoms: C_11  and  N_12 
REMARK    3  A    between atoms: C_13  and  C_14 
REMARK    4  A    between atoms: C_14  and  C_15 
REMARK    5  A    between atoms: C_15  and  C_16 
ROOT
HETATM    1  N   UNL     1      -6.119   3.769 -33.494  1.00  0.00    -0.339 N 
HETATM    2  C   UNL     1      -7.419   3.610 -33.886  1.00  0.00     0.318 C 
HETATM    3  N   UNL     1      -7.932   2.329 -33.755  1.00  0.00    -0.330 N 
HETATM    4  C   UNL     1      -7.227   1.158 -33.187  1.00  0.00     0.089 C 
HETATM    5  C   UNL     1      -8.081   0.517 -32.076  1.00  0.00     0.025 C 
HETATM    6  C   UNL     1      -9.515   0.234 -32.515  1.00  0.00     0.004 C 
HETATM    7  C   UNL     1     -10.160   1.496 -33.080  1.00  0.00     0.020 C 
HETATM    8  C   UNL     1      -9.312   2.099 -34.195  1.00  0.00     0.128 C 
HETATM    9  O   UNL     1      -8.079   4.560 -34.300  1.00  0.00    -0.247 OA
HETATM   10  H   UNL     1      -5.502   2.990 -33.634  1.00  0.00     0.164 HD
ENDROOT
BRANCH   4  11
HETATM   11  C   UNL     1      -6.842   0.131 -34.273  1.00  0.00     0.030 C 
BRANCH  11  12
HETATM   12  C   UNL     1      -5.492  -0.539 -34.001  1.00  0.00     0.040 C 
BRANCH  12  13
HETATM   13  C   UNL     1      -5.544  -2.023 -34.266  1.00  0.00    -0.058 A 
HETATM   14  C   UNL     1      -6.747  -2.628 -34.655  1.00  0.00     0.007 A 
HETATM   15  C   UNL     1      -6.804  -4.003 -34.885  1.00  0.00     0.001 A 
HETATM   16  C   UNL     1      -5.662  -4.785 -34.724  1.00  0.00     0.000 A 
HETATM   17  C   UNL     1      -4.463  -4.194 -34.331  1.00  0.00     0.001 A 
HETATM   18  C   UNL     1      -4.404  -2.819 -34.099  1.00  0.00     0.007 A 
ENDBRANCH  12  13
ENDBRANCH  11  12
ENDBRANCH   4  11
BRANCH   1  19
HETATM   19  C   UNL     1      -5.490   5.067 -33.574  1.00  0.00     0.167 C 
BRANCH  19  20
HETATM   20  C   UNL     1      -4.149   4.959 -32.942  1.00  0.00     0.009 A 
HETATM   21  C   UNL     1      -2.902   4.971 -33.541  1.00  0.00     0.034 A 
HETATM   22  C   UNL     1      -2.483   5.094 -34.957  1.00  0.00     0.070 C 
HETATM   23  N   UNL     1      -1.997   4.848 -32.524  1.00  0.00    -0.282 N 
HETATM   24  H   UNL     1      -0.984   4.828 -32.583  1.00  0.00     0.189 HD
HETATM   25  N   UNL     1      -2.558   4.738 -31.313  1.00  0.00    -0.179 NA
HETATM   26  C   UNL     1      -3.870   4.815 -31.553  1.00  0.00     0.060 A 
HETATM   27  C   UNL     1      -4.845   4.729 -30.436  1.00  0.00     0.073 C 
ENDBRANCH  19  20
ENDBRANCH   1  19
TORSDOF 5
ENDMDL
MODEL 6
REMARK VINA RESULT:      -8.4      2.306      5.700
REMARK  5 active torsions:
REMARK  status: ('A' for Active; 'I' for Inactive)
REMARK    1  A    between atoms: C_8  and  C_9 
REMARK    2  A    between atoms: C_9  and  N_10 
REMARK       I    between atoms: N_10  and  C_11 
REMARK       I    between atoms: C_11  and  N_12 
REMARK    3  A    between atoms: C_13  and  C_14 
REMARK    4  A    between atoms: C_14  and  C_15 
REMARK    5  A    between atoms: C_15  and  C_16 
ROOT
HETATM    1  N   UNL     1      -6.572   2.468 -31.403  1.00  0.00    -0.339 N 
HETATM    2  C   UNL     1      -7.546   3.038 -32.173  1.00  0.00     0.318 C 
HETATM    3  N   UNL     1      -8.329   2.155 -32.902  1.00  0.00    -0.330 N 
HETATM    4  C   UNL     1      -8.237   0.678 -32.873  1.00  0.00     0.089 C 
HETATM    5  C   UNL     1      -9.622   0.070 -32.578  1.00  0.00     0.025 C 
HETATM    6  C   UNL     1     -10.718   0.614 -33.490  1.00  0.00     0.004 C 
HETATM    7  C   UNL     1     -10.740   2.138 -33.450  1.00  0.00     0.020 C 
HETATM    8  C   UNL     1      -9.367   2.719 -33.770  1.00  0.00     0.128 C 
HETATM    9  O   UNL     1      -7.719   4.255 -32.184  1.00  0.00    -0.247 OA
HETATM   10  H   UNL     1      -6.145   1.629 -31.754  1.00  0.00     0.164 HD
ENDROOT
BRANCH   4  11
HETATM   11  C   UNL     1      -7.633   0.110 -34.175  1.00  0.00     0.030 C 
BRANCH  11  12
HETATM   12  C   UNL     1      -6.151  -0.250 -34.031  1.00  0.00     0.040 C 
BRANCH  12  13
HETATM   13  C   UNL     1      -5.914  -1.725 -34.240  1.00  0.00    -0.058 A 
HETATM   14  C   UNL     1      -4.624  -2.258 -34.117  1.00  0.00     0.007 A 
HETATM   15  C   UNL     1      -4.398  -3.619 -34.325  1.00  0.00     0.001 A 
HETATM   16  C   UNL     1      -5.458  -4.458 -34.663  1.00  0.00     0.000 A 
HETATM   17  C   UNL     1      -6.743  -3.937 -34.795  1.00  0.00     0.001 A 
HETATM   18  C   UNL     1      -6.972  -2.576 -34.588  1.00  0.00     0.007 A 
ENDBRANCH  12  13
ENDBRANCH  11  12
ENDBRANCH   4  11
BRANCH   1  19
HETATM   19  C   UNL     1      -5.710   3.296 -30.593  1.00  0.00     0.167 C 
BRANCH  19  20
HETATM   20  C   UNL     1      -4.500   3.612 -31.397  1.00  0.00     0.009 A 
HETATM   21  C   UNL     1      -3.547   2.750 -31.910  1.00  0.00     0.034 A 
HETATM   22  C   UNL     1      -3.406   1.277 -31.847  1.00  0.00     0.070 C 
HETATM   23  N   UNL     1      -2.648   3.538 -32.573  1.00  0.00    -0.282 N 
HETATM   24  H   UNL     1      -1.819   3.253 -33.083  1.00  0.00     0.189 HD
HETATM   25  N   UNL     1      -2.931   4.846 -32.516  1.00  0.00    -0.179 NA
HETATM   26  C   UNL     1      -4.064   4.903 -31.809  1.00  0.00     0.060 A 
HETATM   27  C   UNL     1      -4.706   6.212 -31.523  1.00  0.00     0.073 C 
ENDBRANCH  19  20
ENDBRANCH   1  19
TORSDOF 5
ENDMDL
MODEL 7
REMARK VINA RESULT:      -8.3      4.126      6.576
REMARK  5 active torsions:
REMARK  status: ('A' for Active; 'I' for Inactive)
REMARK    1  A    between atoms: C_8  and  C_9 
REMARK    2  A    between atoms: C_9  and  N_10 
REMARK       I    between atoms: N_10  and  C_11 
REMARK       I    between atoms: C_11  and  N_12 
REMARK    3  A    between atoms: C_13  and  C_14 
REMARK    4  A    between atoms: C_14  and  C_15 
REMARK    5  A    between atoms: C_15  and  C_16 
ROOT
HETATM    1  N   UNL     1      -3.521   4.177 -31.320  1.00  0.00    -0.339 N 
HETATM    2  C   UNL     1      -4.853   3.905 -31.187  1.00  0.00     0.318 C 
HETATM    3  N   UNL     1      -5.212   2.574 -31.339  1.00  0.00    -0.330 N 
HETATM    4  C   UNL     1      -4.290   1.441 -31.572  1.00  0.00     0.089 C 
HETATM    5  C   UNL     1      -4.542   0.334 -30.530  1.00  0.00     0.025 C 
HETATM    6  C   UNL     1      -6.012  -0.064 -30.427  1.00  0.00     0.004 C 
HETATM    7  C   UNL     1      -6.882   1.164 -30.183  1.00  0.00     0.020 C 
HETATM    8  C   UNL     1      -6.636   2.236 -31.239  1.00  0.00     0.128 C 
HETATM    9  O   UNL     1      -5.661   4.793 -30.923  1.00  0.00    -0.247 OA
HETATM   10  H   UNL     1      -3.003   3.613 -31.971  1.00  0.00     0.164 HD
ENDROOT
BRANCH   4  11
HETATM   11  C   UNL     1      -4.390   0.899 -33.014  1.00  0.00     0.030 C 
BRANCH  11  12
HETATM   12  C   UNL     1      -3.797  -0.506 -33.161  1.00  0.00     0.040 C 
BRANCH  12  13
HETATM   13  C   UNL     1      -4.804  -1.478 -33.724  1.00  0.00    -0.058 A 
HETATM   14  C   UNL     1      -4.402  -2.763 -34.114  1.00  0.00     0.007 A 
HETATM   15  C   UNL     1      -5.327  -3.660 -34.650  1.00  0.00     0.001 A 
HETATM   16  C   UNL     1      -6.658  -3.280 -34.805  1.00  0.00     0.000 A 
HETATM   17  C   UNL     1      -7.066  -2.003 -34.427  1.00  0.00     0.001 A 
HETATM   18  C   UNL     1      -6.143  -1.103 -33.891  1.00  0.00     0.007 A 
ENDBRANCH  12  13
ENDBRANCH  11  12
ENDBRANCH   4  11
BRANCH   1  19
HETATM   19  C   UNL     1      -3.036   5.528 -31.166  1.00  0.00     0.167 C 
BRANCH  19  20
HETATM   20  C   UNL     1      -2.491   5.966 -32.478  1.00  0.00     0.009 A 
HETATM   21  C   UNL     1      -3.066   5.875 -33.733  1.00  0.00     0.034 A 
HETATM   22  C   UNL     1      -4.369   5.339 -34.190  1.00  0.00     0.070 C 
HETATM   23  N   UNL     1      -2.162   6.422 -34.600  1.00  0.00    -0.282 N 
HETATM   24  H   UNL     1      -2.244   6.537 -35.604  1.00  0.00     0.189 HD
HETATM   25  N   UNL     1      -1.036   6.845 -34.010  1.00  0.00    -0.179 NA
HETATM   26  C   UNL     1      -1.229   6.582 -32.714  1.00  0.00     0.060 A 
HETATM   27  C   UNL     1      -0.179   6.911 -31.716  1.00  0.00     0.073 C 
ENDBRANCH  19  20
ENDBRANCH   1  19
TORSDOF 5
ENDMDL
MODEL 8
REMARK VINA RESULT:      -7.9      1.991      2.690
REMARK  5 active torsions:
REMARK  status: ('A' for Active; 'I' for Inactive)
REMARK    1  A    between atoms: C_8  and  C_9 
REMARK    2  A    between atoms: C_9  and  N_10 
REMARK       I    between atoms: N_10  and  C_11 
REMARK       I    between atoms: C_11  and  N_12 
REMARK    3  A    between atoms: C_13  and  C_14 
REMARK    4  A    between atoms: C_14  and  C_15 
REMARK    5  A    between atoms: C_15  and  C_16 
ROOT
HETATM    1  N   UNL     1     -10.519   3.491 -33.490  1.00  0.00    -0.339 N 
HETATM    2  C   UNL     1      -9.618   3.950 -32.571  1.00  0.00     0.318 C 
HETATM    3  N   UNL     1      -8.412   3.267 -32.519  1.00  0.00    -0.330 N 
HETATM    4  C   UNL     1      -8.005   2.145 -33.394  1.00  0.00     0.089 C 
HETATM    5  C   UNL     1      -6.640   2.449 -34.040  1.00  0.00     0.025 C 
HETATM    6  C   UNL     1      -5.581   2.871 -33.025  1.00  0.00     0.004 C 
HETATM    7  C   UNL     1      -6.087   4.032 -32.176  1.00  0.00     0.020 C 
HETATM    8  C   UNL     1      -7.425   3.700 -31.525  1.00  0.00     0.128 C 
HETATM    9  O   UNL     1      -9.870   4.923 -31.864  1.00  0.00    -0.247 OA
HETATM   10  H   UNL     1     -10.521   2.503 -33.673  1.00  0.00     0.164 HD
ENDROOT
BRANCH   4  11
HETATM   11  C   UNL     1      -7.990   0.799 -32.639  1.00  0.00     0.030 C 
BRANCH  11  12
HETATM   12  C   UNL     1      -8.178  -0.403 -33.569  1.00  0.00     0.040 C 
BRANCH  12  13
HETATM   13  C   UNL     1      -6.900  -1.189 -33.728  1.00  0.00    -0.058 A 
HETATM   14  C   UNL     1      -5.776  -0.871 -32.954  1.00  0.00     0.007 A 
HETATM   15  C   UNL     1      -4.587  -1.585 -33.109  1.00  0.00     0.001 A 
HETATM   16  C   UNL     1      -4.510  -2.618 -34.041  1.00  0.00     0.000 A 
HETATM   17  C   UNL     1      -5.620  -2.937 -34.820  1.00  0.00     0.001 A 
HETATM   18  C   UNL     1      -6.811  -2.224 -34.668  1.00  0.00     0.007 A 
ENDBRANCH  12  13
ENDBRANCH  11  12
ENDBRANCH   4  11
BRANCH   1  19
HETATM   19  C   UNL     1     -11.801   4.139 -33.637  1.00  0.00     0.167 C 
BRANCH  19  20
HETATM   20  C   UNL     1     -12.838   3.219 -33.099  1.00  0.00     0.009 A 
HETATM   21  C   UNL     1     -13.546   3.304 -31.913  1.00  0.00     0.034 A 
HETATM   22  C   UNL     1     -13.525   4.299 -30.815  1.00  0.00     0.070 C 
HETATM   23  N   UNL     1     -14.376   2.219 -31.894  1.00  0.00    -0.282 N 
HETATM   24  H   UNL     1     -15.050   1.956 -31.183  1.00  0.00     0.189 HD
HETATM   25  N   UNL     1     -14.251   1.424 -32.965  1.00  0.00    -0.179 NA
HETATM   26  C   UNL     1     -13.322   2.029 -33.713  1.00  0.00     0.060 A 
HETATM   27  C   UNL     1     -12.898   1.438 -35.008  1.00  0.00     0.073 C 
ENDBRANCH  19  20
ENDBRANCH   1  19
TORSDOF 5
ENDMDL
MODEL 9
REMARK VINA RESULT:      -7.8      1.689      2.561
REMARK  5 active torsions:
REMARK  status: ('A' for Active; 'I' for Inactive)
REMARK    1  A    between atoms: C_8  and  C_9 
REMARK    2  A    between atoms: C_9  and  N_10 
REMARK       I    between atoms: N_10  and  C_11 
REMARK       I    between atoms: C_11  and  N_12 
REMARK    3  A    between atoms: C_13  and  C_14 
REMARK    4  A    between atoms: C_14  and  C_15 
REMARK    5  A    between atoms: C_15  and  C_16 
ROOT
HETATM    1  N   UNL     1      -9.755   2.383 -32.682  1.00  0.00    -0.339 N 
HETATM    2  C   UNL     1      -8.906   2.120 -31.644  1.00  0.00     0.318 C 
HETATM    3  N   UNL     1      -7.776   1.383 -31.965  1.00  0.00    -0.330 N 
HETATM    4  C   UNL     1      -7.391   0.917 -33.316  1.00  0.00     0.089 C 
HETATM    5  C   UNL     1      -5.951   1.359 -33.636  1.00  0.00     0.025 C 
HETATM    6  C   UNL     1      -4.957   0.991 -32.538  1.00  0.00     0.004 C 
HETATM    7  C   UNL     1      -5.433   1.516 -31.187  1.00  0.00     0.020 C 
HETATM    8  C   UNL     1      -6.850   1.045 -30.880  1.00  0.00     0.128 C 
HETATM    9  O   UNL     1      -9.134   2.541 -30.512  1.00  0.00    -0.247 OA
HETATM   10  H   UNL     1      -9.828   1.684 -33.400  1.00  0.00     0.164 HD
ENDROOT
BRANCH   4  11
HETATM   11  C   UNL     1      -7.566  -0.609 -33.474  1.00  0.00     0.030 C 
BRANCH  11  12
HETATM   12  C   UNL     1      -7.026  -1.132 -34.808  1.00  0.00     0.040 C 
BRANCH  12  13
HETATM   13  C   UNL     1      -6.225  -2.396 -34.627  1.00  0.00    -0.058 A 
HETATM   14  C   UNL     1      -4.908  -2.335 -34.150  1.00  0.00     0.007 A 
HETATM   15  C   UNL     1      -4.158  -3.501 -33.996  1.00  0.00     0.001 A 
HETATM   16  C   UNL     1      -4.714  -4.737 -34.320  1.00  0.00     0.000 A 
HETATM   17  C   UNL     1      -6.020  -4.808 -34.801  1.00  0.00     0.001 A 
HETATM   18  C   UNL     1      -6.773  -3.643 -34.957  1.00  0.00     0.007 A 
ENDBRANCH  12  13
ENDBRANCH  11  12
ENDBRANCH   4  11
BRANCH   1  19
HETATM   19  C   UNL     1     -10.955   3.155 -32.460  1.00  0.00     0.167 C 
BRANCH  19  20
HETATM   20  C   UNL     1     -10.704   4.533 -32.959  1.00  0.00     0.009 A 
HETATM   21  C   UNL     1     -10.690   4.997 -34.262  1.00  0.00     0.034 A 
HETATM   22  C   UNL     1     -10.913   4.317 -35.559  1.00  0.00     0.070 C 
HETATM   23  N   UNL     1     -10.417   6.334 -34.181  1.00  0.00    -0.282 N 
HETATM   24  H   UNL     1     -10.337   7.006 -34.936  1.00  0.00     0.189 HD
HETATM   25  N   UNL     1     -10.235   6.772 -32.928  1.00  0.00    -0.179 NA
HETATM   26  C   UNL     1     -10.418   5.685 -32.173  1.00  0.00     0.060 A 
HETATM   27  C   UNL     1     -10.294   5.767 -30.695  1.00  0.00     0.073 C 
ENDBRANCH  19  20
ENDBRANCH   1  19
TORSDOF 5
ENDMDL
MODEL 10
REMARK VINA RESULT:      -7.8      5.649      9.095
REMARK  5 active torsions:
REMARK  status: ('A' for Active; 'I' for Inactive)
REMARK    1  A    between atoms: C_8  and  C_9 
REMARK    2  A    between atoms: C_9  and  N_10 
REMARK       I    between atoms: N_10  and  C_11 
REMARK       I    between atoms: C_11  and  N_12 
REMARK    3  A    between atoms: C_13  and  C_14 
REMARK    4  A    between atoms: C_14  and  C_15 
REMARK    5  A    between atoms: C_15  and  C_16 
ROOT
HETATM    1  N   UNL     1      -1.870   6.518 -31.164  1.00  0.00    -0.339 N 
HETATM    2  C   UNL     1      -1.702   6.312 -32.505  1.00  0.00     0.318 C 
HETATM    3  N   UNL     1      -2.557   5.385 -33.081  1.00  0.00    -0.330 N 
HETATM    4  C   UNL     1      -3.649   4.659 -32.396  1.00  0.00     0.089 C 
HETATM    5  C   UNL     1      -4.970   4.841 -33.168  1.00  0.00     0.025 C 
HETATM    6  C   UNL     1      -4.839   4.523 -34.655  1.00  0.00     0.004 C 
HETATM    7  C   UNL     1      -3.696   5.320 -35.275  1.00  0.00     0.020 C 
HETATM    8  C   UNL     1      -2.394   5.104 -34.511  1.00  0.00     0.128 C 
HETATM    9  O   UNL     1      -0.859   6.938 -33.144  1.00  0.00    -0.247 OA
HETATM   10  H   UNL     1      -2.161   5.730 -30.614  1.00  0.00     0.164 HD
ENDROOT
BRANCH   4  11
HETATM   11  C   UNL     1      -3.312   3.166 -32.191  1.00  0.00     0.030 C 
BRANCH  11  12
HETATM   12  C   UNL     1      -4.502   2.357 -31.668  1.00  0.00     0.040 C 
BRANCH  12  13
HETATM   13  C   UNL     1      -4.737   1.117 -32.495  1.00  0.00    -0.058 A 
HETATM   14  C   UNL     1      -5.908   0.986 -33.253  1.00  0.00     0.007 A 
HETATM   15  C   UNL     1      -6.137  -0.166 -34.007  1.00  0.00     0.001 A 
HETATM   16  C   UNL     1      -5.201  -1.198 -34.005  1.00  0.00     0.000 A 
HETATM   17  C   UNL     1      -4.037  -1.080 -33.249  1.00  0.00     0.001 A 
HETATM   18  C   UNL     1      -3.806   0.071 -32.493  1.00  0.00     0.007 A 
ENDBRANCH  12  13
ENDBRANCH  11  12
ENDBRANCH   4  11
BRANCH   1  19
HETATM   19  C   UNL     1      -1.042   7.474 -30.467  1.00  0.00     0.167 C 
BRANCH  19  20
HETATM   20  C   UNL     1      -0.733   6.911 -29.126  1.00  0.00     0.009 A 
HETATM   21  C   UNL     1       0.073   5.835 -28.798  1.00  0.00     0.034 A 
HETATM   22  C   UNL     1       0.878   4.910 -29.630  1.00  0.00     0.070 C 
HETATM   23  N   UNL     1       0.027   5.734 -27.436  1.00  0.00    -0.282 N 
HETATM   24  H   UNL     1       0.504   5.065 -26.840  1.00  0.00     0.189 HD
HETATM   25  N   UNL     1      -0.759   6.647 -26.853  1.00  0.00    -0.179 NA
HETATM   26  C   UNL     1      -1.221   7.378 -27.872  1.00  0.00     0.060 A 
HETATM   27  C   UNL     1      -2.147   8.513 -27.625  1.00  0.00     0.073 C 
ENDBRANCH  19  20
ENDBRANCH   1  19
TORSDOF 5
ENDMDL
