MODEL 1
REMARK VINA RESULT:      -8.6      0.000      0.000
REMARK  6 active torsions:
REMARK  status: ('A' for Active; 'I' for Inactive)
REMARK    1  A    between atoms: C_4  and  O_5 
REMARK    2  A    between atoms: O_5  and  C_6 
REMARK    3  A    between atoms: C_6  and  C_7 
REMARK       I    between atoms: C_7  and  N_8 
REMARK    4  A    between atoms: N_8  and  N_9 
REMARK    5  A    between atoms: C_10  and  C_11 
REMARK    6  A    between atoms: C_23  and  C_24 
ROOT
HETATM    1  C   UNL     1      -5.207   1.235 -30.750  1.00  0.00     0.261 C 
HETATM    2  N   UNL     1      -5.604   2.491 -31.198  1.00  0.00    -0.246 N 
HETATM    3  O   UNL     1      -4.047   0.847 -30.620  1.00  0.00    -0.269 OA
HETATM    4  H   UNL     1      -6.564   2.770 -31.004  1.00  0.00     0.192 HD
ENDROOT
BRANCH   2   5
HETATM    5  N   UNL     1      -4.784   3.527 -31.592  1.00  0.00    -0.184 NA
HETATM    6  C   UNL     1      -4.375   3.572 -32.819  1.00  0.00     0.152 C 
BRANCH   6   7
HETATM    7  C   UNL     1      -3.507   4.646 -33.268  1.00  0.00     0.011 A 
HETATM    8  C   UNL     1      -2.361   5.243 -32.646  1.00  0.00     0.005 A 
HETATM    9  C   UNL     1      -1.904   6.255 -33.496  1.00  0.00     0.043 A 
HETATM   10  C   UNL     1      -1.673   5.035 -31.431  1.00  0.00     0.033 A 
HETATM   11  C   UNL     1      -0.800   7.063 -33.199  1.00  0.00     0.031 A 
HETATM   12  N   UNL     1      -2.729   6.266 -34.596  1.00  0.00    -0.364 N 
HETATM   13  C   UNL     1      -0.139   6.839 -31.989  1.00  0.00     0.021 A 
HETATM   14  C   UNL     1      -0.572   5.839 -31.121  1.00  0.00     0.012 A 
HETATM   15 BR   UNL     1       0.344   5.570 -29.487  1.00  0.00    -0.051 Br
HETATM   16  H   UNL     1      -2.630   6.896 -35.380  1.00  0.00     0.165 HD
HETATM   17  C   UNL     1      -3.702   5.314 -34.465  1.00  0.00     0.102 A 
ENDBRANCH   6   7
ENDBRANCH   2   5
BRANCH   1  18
HETATM   18  C   UNL     1      -6.382   0.288 -30.531  1.00  0.00     0.280 C 
BRANCH  18  19
HETATM   19  O   UNL     1      -6.342  -0.825 -31.418  1.00  0.00    -0.341 OA
BRANCH  19  20
HETATM   20  C   UNL     1      -6.879  -0.552 -32.656  1.00  0.00     0.076 A 
HETATM   21  C   UNL     1      -8.051   0.204 -32.804  1.00  0.00     0.044 A 
HETATM   22  C   UNL     1      -8.569   0.492 -34.071  1.00  0.00    -0.059 A 
HETATM   23  C   UNL     1      -9.790   1.347 -34.228  1.00  0.00     0.048 C 
HETATM   24  C   UNL     1      -7.896   0.014 -35.196  1.00  0.00     0.007 A 
HETATM   25  C   UNL     1      -6.746  -0.766 -35.056  1.00  0.00     0.011 A 
HETATM   26  C   UNL     1      -6.229  -1.082 -33.787  1.00  0.00    -0.021 A 
BRANCH  26  27
HETATM   27  C   UNL     1      -4.961  -1.915 -33.652  1.00  0.00     0.013 C 
HETATM   28  C   UNL     1      -4.784  -2.939 -34.782  1.00  0.00     0.015 C 
HETATM   29  C   UNL     1      -3.734  -1.004 -33.561  1.00  0.00     0.015 C 
ENDBRANCH  26  27
ENDBRANCH  19  20
ENDBRANCH  18  19
ENDBRANCH   1  18
TORSDOF 6
ENDMDL
MODEL 2
REMARK VINA RESULT:      -8.5      1.537      3.097
REMARK  6 active torsions:
REMARK  status: ('A' for Active; 'I' for Inactive)
REMARK    1  A    between atoms: C_4  and  O_5 
REMARK    2  A    between atoms: O_5  and  C_6 
REMARK    3  A    between atoms: C_6  and  C_7 
REMARK       I    between atoms: C_7  and  N_8 
REMARK    4  A    between atoms: N_8  and  N_9 
REMARK    5  A    between atoms: C_10  and  C_11 
REMARK    6  A    between atoms: C_23  and  C_24 
ROOT
HETATM    1  C   UNL     1      -3.322   0.582 -31.676  1.00  0.00     0.261 C 
HETATM    2  N   UNL     1      -3.964   1.614 -32.354  1.00  0.00    -0.246 N 
HETATM    3  O   UNL     1      -2.442   0.712 -30.827  1.00  0.00    -0.269 OA
HETATM    4  H   UNL     1      -4.841   1.387 -32.820  1.00  0.00     0.192 HD
ENDROOT
BRANCH   2   5
HETATM    5  N   UNL     1      -3.730   2.966 -32.219  1.00  0.00    -0.184 NA
HETATM    6  C   UNL     1      -2.837   3.526 -32.968  1.00  0.00     0.152 C 
BRANCH   6   7
HETATM    7  C   UNL     1      -2.560   4.947 -32.850  1.00  0.00     0.011 A 
HETATM    8  C   UNL     1      -1.794   5.671 -31.877  1.00  0.00     0.005 A 
HETATM    9  C   UNL     1      -1.866   7.027 -32.215  1.00  0.00     0.043 A 
HETATM   10  C   UNL     1      -1.057   5.311 -30.728  1.00  0.00     0.033 A 
HETATM   11  C   UNL     1      -1.241   8.035 -31.471  1.00  0.00     0.031 A 
HETATM   12  N   UNL     1      -2.633   7.123 -33.351  1.00  0.00    -0.364 N 
HETATM   13  C   UNL     1      -0.521   7.651 -30.336  1.00  0.00     0.021 A 
HETATM   14  C   UNL     1      -0.433   6.309 -29.974  1.00  0.00     0.012 A 
HETATM   15 BR   UNL     1       0.544   5.829 -28.426  1.00  0.00    -0.051 Br
HETATM   16  H   UNL     1      -2.848   7.989 -33.826  1.00  0.00     0.165 HD
HETATM   17  C   UNL     1      -3.065   5.884 -33.735  1.00  0.00     0.102 A 
ENDBRANCH   6   7
ENDBRANCH   2   5
BRANCH   1  18
HETATM   18  C   UNL     1      -3.735  -0.798 -32.176  1.00  0.00     0.280 C 
BRANCH  18  19
HETATM   19  O   UNL     1      -3.966  -0.809 -33.581  1.00  0.00    -0.341 OA
BRANCH  19  20
HETATM   20  C   UNL     1      -4.811  -1.818 -33.984  1.00  0.00     0.076 A 
HETATM   21  C   UNL     1      -4.363  -3.138 -34.146  1.00  0.00     0.044 A 
HETATM   22  C   UNL     1      -5.243  -4.155 -34.533  1.00  0.00    -0.059 A 
HETATM   23  C   UNL     1      -4.773  -5.575 -34.651  1.00  0.00     0.048 C 
HETATM   24  C   UNL     1      -6.583  -3.837 -34.755  1.00  0.00     0.007 A 
HETATM   25  C   UNL     1      -7.029  -2.520 -34.627  1.00  0.00     0.011 A 
HETATM   26  C   UNL     1      -6.151  -1.484 -34.261  1.00  0.00    -0.021 A 
BRANCH  26  27
HETATM   27  C   UNL     1      -6.658  -0.057 -34.104  1.00  0.00     0.013 C 
HETATM   28  C   UNL     1      -7.516   0.417 -35.285  1.00  0.00     0.015 C 
HETATM   29  C   UNL     1      -7.430   0.089 -32.790  1.00  0.00     0.015 C 
ENDBRANCH  26  27
ENDBRANCH  19  20
ENDBRANCH  18  19
ENDBRANCH   1  18
TORSDOF 6
ENDMDL
MODEL 3
REMARK VINA RESULT:      -8.5      3.234      8.222
REMARK  6 active torsions:
REMARK  status: ('A' for Active; 'I' for Inactive)
REMARK    1  A    between atoms: C_4  and  O_5 
REMARK    2  A    between atoms: O_5  and  C_6 
REMARK    3  A    between atoms: C_6  and  C_7 
REMARK       I    between atoms: C_7  and  N_8 
REMARK    4  A    between atoms: N_8  and  N_9 
REMARK    5  A    between atoms: C_10  and  C_11 
REMARK    6  A    between atoms: C_23  and  C_24 
ROOT
HETATM    1  C   UNL     1      -4.812   4.858 -30.921  1.00  0.00     0.261 C 
HETATM    2  N   UNL     1      -4.349   3.681 -30.340  1.00  0.00    -0.246 N 
HETATM    3  O   UNL     1      -5.434   4.946 -31.978  1.00  0.00    -0.269 OA
HETATM    4  H   UNL     1      -4.096   3.720 -29.354  1.00  0.00     0.192 HD
ENDROOT
BRANCH   2   5
HETATM    5  N   UNL     1      -4.480   2.403 -30.840  1.00  0.00    -0.184 NA
HETATM    6  C   UNL     1      -3.430   1.791 -31.282  1.00  0.00     0.152 C 
BRANCH   6   7
HETATM    7  C   UNL     1      -3.531   0.446 -31.820  1.00  0.00     0.011 A 
HETATM    8  C   UNL     1      -4.464  -0.120 -32.750  1.00  0.00     0.005 A 
HETATM    9  C   UNL     1      -4.127  -1.468 -32.913  1.00  0.00     0.043 A 
HETATM   10  C   UNL     1      -5.578   0.377 -33.462  1.00  0.00     0.033 A 
HETATM   11  C   UNL     1      -4.838  -2.339 -33.747  1.00  0.00     0.031 A 
HETATM   12  N   UNL     1      -3.027  -1.709 -32.124  1.00  0.00    -0.364 N 
HETATM   13  C   UNL     1      -5.937  -1.823 -34.436  1.00  0.00     0.021 A 
HETATM   14  C   UNL     1      -6.299  -0.486 -34.294  1.00  0.00     0.012 A 
HETATM   15 BR   UNL     1      -7.800   0.175 -35.238  1.00  0.00    -0.051 Br
HETATM   16  H   UNL     1      -2.562  -2.604 -32.049  1.00  0.00     0.165 HD
HETATM   17  C   UNL     1      -2.669  -0.573 -31.454  1.00  0.00     0.102 A 
ENDBRANCH   6   7
ENDBRANCH   2   5
BRANCH   1  18
HETATM   18  C   UNL     1      -4.369   6.104 -30.163  1.00  0.00     0.280 C 
BRANCH  18  19
HETATM   19  O   UNL     1      -3.424   6.870 -30.904  1.00  0.00    -0.341 OA
BRANCH  19  20
HETATM   20  C   UNL     1      -2.121   6.487 -30.679  1.00  0.00     0.076 A 
HETATM   21  C   UNL     1      -1.509   6.642 -29.425  1.00  0.00     0.044 A 
HETATM   22  C   UNL     1      -0.191   6.225 -29.210  1.00  0.00    -0.059 A 
HETATM   23  C   UNL     1       0.440   6.340 -27.855  1.00  0.00     0.048 C 
HETATM   24  C   UNL     1       0.512   5.646 -30.266  1.00  0.00     0.007 A 
HETATM   25  C   UNL     1      -0.079   5.518 -31.525  1.00  0.00     0.011 A 
HETATM   26  C   UNL     1      -1.395   5.954 -31.762  1.00  0.00    -0.021 A 
BRANCH  26  27
HETATM   27  C   UNL     1      -2.032   5.786 -33.134  1.00  0.00     0.013 C 
HETATM   28  C   UNL     1      -1.252   6.484 -34.257  1.00  0.00     0.015 C 
HETATM   29  C   UNL     1      -2.217   4.301 -33.456  1.00  0.00     0.015 C 
ENDBRANCH  26  27
ENDBRANCH  19  20
ENDBRANCH  18  19
ENDBRANCH   1  18
TORSDOF 6
ENDMDL
MODEL 4
REMARK VINA RESULT:      -8.4      1.210      2.839
REMARK  6 active torsions:
REMARK  status: ('A' for Active; 'I' for Inactive)
REMARK    1  A    between atoms: C_4  and  O_5 
REMARK    2  A    between atoms: O_5  and  C_6 
REMARK    3  A    between atoms: C_6  and  C_7 
REMARK       I    between atoms: C_7  and  N_8 
REMARK    4  A    between atoms: N_8  and  N_9 
REMARK    5  A    between atoms: C_10  and  C_11 
REMARK    6  A    between atoms: C_23  and  C_24 
ROOT
HETATM    1  C   UNL     1      -5.135   1.647 -30.602  1.00  0.00     0.261 C 
HETATM    2  N   UNL     1      -3.889   1.591 -31.219  1.00  0.00    -0.246 N 
HETATM    3  O   UNL     1      -5.697   2.664 -30.198  1.00  0.00    -0.269 OA
HETATM    4  H   UNL     1      -3.667   0.743 -31.737  1.00  0.00     0.192 HD
ENDROOT
BRANCH   2   5
HETATM    5  N   UNL     1      -3.046   2.650 -31.481  1.00  0.00    -0.184 NA
HETATM    6  C   UNL     1      -3.172   3.293 -32.596  1.00  0.00     0.152 C 
BRANCH   6   7
HETATM    7  C   UNL     1      -2.299   4.410 -32.907  1.00  0.00     0.011 A 
HETATM    8  C   UNL     1      -1.398   5.152 -32.074  1.00  0.00     0.005 A 
HETATM    9  C   UNL     1      -0.813   6.143 -32.869  1.00  0.00     0.043 A 
HETATM   10  C   UNL     1      -1.032   5.091 -30.712  1.00  0.00     0.033 A 
HETATM   11  C   UNL     1       0.116   7.068 -32.378  1.00  0.00     0.031 A 
HETATM   12  N   UNL     1      -1.326   6.002 -34.136  1.00  0.00    -0.364 N 
HETATM   13  C   UNL     1       0.458   6.988 -31.026  1.00  0.00     0.021 A 
HETATM   14  C   UNL     1      -0.109   6.013 -30.208  1.00  0.00     0.012 A 
HETATM   15 BR   UNL     1       0.373   5.942 -28.380  1.00  0.00    -0.051 Br
HETATM   16  H   UNL     1      -1.075   6.585 -34.924  1.00  0.00     0.165 HD
HETATM   17  C   UNL     1      -2.227   4.975 -34.169  1.00  0.00     0.102 A 
ENDBRANCH   6   7
ENDBRANCH   2   5
BRANCH   1  18
HETATM   18  C   UNL     1      -5.730   0.266 -30.348  1.00  0.00     0.280 C 
BRANCH  18  19
HETATM   19  O   UNL     1      -6.941   0.068 -31.071  1.00  0.00    -0.341 OA
BRANCH  19  20
HETATM   20  C   UNL     1      -6.740  -0.431 -32.339  1.00  0.00     0.076 A 
HETATM   21  C   UNL     1      -5.636  -1.239 -32.650  1.00  0.00     0.044 A 
HETATM   22  C   UNL     1      -5.461  -1.755 -33.938  1.00  0.00    -0.059 A 
HETATM   23  C   UNL     1      -4.310  -2.664 -34.253  1.00  0.00     0.048 C 
HETATM   24  C   UNL     1      -6.409  -1.457 -34.917  1.00  0.00     0.007 A 
HETATM   25  C   UNL     1      -7.493  -0.627 -34.623  1.00  0.00     0.011 A 
HETATM   26  C   UNL     1      -7.668  -0.082 -33.338  1.00  0.00    -0.021 A 
BRANCH  26  27
HETATM   27  C   UNL     1      -8.869   0.802 -33.028  1.00  0.00     0.013 C 
HETATM   28  C   UNL     1      -9.169   1.827 -34.130  1.00  0.00     0.015 C 
HETATM   29  C   UNL     1     -10.104  -0.059 -32.749  1.00  0.00     0.015 C 
ENDBRANCH  26  27
ENDBRANCH  19  20
ENDBRANCH  18  19
ENDBRANCH   1  18
TORSDOF 6
ENDMDL
MODEL 5
REMARK VINA RESULT:      -8.2      5.732      9.106
REMARK  6 active torsions:
REMARK  status: ('A' for Active; 'I' for Inactive)
REMARK    1  A    between atoms: C_4  and  O_5 
REMARK    2  A    between atoms: O_5  and  C_6 
REMARK    3  A    between atoms: C_6  and  C_7 
REMARK       I    between atoms: C_7  and  N_8 
REMARK    4  A    between atoms: N_8  and  N_9 
REMARK    5  A    between atoms: C_10  and  C_11 
REMARK    6  A    between atoms: C_23  and  C_24 
ROOT
HETATM    1  C   UNL     1     -12.697   1.246 -34.621  1.00  0.00     0.261 C 
HETATM    2  N   UNL     1     -11.788   0.902 -33.625  1.00  0.00    -0.246 N 
HETATM    3  O   UNL     1     -12.416   1.673 -35.740  1.00  0.00    -0.269 OA
HETATM    4  H   UNL     1     -12.134   0.319 -32.864  1.00  0.00     0.192 HD
ENDROOT
BRANCH   2   5
HETATM    5  N   UNL     1     -10.414   0.987 -33.692  1.00  0.00    -0.184 NA
HETATM    6  C   UNL     1      -9.699   0.147 -33.015  1.00  0.00     0.152 C 
BRANCH   6   7
HETATM    7  C   UNL     1      -8.249   0.209 -33.058  1.00  0.00     0.011 A 
HETATM    8  C   UNL     1      -7.287  -0.740 -33.538  1.00  0.00     0.005 A 
HETATM    9  C   UNL     1      -6.018  -0.192 -33.327  1.00  0.00     0.043 A 
HETATM   10  C   UNL     1      -7.368  -2.024 -34.120  1.00  0.00     0.033 A 
HETATM   11  C   UNL     1      -4.832  -0.854 -33.666  1.00  0.00     0.031 A 
HETATM   12  N   UNL     1      -6.199   1.044 -32.753  1.00  0.00    -0.364 N 
HETATM   13  C   UNL     1      -4.940  -2.124 -34.236  1.00  0.00     0.021 A 
HETATM   14  C   UNL     1      -6.190  -2.697 -34.459  1.00  0.00     0.012 A 
HETATM   15 BR   UNL     1      -6.295  -4.424 -35.225  1.00  0.00    -0.051 Br
HETATM   16  H   UNL     1      -5.450   1.672 -32.494  1.00  0.00     0.165 HD
HETATM   17  C   UNL     1      -7.532   1.291 -32.575  1.00  0.00     0.102 A 
ENDBRANCH   6   7
ENDBRANCH   2   5
BRANCH   1  18
HETATM   18  C   UNL     1     -14.146   1.157 -34.154  1.00  0.00     0.280 C 
BRANCH  18  19
HETATM   19  O   UNL     1     -14.269   1.386 -32.754  1.00  0.00    -0.341 OA
BRANCH  19  20
HETATM   20  C   UNL     1     -15.112   2.430 -32.447  1.00  0.00     0.076 A 
HETATM   21  C   UNL     1     -16.499   2.343 -32.641  1.00  0.00     0.044 A 
HETATM   22  C   UNL     1     -17.342   3.407 -32.302  1.00  0.00    -0.059 A 
HETATM   23  C   UNL     1     -18.829   3.290 -32.457  1.00  0.00     0.048 C 
HETATM   24  C   UNL     1     -16.781   4.564 -31.761  1.00  0.00     0.007 A 
HETATM   25  C   UNL     1     -15.398   4.670 -31.595  1.00  0.00     0.011 A 
HETATM   26  C   UNL     1     -14.537   3.617 -31.954  1.00  0.00    -0.021 A 
BRANCH  26  27
HETATM   27  C   UNL     1     -13.034   3.740 -31.745  1.00  0.00     0.013 C 
HETATM   28  C   UNL     1     -12.334   4.565 -32.834  1.00  0.00     0.015 C 
HETATM   29  C   UNL     1     -12.736   4.322 -30.361  1.00  0.00     0.015 C 
ENDBRANCH  26  27
ENDBRANCH  19  20
ENDBRANCH  18  19
ENDBRANCH   1  18
TORSDOF 6
ENDMDL
MODEL 6
REMARK VINA RESULT:      -8.0      3.120      8.328
REMARK  6 active torsions:
REMARK  status: ('A' for Active; 'I' for Inactive)
REMARK    1  A    between atoms: C_4  and  O_5 
REMARK    2  A    between atoms: O_5  and  C_6 
REMARK    3  A    between atoms: C_6  and  C_7 
REMARK       I    between atoms: C_7  and  N_8 
REMARK    4  A    between atoms: N_8  and  N_9 
REMARK    5  A    between atoms: C_10  and  C_11 
REMARK    6  A    between atoms: C_23  and  C_24 
ROOT
HETATM    1  C   UNL     1      -5.090   5.267 -30.484  1.00  0.00     0.261 C 
HETATM    2  N   UNL     1      -4.736   3.923 -30.540  1.00  0.00    -0.246 N 
HETATM    3  O   UNL     1      -6.032   5.792 -31.076  1.00  0.00    -0.269 OA
HETATM    4  H   UNL     1      -4.119   3.575 -29.807  1.00  0.00     0.192 HD
ENDROOT
BRANCH   2   5
HETATM    5  N   UNL     1      -5.354   2.933 -31.274  1.00  0.00    -0.184 NA
HETATM    6  C   UNL     1      -5.016   2.765 -32.512  1.00  0.00     0.152 C 
BRANCH   6   7
HETATM    7  C   UNL     1      -5.649   1.736 -33.316  1.00  0.00     0.011 A 
HETATM    8  C   UNL     1      -5.396   0.327 -33.399  1.00  0.00     0.005 A 
HETATM    9  C   UNL     1      -6.277  -0.201 -34.349  1.00  0.00     0.043 A 
HETATM   10  C   UNL     1      -4.489  -0.555 -32.772  1.00  0.00     0.033 A 
HETATM   11  C   UNL     1      -6.302  -1.557 -34.699  1.00  0.00     0.031 A 
HETATM   12  N   UNL     1      -7.044   0.840 -34.815  1.00  0.00    -0.364 N 
HETATM   13  C   UNL     1      -5.392  -2.406 -34.066  1.00  0.00     0.021 A 
HETATM   14  C   UNL     1      -4.501  -1.910 -33.117  1.00  0.00     0.012 A 
HETATM   15 BR   UNL     1      -3.277  -3.091 -32.287  1.00  0.00    -0.051 Br
HETATM   16  H   UNL     1      -7.773   0.749 -35.510  1.00  0.00     0.165 HD
HETATM   17  C   UNL     1      -6.668   2.009 -34.213  1.00  0.00     0.102 A 
ENDBRANCH   6   7
ENDBRANCH   2   5
BRANCH   1  18
HETATM   18  C   UNL     1      -4.101   6.104 -29.680  1.00  0.00     0.280 C 
BRANCH  18  19
HETATM   19  O   UNL     1      -3.513   7.134 -30.467  1.00  0.00    -0.341 OA
BRANCH  19  20
HETATM   20  C   UNL     1      -2.136   7.119 -30.438  1.00  0.00     0.076 A 
HETATM   21  C   UNL     1      -1.414   7.570 -29.323  1.00  0.00     0.044 A 
HETATM   22  C   UNL     1      -0.016   7.524 -29.303  1.00  0.00    -0.059 A 
HETATM   23  C   UNL     1       0.751   7.955 -28.088  1.00  0.00     0.048 C 
HETATM   24  C   UNL     1       0.657   7.016 -30.415  1.00  0.00     0.007 A 
HETATM   25  C   UNL     1      -0.054   6.595 -31.541  1.00  0.00     0.011 A 
HETATM   26  C   UNL     1      -1.459   6.657 -31.583  1.00  0.00    -0.021 A 
BRANCH  26  27
HETATM   27  C   UNL     1      -2.219   6.172 -32.810  1.00  0.00     0.013 C 
HETATM   28  C   UNL     1      -1.826   6.907 -34.099  1.00  0.00     0.015 C 
HETATM   29  C   UNL     1      -2.042   4.662 -32.982  1.00  0.00     0.015 C 
ENDBRANCH  26  27
ENDBRANCH  19  20
ENDBRANCH  18  19
ENDBRANCH   1  18
TORSDOF 6
ENDMDL
MODEL 7
REMARK VINA RESULT:      -7.9      3.713      9.079
REMARK  6 active torsions:
REMARK  status: ('A' for Active; 'I' for Inactive)
REMARK    1  A    between atoms: C_4  and  O_5 
REMARK    2  A    between atoms: O_5  and  C_6 
REMARK    3  A    between atoms: C_6  and  C_7 
REMARK       I    between atoms: C_7  and  N_8 
REMARK    4  A    between atoms: N_8  and  N_9 
REMARK    5  A    between atoms: C_10  and  C_11 
REMARK    6  A    between atoms: C_23  and  C_24 
ROOT
HETATM    1  C   UNL     1      -1.881   4.668 -31.791  1.00  0.00     0.261 C 
HETATM    2  N   UNL     1      -3.007   3.988 -31.337  1.00  0.00    -0.246 N 
HETATM    3  O   UNL     1      -1.575   4.856 -32.968  1.00  0.00    -0.269 OA
HETATM    4  H   UNL     1      -3.277   4.136 -30.366  1.00  0.00     0.192 HD
ENDROOT
BRANCH   2   5
HETATM    5  N   UNL     1      -3.979   3.387 -32.109  1.00  0.00    -0.184 NA
HETATM    6  C   UNL     1      -4.036   2.095 -32.153  1.00  0.00     0.152 C 
BRANCH   6   7
HETATM    7  C   UNL     1      -5.043   1.429 -32.959  1.00  0.00     0.011 A 
HETATM    8  C   UNL     1      -5.147   0.062 -33.380  1.00  0.00     0.005 A 
HETATM    9  C   UNL     1      -6.303  -0.048 -34.161  1.00  0.00     0.043 A 
HETATM   10  C   UNL     1      -4.363  -1.097 -33.188  1.00  0.00     0.033 A 
HETATM   11  C   UNL     1      -6.715  -1.248 -34.753  1.00  0.00     0.031 A 
HETATM   12  N   UNL     1      -6.884   1.197 -34.204  1.00  0.00    -0.364 N 
HETATM   13  C   UNL     1      -5.919  -2.377 -34.551  1.00  0.00     0.021 A 
HETATM   14  C   UNL     1      -4.762  -2.300 -33.779  1.00  0.00     0.012 A 
HETATM   15 BR   UNL     1      -3.704  -3.850 -33.535  1.00  0.00    -0.051 Br
HETATM   16  H   UNL     1      -7.740   1.413 -34.696  1.00  0.00     0.165 HD
HETATM   17  C   UNL     1      -6.131   2.093 -33.497  1.00  0.00     0.102 A 
ENDBRANCH   6   7
ENDBRANCH   2   5
BRANCH   1  18
HETATM   18  C   UNL     1      -0.947   5.084 -30.660  1.00  0.00     0.280 C 
BRANCH  18  19
HETATM   19  O   UNL     1      -0.344   6.350 -30.905  1.00  0.00    -0.341 OA
BRANCH  19  20
HETATM   20  C   UNL     1      -1.041   7.399 -30.349  1.00  0.00     0.076 A 
HETATM   21  C   UNL     1      -2.223   7.890 -30.924  1.00  0.00     0.044 A 
HETATM   22  C   UNL     1      -2.930   8.942 -30.331  1.00  0.00    -0.059 A 
HETATM   23  C   UNL     1      -4.222   9.427 -30.917  1.00  0.00     0.048 C 
HETATM   24  C   UNL     1      -2.442   9.498 -29.149  1.00  0.00     0.007 A 
HETATM   25  C   UNL     1      -1.249   9.036 -28.588  1.00  0.00     0.011 A 
HETATM   26  C   UNL     1      -0.516   7.995 -29.186  1.00  0.00    -0.021 A 
BRANCH  26  27
HETATM   27  C   UNL     1       0.770   7.487 -28.549  1.00  0.00     0.013 C 
HETATM   28  C   UNL     1       1.607   8.599 -27.901  1.00  0.00     0.015 C 
HETATM   29  C   UNL     1       0.460   6.389 -27.529  1.00  0.00     0.015 C 
ENDBRANCH  26  27
ENDBRANCH  19  20
ENDBRANCH  18  19
ENDBRANCH   1  18
TORSDOF 6
ENDMDL
MODEL 8
REMARK VINA RESULT:      -7.9      3.757      8.854
REMARK  6 active torsions:
REMARK  status: ('A' for Active; 'I' for Inactive)
REMARK    1  A    between atoms: C_4  and  O_5 
REMARK    2  A    between atoms: O_5  and  C_6 
REMARK    3  A    between atoms: C_6  and  C_7 
REMARK       I    between atoms: C_7  and  N_8 
REMARK    4  A    between atoms: N_8  and  N_9 
REMARK    5  A    between atoms: C_10  and  C_11 
REMARK    6  A    between atoms: C_23  and  C_24 
ROOT
HETATM    1  C   UNL     1      -3.850   5.425 -31.427  1.00  0.00     0.261 C 
HETATM    2  N   UNL     1      -3.723   4.152 -30.878  1.00  0.00    -0.246 N 
HETATM    3  O   UNL     1      -3.933   5.690 -32.625  1.00  0.00    -0.269 OA
HETATM    4  H   UNL     1      -3.934   4.053 -29.886  1.00  0.00     0.192 HD
ENDROOT
BRANCH   2   5
HETATM    5  N   UNL     1      -3.651   2.958 -31.563  1.00  0.00    -0.184 NA
HETATM    6  C   UNL     1      -3.796   1.850 -30.910  1.00  0.00     0.152 C 
BRANCH   6   7
HETATM    7  C   UNL     1      -3.721   0.574 -31.597  1.00  0.00     0.011 A 
HETATM    8  C   UNL     1      -4.559   0.010 -32.615  1.00  0.00     0.005 A 
HETATM    9  C   UNL     1      -4.056  -1.260 -32.916  1.00  0.00     0.043 A 
HETATM   10  C   UNL     1      -5.711   0.448 -33.304  1.00  0.00     0.033 A 
HETATM   11  C   UNL     1      -4.638  -2.109 -33.865  1.00  0.00     0.031 A 
HETATM   12  N   UNL     1      -2.951  -1.457 -32.123  1.00  0.00    -0.364 N 
HETATM   13  C   UNL     1      -5.779  -1.653 -34.529  1.00  0.00     0.021 A 
HETATM   14  C   UNL     1      -6.305  -0.393 -34.251  1.00  0.00     0.012 A 
HETATM   15 BR   UNL     1      -7.857   0.187 -35.165  1.00  0.00    -0.051 Br
HETATM   16  H   UNL     1      -2.380  -2.292 -32.132  1.00  0.00     0.165 HD
HETATM   17  C   UNL     1      -2.747  -0.370 -31.319  1.00  0.00     0.102 A 
ENDBRANCH   6   7
ENDBRANCH   2   5
BRANCH   1  18
HETATM   18  C   UNL     1      -3.758   6.530 -30.381  1.00  0.00     0.280 C 
BRANCH  18  19
HETATM   19  O   UNL     1      -2.469   7.136 -30.359  1.00  0.00    -0.341 OA
BRANCH  19  20
HETATM   20  C   UNL     1      -1.813   6.968 -29.160  1.00  0.00     0.076 A 
HETATM   21  C   UNL     1      -2.347   7.441 -27.951  1.00  0.00     0.044 A 
HETATM   22  C   UNL     1      -1.677   7.240 -26.740  1.00  0.00    -0.059 A 
HETATM   23  C   UNL     1      -2.277   7.697 -25.443  1.00  0.00     0.048 C 
HETATM   24  C   UNL     1      -0.461   6.555 -26.749  1.00  0.00     0.007 A 
HETATM   25  C   UNL     1       0.091   6.109 -27.952  1.00  0.00     0.011 A 
HETATM   26  C   UNL     1      -0.560   6.325 -29.179  1.00  0.00    -0.021 A 
BRANCH  26  27
HETATM   27  C   UNL     1       0.045   5.813 -30.479  1.00  0.00     0.013 C 
HETATM   28  C   UNL     1       0.719   6.913 -31.311  1.00  0.00     0.015 C 
HETATM   29  C   UNL     1       1.033   4.679 -30.193  1.00  0.00     0.015 C 
ENDBRANCH  26  27
ENDBRANCH  19  20
ENDBRANCH  18  19
ENDBRANCH   1  18
TORSDOF 6
ENDMDL
MODEL 9
REMARK VINA RESULT:      -7.9      1.964      3.139
REMARK  6 active torsions:
REMARK  status: ('A' for Active; 'I' for Inactive)
REMARK    1  A    between atoms: C_4  and  O_5 
REMARK    2  A    between atoms: O_5  and  C_6 
REMARK    3  A    between atoms: C_6  and  C_7 
REMARK       I    between atoms: C_7  and  N_8 
REMARK    4  A    between atoms: N_8  and  N_9 
REMARK    5  A    between atoms: C_10  and  C_11 
REMARK    6  A    between atoms: C_23  and  C_24 
ROOT
HETATM    1  C   UNL     1      -7.219   2.268 -33.774  1.00  0.00     0.261 C 
HETATM    2  N   UNL     1      -6.031   2.890 -34.145  1.00  0.00    -0.246 N 
HETATM    3  O   UNL     1      -8.062   2.721 -33.001  1.00  0.00    -0.269 OA
HETATM    4  H   UNL     1      -5.566   2.538 -34.981  1.00  0.00     0.192 HD
ENDROOT
BRANCH   2   5
HETATM    5  N   UNL     1      -5.566   4.114 -33.713  1.00  0.00    -0.184 NA
HETATM    6  C   UNL     1      -4.775   4.159 -32.691  1.00  0.00     0.152 C 
BRANCH   6   7
HETATM    7  C   UNL     1      -4.270   5.430 -32.205  1.00  0.00     0.011 A 
HETATM    8  C   UNL     1      -2.974   5.793 -31.710  1.00  0.00     0.005 A 
HETATM    9  C   UNL     1      -3.026   7.144 -31.351  1.00  0.00     0.043 A 
HETATM   10  C   UNL     1      -1.759   5.100 -31.514  1.00  0.00     0.033 A 
HETATM   11  C   UNL     1      -1.934   7.836 -30.814  1.00  0.00     0.031 A 
HETATM   12  N   UNL     1      -4.297   7.589 -31.628  1.00  0.00    -0.364 N 
HETATM   13  C   UNL     1      -0.746   7.126 -30.626  1.00  0.00     0.021 A 
HETATM   14  C   UNL     1      -0.663   5.779 -30.972  1.00  0.00     0.012 A 
HETATM   15 BR   UNL     1       0.962   4.849 -30.696  1.00  0.00    -0.051 Br
HETATM   16  H   UNL     1      -4.619   8.535 -31.473  1.00  0.00     0.165 HD
HETATM   17  C   UNL     1      -5.056   6.568 -32.128  1.00  0.00     0.102 A 
ENDBRANCH   6   7
ENDBRANCH   2   5
BRANCH   1  18
HETATM   18  C   UNL     1      -7.348   0.857 -34.338  1.00  0.00     0.280 C 
BRANCH  18  19
HETATM   19  O   UNL     1      -7.289  -0.133 -33.316  1.00  0.00    -0.341 OA
BRANCH  19  20
HETATM   20  C   UNL     1      -6.453  -1.182 -33.626  1.00  0.00     0.076 A 
HETATM   21  C   UNL     1      -6.901  -2.295 -34.355  1.00  0.00     0.044 A 
HETATM   22  C   UNL     1      -6.030  -3.341 -34.680  1.00  0.00    -0.059 A 
HETATM   23  C   UNL     1      -6.497  -4.502 -35.506  1.00  0.00     0.048 C 
HETATM   24  C   UNL     1      -4.699  -3.261 -34.270  1.00  0.00     0.007 A 
HETATM   25  C   UNL     1      -4.254  -2.171 -33.518  1.00  0.00     0.011 A 
HETATM   26  C   UNL     1      -5.124  -1.124 -33.164  1.00  0.00    -0.021 A 
BRANCH  26  27
HETATM   27  C   UNL     1      -4.618   0.067 -32.363  1.00  0.00     0.013 C 
HETATM   28  C   UNL     1      -4.863  -0.066 -30.853  1.00  0.00     0.015 C 
HETATM   29  C   UNL     1      -3.131   0.302 -32.643  1.00  0.00     0.015 C 
ENDBRANCH  26  27
ENDBRANCH  19  20
ENDBRANCH  18  19
ENDBRANCH   1  18
TORSDOF 6
ENDMDL
MODEL 10
REMARK VINA RESULT:      -7.8      3.725      9.377
REMARK  6 active torsions:
REMARK  status: ('A' for Active; 'I' for Inactive)
REMARK    1  A    between atoms: C_4  and  O_5 
REMARK    2  A    between atoms: O_5  and  C_6 
REMARK    3  A    between atoms: C_6  and  C_7 
REMARK       I    between atoms: C_7  and  N_8 
REMARK    4  A    between atoms: N_8  and  N_9 
REMARK    5  A    between atoms: C_10  and  C_11 
REMARK    6  A    between atoms: C_23  and  C_24 
ROOT
HETATM    1  C   UNL     1      -1.773   4.634 -31.739  1.00  0.00     0.261 C 
HETATM    2  N   UNL     1      -2.792   3.835 -31.230  1.00  0.00    -0.246 N 
HETATM    3  O   UNL     1      -1.647   4.985 -32.911  1.00  0.00    -0.269 OA
HETATM    4  H   UNL     1      -2.929   3.845 -30.221  1.00  0.00     0.192 HD
ENDROOT
BRANCH   2   5
HETATM    5  N   UNL     1      -3.836   3.274 -31.935  1.00  0.00    -0.184 NA
HETATM    6  C   UNL     1      -3.811   2.006 -32.192  1.00  0.00     0.152 C 
BRANCH   6   7
HETATM    7  C   UNL     1      -4.890   1.383 -32.936  1.00  0.00     0.011 A 
HETATM    8  C   UNL     1      -5.065   0.026 -33.368  1.00  0.00     0.005 A 
HETATM    9  C   UNL     1      -6.273  -0.036 -34.070  1.00  0.00     0.043 A 
HETATM   10  C   UNL     1      -4.306  -1.158 -33.246  1.00  0.00     0.033 A 
HETATM   11  C   UNL     1      -6.761  -1.213 -34.650  1.00  0.00     0.031 A 
HETATM   12  N   UNL     1      -6.817   1.226 -34.056  1.00  0.00    -0.364 N 
HETATM   13  C   UNL     1      -5.989  -2.369 -34.518  1.00  0.00     0.021 A 
HETATM   14  C   UNL     1      -4.780  -2.339 -33.825  1.00  0.00     0.012 A 
HETATM   15 BR   UNL     1      -3.757  -3.924 -33.674  1.00  0.00    -0.051 Br
HETATM   16  H   UNL     1      -7.698   1.475 -34.486  1.00  0.00     0.165 HD
HETATM   17  C   UNL     1      -5.991   2.088 -33.391  1.00  0.00     0.102 A 
ENDBRANCH   6   7
ENDBRANCH   2   5
BRANCH   1  18
HETATM   18  C   UNL     1      -0.708   4.965 -30.699  1.00  0.00     0.280 C 
BRANCH  18  19
HETATM   19  O   UNL     1      -0.217   6.294 -30.845  1.00  0.00    -0.341 OA
BRANCH  19  20
HETATM   20  C   UNL     1      -0.287   7.028 -29.681  1.00  0.00     0.076 A 
HETATM   21  C   UNL     1       0.704   6.942 -28.691  1.00  0.00     0.044 A 
HETATM   22  C   UNL     1       0.628   7.713 -27.527  1.00  0.00    -0.059 A 
HETATM   23  C   UNL     1       1.716   7.661 -26.497  1.00  0.00     0.048 C 
HETATM   24  C   UNL     1      -0.454   8.578 -27.362  1.00  0.00     0.007 A 
HETATM   25  C   UNL     1      -1.460   8.645 -28.329  1.00  0.00     0.011 A 
HETATM   26  C   UNL     1      -1.408   7.858 -29.493  1.00  0.00    -0.021 A 
BRANCH  26  27
HETATM   27  C   UNL     1      -2.502   7.960 -30.548  1.00  0.00     0.013 C 
HETATM   28  C   UNL     1      -3.902   8.163 -29.953  1.00  0.00     0.015 C 
HETATM   29  C   UNL     1      -2.177   9.077 -31.543  1.00  0.00     0.015 C 
ENDBRANCH  26  27
ENDBRANCH  19  20
ENDBRANCH  18  19
ENDBRANCH   1  18
TORSDOF 6
ENDMDL
