MODEL 1
REMARK VINA RESULT:      -9.1      0.000      0.000
REMARK  9 active torsions:
REMARK  status: ('A' for Active; 'I' for Inactive)
REMARK    1  A    between atoms: C_2  and  O_3 
REMARK    2  A    between atoms: O_3  and  C_4 
REMARK    3  A    between atoms: C_7  and  N_8 
REMARK       I    between atoms: N_8  and  C_9 
REMARK    4  A    between atoms: C_9  and  C_10 
REMARK    5  A    between atoms: C_11  and  N_12 
REMARK       I    between atoms: N_12  and  C_13 
REMARK    6  A    between atoms: C_13  and  C_14 
REMARK    7  A    between atoms: C_14  and  N_15 
REMARK    8  A    between atoms: N_15  and  C_18 
REMARK    9  A    between atoms: C_18  and  C_19 
ROOT
HETATM    1  C   UNL     1      -6.236   0.637 -33.388  1.00  0.00     0.073 A 
HETATM    2  C   UNL     1      -5.202   0.977 -32.520  1.00  0.00     0.093 A 
HETATM    3  S   UNL     1      -3.999  -0.214 -32.436  1.00  0.00    -0.075 SA
HETATM    4  C   UNL     1      -4.876  -1.271 -33.428  1.00  0.00    -0.008 A 
HETATM    5  C   UNL     1      -6.075  -0.729 -33.854  1.00  0.00    -0.026 A 
HETATM    6  C   UNL     1      -7.035  -1.551 -34.674  1.00  0.00     0.041 C 
HETATM    7  C   UNL     1      -6.744  -3.056 -34.568  1.00  0.00     0.009 C 
HETATM    8  C   UNL     1      -5.246  -3.344 -34.791  1.00  0.00    -0.014 C 
HETATM    9  C   UNL     1      -4.982  -4.848 -34.820  1.00  0.00     0.010 C 
HETATM   10  C   UNL     1      -4.387  -2.663 -33.706  1.00  0.00     0.051 C 
ENDROOT
BRANCH   2  11
HETATM   11  N   UNL     1      -5.116   2.152 -31.782  1.00  0.00    -0.319 N 
HETATM   12  C   UNL     1      -5.674   2.393 -30.546  1.00  0.00     0.248 C 
HETATM   13  O   UNL     1      -6.297   1.622 -29.818  1.00  0.00    -0.271 OA
HETATM   14  H   UNL     1      -4.651   2.909 -32.291  1.00  0.00     0.169 HD
BRANCH  12  15
HETATM   15  C   UNL     1      -5.472   3.825 -30.044  1.00  0.00     0.335 C 
BRANCH  15  16
HETATM   16  N   UNL     1      -4.114   4.333 -30.460  1.00  0.00    -0.063 N 
HETATM   17  H   UNL     1      -3.468   4.413 -29.667  1.00  0.00     0.278 HD
HETATM   18  H   UNL     1      -3.719   3.613 -31.090  1.00  0.00     0.278 HD
BRANCH  16  19
HETATM   19  C   UNL     1      -4.126   5.601 -31.240  1.00  0.00     0.271 C 
BRANCH  19  20
HETATM   20  C   UNL     1      -3.399   5.432 -32.542  1.00  0.00    -0.033 A 
HETATM   21  C   UNL     1      -1.998   5.334 -32.562  1.00  0.00     0.009 A 
HETATM   22  C   UNL     1      -1.317   5.210 -33.773  1.00  0.00     0.001 A 
HETATM   23  C   UNL     1      -2.023   5.193 -34.973  1.00  0.00     0.000 A 
HETATM   24  C   UNL     1      -3.412   5.301 -34.966  1.00  0.00     0.001 A 
HETATM   25  C   UNL     1      -4.100   5.423 -33.758  1.00  0.00     0.009 A 
ENDBRANCH  19  20
ENDBRANCH  16  19
ENDBRANCH  15  16
ENDBRANCH  12  15
ENDBRANCH   2  11
BRANCH   1  26
HETATM   26  C   UNL     1      -7.335   1.580 -33.673  1.00  0.00     0.259 C 
HETATM   27  N   UNL     1      -8.582   1.091 -33.357  1.00  0.00    -0.323 N 
HETATM   28  H   UNL     1      -8.636   0.104 -33.148  1.00  0.00     0.169 HD
HETATM   29  O   UNL     1      -7.095   2.651 -34.227  1.00  0.00    -0.267 OA
BRANCH  27  30
HETATM   30  C   UNL     1      -9.811   1.776 -33.325  1.00  0.00     0.035 A 
HETATM   31  C   UNL     1     -10.126   2.778 -32.411  1.00  0.00     0.032 A 
HETATM   32  C   UNL     1     -11.403   3.356 -32.417  1.00  0.00     0.039 A 
HETATM   33  C   UNL     1     -12.378   2.939 -33.327  1.00  0.00     0.068 A 
HETATM   34  C   UNL     1     -12.058   1.952 -34.253  1.00  0.00     0.039 A 
HETATM   35  C   UNL     1     -10.783   1.373 -34.249  1.00  0.00     0.032 A 
BRANCH  33  36
HETATM   36  O   UNL     1     -13.588   3.564 -33.204  1.00  0.00    -0.352 OA
BRANCH  36  37
HETATM   37  C   UNL     1     -14.261   3.432 -31.951  1.00  0.00     0.171 C 
HETATM   38  C   UNL     1     -15.216   2.256 -32.047  1.00  0.00     0.034 C 
ENDBRANCH  36  37
ENDBRANCH  33  36
ENDBRANCH  27  30
ENDBRANCH   1  26
TORSDOF 9
ENDMDL
MODEL 2
REMARK VINA RESULT:      -9.1      2.645      7.611
REMARK  9 active torsions:
REMARK  status: ('A' for Active; 'I' for Inactive)
REMARK    1  A    between atoms: C_2  and  O_3 
REMARK    2  A    between atoms: O_3  and  C_4 
REMARK    3  A    between atoms: C_7  and  N_8 
REMARK       I    between atoms: N_8  and  C_9 
REMARK    4  A    between atoms: C_9  and  C_10 
REMARK    5  A    between atoms: C_11  and  N_12 
REMARK       I    between atoms: N_12  and  C_13 
REMARK    6  A    between atoms: C_13  and  C_14 
REMARK    7  A    between atoms: C_14  and  N_15 
REMARK    8  A    between atoms: N_15  and  C_18 
REMARK    9  A    between atoms: C_18  and  C_19 
ROOT
HETATM    1  C   UNL     1      -4.777   4.782 -31.929  1.00  0.00     0.073 A 
HETATM    2  C   UNL     1      -5.516   5.960 -32.003  1.00  0.00     0.093 A 
HETATM    3  S   UNL     1      -4.539   7.344 -32.059  1.00  0.00    -0.075 SA
HETATM    4  C   UNL     1      -3.123   6.440 -31.844  1.00  0.00    -0.008 A 
HETATM    5  C   UNL     1      -3.367   5.082 -31.751  1.00  0.00    -0.026 A 
HETATM    6  C   UNL     1      -2.241   4.121 -31.471  1.00  0.00     0.041 C 
HETATM    7  C   UNL     1      -1.009   4.830 -30.888  1.00  0.00     0.009 C 
HETATM    8  C   UNL     1      -0.644   6.075 -31.721  1.00  0.00    -0.014 C 
HETATM    9  C   UNL     1       0.657   6.699 -31.221  1.00  0.00     0.010 C 
HETATM   10  C   UNL     1      -1.788   7.110 -31.693  1.00  0.00     0.051 C 
ENDROOT
BRANCH   2  11
HETATM   11  N   UNL     1      -6.904   6.047 -32.031  1.00  0.00    -0.319 N 
HETATM   12  C   UNL     1      -7.731   5.707 -33.078  1.00  0.00     0.248 C 
HETATM   13  O   UNL     1      -7.436   5.205 -34.162  1.00  0.00    -0.271 OA
HETATM   14  H   UNL     1      -7.291   6.493 -31.196  1.00  0.00     0.169 HD
BRANCH  12  15
HETATM   15  C   UNL     1      -9.209   6.010 -32.824  1.00  0.00     0.335 C 
BRANCH  15  16
HETATM   16  N   UNL     1      -9.866   4.842 -32.130  1.00  0.00    -0.063 N 
HETATM   17  H   UNL     1      -9.207   4.317 -31.545  1.00  0.00     0.278 HD
HETATM   18  H   UNL     1     -10.571   5.248 -31.492  1.00  0.00     0.278 HD
BRANCH  16  19
HETATM   19  C   UNL     1     -10.607   3.913 -33.027  1.00  0.00     0.271 C 
BRANCH  19  20
HETATM   20  C   UNL     1     -10.229   2.488 -32.746  1.00  0.00    -0.033 A 
HETATM   21  C   UNL     1      -9.202   2.195 -31.834  1.00  0.00     0.009 A 
HETATM   22  C   UNL     1      -8.826   0.872 -31.596  1.00  0.00     0.001 A 
HETATM   23  C   UNL     1      -9.463  -0.166 -32.270  1.00  0.00     0.000 A 
HETATM   24  C   UNL     1     -10.476   0.112 -33.184  1.00  0.00     0.001 A 
HETATM   25  C   UNL     1     -10.858   1.433 -33.426  1.00  0.00     0.009 A 
ENDBRANCH  19  20
ENDBRANCH  16  19
ENDBRANCH  15  16
ENDBRANCH  12  15
ENDBRANCH   2  11
BRANCH   1  26
HETATM   26  C   UNL     1      -5.437   3.463 -31.965  1.00  0.00     0.259 C 
HETATM   27  N   UNL     1      -5.474   2.895 -33.218  1.00  0.00    -0.323 N 
HETATM   28  H   UNL     1      -5.225   3.497 -33.989  1.00  0.00     0.169 HD
HETATM   29  O   UNL     1      -5.965   3.014 -30.949  1.00  0.00    -0.267 OA
BRANCH  27  30
HETATM   30  C   UNL     1      -5.854   1.588 -33.578  1.00  0.00     0.035 A 
HETATM   31  C   UNL     1      -5.324   0.433 -33.010  1.00  0.00     0.032 A 
HETATM   32  C   UNL     1      -5.718  -0.826 -33.483  1.00  0.00     0.039 A 
HETATM   33  C   UNL     1      -6.638  -0.947 -34.528  1.00  0.00     0.068 A 
HETATM   34  C   UNL     1      -7.183   0.207 -35.083  1.00  0.00     0.039 A 
HETATM   35  C   UNL     1      -6.790   1.465 -34.613  1.00  0.00     0.032 A 
BRANCH  33  36
HETATM   36  O   UNL     1      -6.913  -2.230 -34.911  1.00  0.00    -0.352 OA
BRANCH  36  37
HETATM   37  C   UNL     1      -5.811  -3.138 -34.971  1.00  0.00     0.171 C 
HETATM   38  C   UNL     1      -6.362  -4.545 -35.108  1.00  0.00     0.034 C 
ENDBRANCH  36  37
ENDBRANCH  33  36
ENDBRANCH  27  30
ENDBRANCH   1  26
TORSDOF 9
ENDMDL
MODEL 3
REMARK VINA RESULT:      -9.0      3.410      8.385
REMARK  9 active torsions:
REMARK  status: ('A' for Active; 'I' for Inactive)
REMARK    1  A    between atoms: C_2  and  O_3 
REMARK    2  A    between atoms: O_3  and  C_4 
REMARK    3  A    between atoms: C_7  and  N_8 
REMARK       I    between atoms: N_8  and  C_9 
REMARK    4  A    between atoms: C_9  and  C_10 
REMARK    5  A    between atoms: C_11  and  N_12 
REMARK       I    between atoms: N_12  and  C_13 
REMARK    6  A    between atoms: C_13  and  C_14 
REMARK    7  A    between atoms: C_14  and  N_15 
REMARK    8  A    between atoms: N_15  and  C_18 
REMARK    9  A    between atoms: C_18  and  C_19 
ROOT
HETATM    1  C   UNL     1      -2.605   5.360 -31.176  1.00  0.00     0.073 A 
HETATM    2  C   UNL     1      -3.716   6.200 -31.147  1.00  0.00     0.093 A 
HETATM    3  S   UNL     1      -3.388   7.694 -30.416  1.00  0.00    -0.075 SA
HETATM    4  C   UNL     1      -1.818   7.222 -29.991  1.00  0.00    -0.008 A 
HETATM    5  C   UNL     1      -1.513   5.941 -30.415  1.00  0.00    -0.026 A 
HETATM    6  C   UNL     1      -0.194   5.311 -30.055  1.00  0.00     0.041 C 
HETATM    7  C   UNL     1       0.486   6.027 -28.877  1.00  0.00     0.009 C 
HETATM    8  C   UNL     1       0.502   7.553 -29.094  1.00  0.00    -0.014 C 
HETATM    9  C   UNL     1       1.294   8.250 -27.990  1.00  0.00     0.010 C 
HETATM   10  C   UNL     1      -0.934   8.113 -29.167  1.00  0.00     0.051 C 
ENDROOT
BRANCH   2  11
HETATM   11  N   UNL     1      -4.976   5.896 -31.649  1.00  0.00    -0.319 N 
HETATM   12  C   UNL     1      -5.338   5.810 -32.975  1.00  0.00     0.248 C 
HETATM   13  O   UNL     1      -4.630   5.914 -33.976  1.00  0.00    -0.271 OA
HETATM   14  H   UNL     1      -5.689   5.822 -30.918  1.00  0.00     0.169 HD
BRANCH  12  15
HETATM   15  C   UNL     1      -6.830   5.549 -33.194  1.00  0.00     0.335 C 
BRANCH  15  16
HETATM   16  N   UNL     1      -7.353   4.611 -32.134  1.00  0.00    -0.063 N 
HETATM   17  H   UNL     1      -6.752   3.790 -32.010  1.00  0.00     0.278 HD
HETATM   18  H   UNL     1      -7.320   5.139 -31.244  1.00  0.00     0.278 HD
BRANCH  16  19
HETATM   19  C   UNL     1      -8.770   4.188 -32.310  1.00  0.00     0.271 C 
BRANCH  19  20
HETATM   20  C   UNL     1      -8.852   2.723 -32.625  1.00  0.00    -0.033 A 
HETATM   21  C   UNL     1      -8.852   1.775 -31.588  1.00  0.00     0.009 A 
HETATM   22  C   UNL     1      -8.896   0.412 -31.880  1.00  0.00     0.001 A 
HETATM   23  C   UNL     1      -8.930  -0.018 -33.204  1.00  0.00     0.000 A 
HETATM   24  C   UNL     1      -8.920   0.912 -34.240  1.00  0.00     0.001 A 
HETATM   25  C   UNL     1      -8.878   2.278 -33.956  1.00  0.00     0.009 A 
ENDBRANCH  19  20
ENDBRANCH  16  19
ENDBRANCH  15  16
ENDBRANCH  12  15
ENDBRANCH   2  11
BRANCH   1  26
HETATM   26  C   UNL     1      -2.657   4.050 -31.852  1.00  0.00     0.259 C 
HETATM   27  N   UNL     1      -3.396   3.105 -31.176  1.00  0.00    -0.323 N 
HETATM   28  H   UNL     1      -3.659   3.338 -30.229  1.00  0.00     0.169 HD
HETATM   29  O   UNL     1      -2.003   3.862 -32.876  1.00  0.00    -0.267 OA
BRANCH  27  30
HETATM   30  C   UNL     1      -3.803   1.831 -31.615  1.00  0.00     0.035 A 
HETATM   31  C   UNL     1      -3.193   0.639 -31.234  1.00  0.00     0.032 A 
HETATM   32  C   UNL     1      -3.630  -0.577 -31.778  1.00  0.00     0.039 A 
HETATM   33  C   UNL     1      -4.672  -0.617 -32.708  1.00  0.00     0.068 A 
HETATM   34  C   UNL     1      -5.295   0.572 -33.074  1.00  0.00     0.039 A 
HETATM   35  C   UNL     1      -4.860   1.788 -32.533  1.00  0.00     0.032 A 
BRANCH  33  36
HETATM   36  O   UNL     1      -4.978  -1.863 -33.180  1.00  0.00    -0.352 OA
BRANCH  36  37
HETATM   37  C   UNL     1      -5.526  -1.939 -34.498  1.00  0.00     0.171 C 
HETATM   38  C   UNL     1      -6.786  -2.783 -34.439  1.00  0.00     0.034 C 
ENDBRANCH  36  37
ENDBRANCH  33  36
ENDBRANCH  27  30
ENDBRANCH   1  26
TORSDOF 9
ENDMDL
MODEL 4
REMARK VINA RESULT:      -8.6      1.793      3.397
REMARK  9 active torsions:
REMARK  status: ('A' for Active; 'I' for Inactive)
REMARK    1  A    between atoms: C_2  and  O_3 
REMARK    2  A    between atoms: O_3  and  C_4 
REMARK    3  A    between atoms: C_7  and  N_8 
REMARK       I    between atoms: N_8  and  C_9 
REMARK    4  A    between atoms: C_9  and  C_10 
REMARK    5  A    between atoms: C_11  and  N_12 
REMARK       I    between atoms: N_12  and  C_13 
REMARK    6  A    between atoms: C_13  and  C_14 
REMARK    7  A    between atoms: C_14  and  N_15 
REMARK    8  A    between atoms: N_15  and  C_18 
REMARK    9  A    between atoms: C_18  and  C_19 
ROOT
HETATM    1  C   UNL     1      -6.011   0.655 -33.509  1.00  0.00     0.073 A 
HETATM    2  C   UNL     1      -4.994   0.958 -32.607  1.00  0.00     0.093 A 
HETATM    3  S   UNL     1      -3.865  -0.297 -32.447  1.00  0.00    -0.075 SA
HETATM    4  C   UNL     1      -4.762  -1.327 -33.448  1.00  0.00    -0.008 A 
HETATM    5  C   UNL     1      -5.911  -0.729 -33.936  1.00  0.00    -0.026 A 
HETATM    6  C   UNL     1      -6.883  -1.515 -34.775  1.00  0.00     0.041 C 
HETATM    7  C   UNL     1      -6.684  -3.031 -34.623  1.00  0.00     0.009 C 
HETATM    8  C   UNL     1      -5.198  -3.410 -34.778  1.00  0.00    -0.014 C 
HETATM    9  C   UNL     1      -5.020  -4.926 -34.761  1.00  0.00     0.010 C 
HETATM   10  C   UNL     1      -4.344  -2.751 -33.674  1.00  0.00     0.051 C 
ENDROOT
BRANCH   2  11
HETATM   11  N   UNL     1      -4.869   2.145 -31.893  1.00  0.00    -0.319 N 
HETATM   12  C   UNL     1      -3.917   3.122 -32.077  1.00  0.00     0.248 C 
HETATM   13  O   UNL     1      -3.035   3.190 -32.932  1.00  0.00    -0.271 OA
HETATM   14  H   UNL     1      -5.523   2.207 -31.109  1.00  0.00     0.169 HD
BRANCH  12  15
HETATM   15  C   UNL     1      -3.998   4.264 -31.061  1.00  0.00     0.335 C 
BRANCH  15  16
HETATM   16  N   UNL     1      -5.101   3.997 -30.067  1.00  0.00    -0.063 N 
HETATM   17  H   UNL     1      -5.600   3.123 -30.266  1.00  0.00     0.278 HD
HETATM   18  H   UNL     1      -4.637   3.870 -29.151  1.00  0.00     0.278 HD
BRANCH  16  19
HETATM   19  C   UNL     1      -6.072   5.111 -29.887  1.00  0.00     0.271 C 
BRANCH  19  20
HETATM   20  C   UNL     1      -7.475   4.641 -30.139  1.00  0.00    -0.033 A 
HETATM   21  C   UNL     1      -8.532   5.564 -30.186  1.00  0.00     0.009 A 
HETATM   22  C   UNL     1      -9.842   5.126 -30.387  1.00  0.00     0.001 A 
HETATM   23  C   UNL     1     -10.109   3.767 -30.533  1.00  0.00     0.000 A 
HETATM   24  C   UNL     1      -9.069   2.842 -30.478  1.00  0.00     0.001 A 
HETATM   25  C   UNL     1      -7.757   3.273 -30.279  1.00  0.00     0.009 A 
ENDBRANCH  19  20
ENDBRANCH  16  19
ENDBRANCH  15  16
ENDBRANCH  12  15
ENDBRANCH   2  11
BRANCH   1  26
HETATM   26  C   UNL     1      -7.041   1.652 -33.860  1.00  0.00     0.259 C 
HETATM   27  N   UNL     1      -8.328   1.169 -33.786  1.00  0.00    -0.323 N 
HETATM   28  H   UNL     1      -8.425   0.169 -33.687  1.00  0.00     0.169 HD
HETATM   29  O   UNL     1      -6.706   2.765 -34.260  1.00  0.00    -0.267 OA
BRANCH  27  30
HETATM   30  C   UNL     1      -9.538   1.882 -33.870  1.00  0.00     0.035 A 
HETATM   31  C   UNL     1      -9.634   3.227 -34.218  1.00  0.00     0.032 A 
HETATM   32  C   UNL     1     -10.881   3.866 -34.209  1.00  0.00     0.039 A 
HETATM   33  C   UNL     1     -12.042   3.176 -33.851  1.00  0.00     0.068 A 
HETATM   34  C   UNL     1     -11.950   1.827 -33.523  1.00  0.00     0.039 A 
HETATM   35  C   UNL     1     -10.706   1.186 -33.530  1.00  0.00     0.032 A 
BRANCH  33  36
HETATM   36  O   UNL     1     -13.185   3.926 -33.856  1.00  0.00    -0.352 OA
BRANCH  36  37
HETATM   37  C   UNL     1     -13.993   3.883 -32.678  1.00  0.00     0.171 C 
HETATM   38  C   UNL     1     -13.475   4.930 -31.709  1.00  0.00     0.034 C 
ENDBRANCH  36  37
ENDBRANCH  33  36
ENDBRANCH  27  30
ENDBRANCH   1  26
TORSDOF 9
ENDMDL
MODEL 5
REMARK VINA RESULT:      -8.6      2.299      6.523
REMARK  9 active torsions:
REMARK  status: ('A' for Active; 'I' for Inactive)
REMARK    1  A    between atoms: C_2  and  O_3 
REMARK    2  A    between atoms: O_3  and  C_4 
REMARK    3  A    between atoms: C_7  and  N_8 
REMARK       I    between atoms: N_8  and  C_9 
REMARK    4  A    between atoms: C_9  and  C_10 
REMARK    5  A    between atoms: C_11  and  N_12 
REMARK       I    between atoms: N_12  and  C_13 
REMARK    6  A    between atoms: C_13  and  C_14 
REMARK    7  A    between atoms: C_14  and  N_15 
REMARK    8  A    between atoms: N_15  and  C_18 
REMARK    9  A    between atoms: C_18  and  C_19 
ROOT
HETATM    1  C   UNL     1      -9.428   2.615 -33.013  1.00  0.00     0.073 A 
HETATM    2  C   UNL     1      -9.440   3.853 -32.376  1.00  0.00     0.093 A 
HETATM    3  S   UNL     1     -10.999   4.340 -31.922  1.00  0.00    -0.075 SA
HETATM    4  C   UNL     1     -11.714   3.005 -32.680  1.00  0.00    -0.008 A 
HETATM    5  C   UNL     1     -10.785   2.162 -33.263  1.00  0.00    -0.026 A 
HETATM    6  C   UNL     1     -11.233   0.965 -34.059  1.00  0.00     0.041 C 
HETATM    7  C   UNL     1     -12.705   1.076 -34.488  1.00  0.00     0.009 C 
HETATM    8  C   UNL     1     -13.599   1.469 -33.297  1.00  0.00    -0.014 C 
HETATM    9  C   UNL     1     -15.074   1.447 -33.694  1.00  0.00     0.010 C 
HETATM   10  C   UNL     1     -13.206   2.856 -32.748  1.00  0.00     0.051 C 
ENDROOT
BRANCH   2  11
HETATM   11  N   UNL     1      -8.325   4.641 -32.113  1.00  0.00    -0.319 N 
HETATM   12  C   UNL     1      -7.616   4.703 -30.935  1.00  0.00     0.248 C 
HETATM   13  O   UNL     1      -7.769   4.043 -29.908  1.00  0.00    -0.271 OA
HETATM   14  H   UNL     1      -8.103   5.283 -32.879  1.00  0.00     0.169 HD
BRANCH  12  15
HETATM   15  C   UNL     1      -6.494   5.743 -30.940  1.00  0.00     0.335 C 
BRANCH  15  16
HETATM   16  N   UNL     1      -5.157   5.064 -30.779  1.00  0.00    -0.063 N 
HETATM   17  H   UNL     1      -4.378   5.732 -30.782  1.00  0.00     0.278 HD
HETATM   18  H   UNL     1      -5.168   4.628 -29.840  1.00  0.00     0.278 HD
BRANCH  16  19
HETATM   19  C   UNL     1      -4.889   3.961 -31.742  1.00  0.00     0.271 C 
BRANCH  19  20
HETATM   20  C   UNL     1      -4.003   4.432 -32.857  1.00  0.00    -0.033 A 
HETATM   21  C   UNL     1      -4.562   4.865 -34.071  1.00  0.00     0.009 A 
HETATM   22  C   UNL     1      -3.738   5.272 -35.121  1.00  0.00     0.001 A 
HETATM   23  C   UNL     1      -2.354   5.243 -34.974  1.00  0.00     0.000 A 
HETATM   24  C   UNL     1      -1.788   4.806 -33.779  1.00  0.00     0.001 A 
HETATM   25  C   UNL     1      -2.606   4.399 -32.724  1.00  0.00     0.009 A 
ENDBRANCH  19  20
ENDBRANCH  16  19
ENDBRANCH  15  16
ENDBRANCH  12  15
ENDBRANCH   2  11
BRANCH   1  26
HETATM   26  C   UNL     1      -8.159   1.970 -33.403  1.00  0.00     0.259 C 
HETATM   27  N   UNL     1      -7.982   0.718 -32.857  1.00  0.00    -0.323 N 
HETATM   28  H   UNL     1      -8.624   0.456 -32.123  1.00  0.00     0.169 HD
HETATM   29  O   UNL     1      -7.341   2.587 -34.082  1.00  0.00    -0.267 OA
BRANCH  27  30
HETATM   30  C   UNL     1      -6.995  -0.238 -33.158  1.00  0.00     0.035 A 
HETATM   31  C   UNL     1      -5.715  -0.244 -32.611  1.00  0.00     0.032 A 
HETATM   32  C   UNL     1      -4.779  -1.202 -33.024  1.00  0.00     0.039 A 
HETATM   33  C   UNL     1      -5.106  -2.158 -33.989  1.00  0.00     0.068 A 
HETATM   34  C   UNL     1      -6.391  -2.166 -34.523  1.00  0.00     0.039 A 
HETATM   35  C   UNL     1      -7.327  -1.210 -34.112  1.00  0.00     0.032 A 
BRANCH  33  36
HETATM   36  O   UNL     1      -4.092  -3.013 -34.322  1.00  0.00    -0.352 OA
BRANCH  36  37
HETATM   37  C   UNL     1      -3.567  -3.833 -33.277  1.00  0.00     0.171 C 
HETATM   38  C   UNL     1      -3.942  -5.274 -33.571  1.00  0.00     0.034 C 
ENDBRANCH  36  37
ENDBRANCH  33  36
ENDBRANCH  27  30
ENDBRANCH   1  26
TORSDOF 9
ENDMDL
MODEL 6
REMARK VINA RESULT:      -8.4      2.318      7.502
REMARK  9 active torsions:
REMARK  status: ('A' for Active; 'I' for Inactive)
REMARK    1  A    between atoms: C_2  and  O_3 
REMARK    2  A    between atoms: O_3  and  C_4 
REMARK    3  A    between atoms: C_7  and  N_8 
REMARK       I    between atoms: N_8  and  C_9 
REMARK    4  A    between atoms: C_9  and  C_10 
REMARK    5  A    between atoms: C_11  and  N_12 
REMARK       I    between atoms: N_12  and  C_13 
REMARK    6  A    between atoms: C_13  and  C_14 
REMARK    7  A    between atoms: C_14  and  N_15 
REMARK    8  A    between atoms: N_15  and  C_18 
REMARK    9  A    between atoms: C_18  and  C_19 
ROOT
HETATM    1  C   UNL     1      -5.761   0.683 -32.859  1.00  0.00     0.073 A 
HETATM    2  C   UNL     1      -7.024   1.218 -33.100  1.00  0.00     0.093 A 
HETATM    3  S   UNL     1      -8.090   0.095 -33.789  1.00  0.00    -0.075 SA
HETATM    4  C   UNL     1      -6.879  -1.081 -33.921  1.00  0.00    -0.008 A 
HETATM    5  C   UNL     1      -5.661  -0.651 -33.426  1.00  0.00    -0.026 A 
HETATM    6  C   UNL     1      -4.440  -1.525 -33.534  1.00  0.00     0.041 C 
HETATM    7  C   UNL     1      -4.613  -2.631 -34.587  1.00  0.00     0.009 C 
HETATM    8  C   UNL     1      -5.955  -3.365 -34.400  1.00  0.00    -0.014 C 
HETATM    9  C   UNL     1      -6.065  -4.548 -35.359  1.00  0.00     0.010 C 
HETATM   10  C   UNL     1      -7.143  -2.398 -34.592  1.00  0.00     0.051 C 
ENDROOT
BRANCH   2  11
HETATM   11  N   UNL     1      -7.419   2.522 -32.823  1.00  0.00    -0.319 N 
HETATM   12  C   UNL     1      -7.979   2.984 -31.653  1.00  0.00     0.248 C 
HETATM   13  O   UNL     1      -8.183   2.376 -30.603  1.00  0.00    -0.271 OA
HETATM   14  H   UNL     1      -7.343   3.142 -33.634  1.00  0.00     0.169 HD
BRANCH  12  15
HETATM   15  C   UNL     1      -8.388   4.457 -31.701  1.00  0.00     0.335 C 
BRANCH  15  16
HETATM   16  N   UNL     1      -9.856   4.577 -32.030  1.00  0.00    -0.063 N 
HETATM   17  H   UNL     1     -10.399   3.779 -31.680  1.00  0.00     0.278 HD
HETATM   18  H   UNL     1     -10.196   5.411 -31.522  1.00  0.00     0.278 HD
BRANCH  16  19
HETATM   19  C   UNL     1     -10.163   4.815 -33.467  1.00  0.00     0.271 C 
BRANCH  19  20
HETATM   20  C   UNL     1     -11.006   3.705 -34.022  1.00  0.00    -0.033 A 
HETATM   21  C   UNL     1     -11.130   2.493 -33.323  1.00  0.00     0.009 A 
HETATM   22  C   UNL     1     -11.886   1.447 -33.853  1.00  0.00     0.001 A 
HETATM   23  C   UNL     1     -12.517   1.596 -35.086  1.00  0.00     0.000 A 
HETATM   24  C   UNL     1     -12.394   2.790 -35.793  1.00  0.00     0.001 A 
HETATM   25  C   UNL     1     -11.639   3.841 -35.268  1.00  0.00     0.009 A 
ENDBRANCH  19  20
ENDBRANCH  16  19
ENDBRANCH  15  16
ENDBRANCH  12  15
ENDBRANCH   2  11
BRANCH   1  26
HETATM   26  C   UNL     1      -4.716   1.471 -32.178  1.00  0.00     0.259 C 
HETATM   27  N   UNL     1      -4.367   2.624 -32.844  1.00  0.00    -0.323 N 
HETATM   28  H   UNL     1      -4.711   2.716 -33.789  1.00  0.00     0.169 HD
HETATM   29  O   UNL     1      -4.184   1.033 -31.159  1.00  0.00    -0.267 OA
BRANCH  27  30
HETATM   30  C   UNL     1      -3.557   3.684 -32.397  1.00  0.00     0.035 A 
HETATM   31  C   UNL     1      -3.862   4.504 -31.314  1.00  0.00     0.032 A 
HETATM   32  C   UNL     1      -3.023   5.577 -30.988  1.00  0.00     0.039 A 
HETATM   33  C   UNL     1      -1.876   5.848 -31.738  1.00  0.00     0.068 A 
HETATM   34  C   UNL     1      -1.558   5.018 -32.808  1.00  0.00     0.039 A 
HETATM   35  C   UNL     1      -2.395   3.946 -33.137  1.00  0.00     0.032 A 
BRANCH  33  36
HETATM   36  O   UNL     1      -1.163   6.941 -31.330  1.00  0.00    -0.352 OA
BRANCH  36  37
HETATM   37  C   UNL     1       0.194   6.720 -30.939  1.00  0.00     0.171 C 
HETATM   38  C   UNL     1       0.414   7.383 -29.592  1.00  0.00     0.034 C 
ENDBRANCH  36  37
ENDBRANCH  33  36
ENDBRANCH  27  30
ENDBRANCH   1  26
TORSDOF 9
ENDMDL
MODEL 7
REMARK VINA RESULT:      -8.4      2.556      7.928
REMARK  9 active torsions:
REMARK  status: ('A' for Active; 'I' for Inactive)
REMARK    1  A    between atoms: C_2  and  O_3 
REMARK    2  A    between atoms: O_3  and  C_4 
REMARK    3  A    between atoms: C_7  and  N_8 
REMARK       I    between atoms: N_8  and  C_9 
REMARK    4  A    between atoms: C_9  and  C_10 
REMARK    5  A    between atoms: C_11  and  N_12 
REMARK       I    between atoms: N_12  and  C_13 
REMARK    6  A    between atoms: C_13  and  C_14 
REMARK    7  A    between atoms: C_14  and  N_15 
REMARK    8  A    between atoms: N_15  and  C_18 
REMARK    9  A    between atoms: C_18  and  C_19 
ROOT
HETATM    1  C   UNL     1      -4.451   4.662 -31.747  1.00  0.00     0.073 A 
HETATM    2  C   UNL     1      -5.444   5.198 -30.930  1.00  0.00     0.093 A 
HETATM    3  S   UNL     1      -4.861   6.416 -29.906  1.00  0.00    -0.075 SA
HETATM    4  C   UNL     1      -3.262   6.172 -30.407  1.00  0.00    -0.008 A 
HETATM    5  C   UNL     1      -3.150   5.186 -31.370  1.00  0.00    -0.026 A 
HETATM    6  C   UNL     1      -1.797   4.764 -31.879  1.00  0.00     0.041 C 
HETATM    7  C   UNL     1      -0.665   5.193 -30.932  1.00  0.00     0.009 C 
HETATM    8  C   UNL     1      -0.807   6.676 -30.539  1.00  0.00    -0.014 C 
HETATM    9  C   UNL     1       0.390   7.135 -29.708  1.00  0.00     0.010 C 
HETATM   10  C   UNL     1      -2.124   6.919 -29.772  1.00  0.00     0.051 C 
ENDROOT
BRANCH   2  11
HETATM   11  N   UNL     1      -6.780   4.814 -30.918  1.00  0.00    -0.319 N 
HETATM   12  C   UNL     1      -7.298   3.647 -30.405  1.00  0.00     0.248 C 
HETATM   13  O   UNL     1      -6.719   2.744 -29.803  1.00  0.00    -0.271 OA
HETATM   14  H   UNL     1      -7.385   5.463 -31.429  1.00  0.00     0.169 HD
BRANCH  12  15
HETATM   15  C   UNL     1      -8.803   3.485 -30.632  1.00  0.00     0.335 C 
BRANCH  15  16
HETATM   16  N   UNL     1      -9.086   3.275 -32.100  1.00  0.00    -0.063 N 
HETATM   17  H   UNL     1      -9.630   4.045 -32.504  1.00  0.00     0.278 HD
HETATM   18  H   UNL     1      -8.165   3.284 -32.572  1.00  0.00     0.278 HD
BRANCH  16  19
HETATM   19  C   UNL     1      -9.712   1.968 -32.441  1.00  0.00     0.271 C 
BRANCH  19  20
HETATM   20  C   UNL     1     -10.695   2.127 -33.564  1.00  0.00    -0.033 A 
HETATM   21  C   UNL     1     -10.646   3.260 -34.393  1.00  0.00     0.009 A 
HETATM   22  C   UNL     1     -11.580   3.425 -35.416  1.00  0.00     0.001 A 
HETATM   23  C   UNL     1     -12.574   2.471 -35.616  1.00  0.00     0.000 A 
HETATM   24  C   UNL     1     -12.639   1.348 -34.793  1.00  0.00     0.001 A 
HETATM   25  C   UNL     1     -11.707   1.176 -33.769  1.00  0.00     0.009 A 
ENDBRANCH  19  20
ENDBRANCH  16  19
ENDBRANCH  15  16
ENDBRANCH  12  15
ENDBRANCH   2  11
BRANCH   1  26
HETATM   26  C   UNL     1      -4.772   3.655 -32.776  1.00  0.00     0.259 C 
HETATM   27  N   UNL     1      -4.813   2.365 -32.297  1.00  0.00    -0.323 N 
HETATM   28  H   UNL     1      -4.447   2.223 -31.366  1.00  0.00     0.169 HD
HETATM   29  O   UNL     1      -4.891   3.995 -33.952  1.00  0.00    -0.267 OA
BRANCH  27  30
HETATM   30  C   UNL     1      -5.262   1.201 -32.947  1.00  0.00     0.035 A 
HETATM   31  C   UNL     1      -6.429   1.124 -33.702  1.00  0.00     0.032 A 
HETATM   32  C   UNL     1      -6.827  -0.100 -34.256  1.00  0.00     0.039 A 
HETATM   33  C   UNL     1      -6.071  -1.258 -34.062  1.00  0.00     0.068 A 
HETATM   34  C   UNL     1      -4.893  -1.179 -33.324  1.00  0.00     0.039 A 
HETATM   35  C   UNL     1      -4.494   0.042 -32.769  1.00  0.00     0.032 A 
BRANCH  33  36
HETATM   36  O   UNL     1      -6.587  -2.388 -34.632  1.00  0.00    -0.352 OA
BRANCH  36  37
HETATM   37  C   UNL     1      -5.654  -3.380 -35.065  1.00  0.00     0.171 C 
HETATM   38  C   UNL     1      -6.429  -4.628 -35.443  1.00  0.00     0.034 C 
ENDBRANCH  36  37
ENDBRANCH  33  36
ENDBRANCH  27  30
ENDBRANCH   1  26
TORSDOF 9
ENDMDL
MODEL 8
REMARK VINA RESULT:      -8.1      2.510      3.418
REMARK  9 active torsions:
REMARK  status: ('A' for Active; 'I' for Inactive)
REMARK    1  A    between atoms: C_2  and  O_3 
REMARK    2  A    between atoms: O_3  and  C_4 
REMARK    3  A    between atoms: C_7  and  N_8 
REMARK       I    between atoms: N_8  and  C_9 
REMARK    4  A    between atoms: C_9  and  C_10 
REMARK    5  A    between atoms: C_11  and  N_12 
REMARK       I    between atoms: N_12  and  C_13 
REMARK    6  A    between atoms: C_13  and  C_14 
REMARK    7  A    between atoms: C_14  and  N_15 
REMARK    8  A    between atoms: N_15  and  C_18 
REMARK    9  A    between atoms: C_18  and  C_19 
ROOT
HETATM    1  C   UNL     1      -5.798   0.986 -33.190  1.00  0.00     0.073 A 
HETATM    2  C   UNL     1      -4.531   1.144 -32.636  1.00  0.00     0.093 A 
HETATM    3  S   UNL     1      -3.523  -0.190 -32.914  1.00  0.00    -0.075 SA
HETATM    4  C   UNL     1      -4.771  -1.070 -33.646  1.00  0.00    -0.008 A 
HETATM    5  C   UNL     1      -5.956  -0.360 -33.712  1.00  0.00    -0.026 A 
HETATM    6  C   UNL     1      -7.205  -1.007 -34.252  1.00  0.00     0.041 C 
HETATM    7  C   UNL     1      -7.102  -2.540 -34.263  1.00  0.00     0.009 C 
HETATM    8  C   UNL     1      -5.775  -2.999 -34.898  1.00  0.00    -0.014 C 
HETATM    9  C   UNL     1      -5.734  -4.520 -35.031  1.00  0.00     0.010 C 
HETATM   10  C   UNL     1      -4.569  -2.494 -34.078  1.00  0.00     0.051 C 
ENDROOT
BRANCH   2  11
HETATM   11  N   UNL     1      -4.089   2.254 -31.924  1.00  0.00    -0.319 N 
HETATM   12  C   UNL     1      -3.273   3.261 -32.389  1.00  0.00     0.248 C 
HETATM   13  O   UNL     1      -2.824   3.429 -33.522  1.00  0.00    -0.271 OA
HETATM   14  H   UNL     1      -4.357   2.227 -30.937  1.00  0.00     0.169 HD
BRANCH  12  15
HETATM   15  C   UNL     1      -2.895   4.293 -31.325  1.00  0.00     0.335 C 
BRANCH  15  16
HETATM   16  N   UNL     1      -2.091   5.409 -31.947  1.00  0.00    -0.063 N 
HETATM   17  H   UNL     1      -2.344   5.569 -32.928  1.00  0.00     0.278 HD
HETATM   18  H   UNL     1      -2.348   6.268 -31.431  1.00  0.00     0.278 HD
BRANCH  16  19
HETATM   19  C   UNL     1      -0.615   5.274 -31.813  1.00  0.00     0.271 C 
BRANCH  19  20
HETATM   20  C   UNL     1      -0.136   5.912 -30.542  1.00  0.00    -0.033 A 
HETATM   21  C   UNL     1       0.443   5.127 -29.530  1.00  0.00     0.009 A 
HETATM   22  C   UNL     1       0.859   5.713 -28.335  1.00  0.00     0.001 A 
HETATM   23  C   UNL     1       0.695   7.081 -28.133  1.00  0.00     0.000 A 
HETATM   24  C   UNL     1       0.113   7.867 -29.124  1.00  0.00     0.001 A 
HETATM   25  C   UNL     1      -0.304   7.288 -30.324  1.00  0.00     0.009 A 
ENDBRANCH  19  20
ENDBRANCH  16  19
ENDBRANCH  15  16
ENDBRANCH  12  15
ENDBRANCH   2  11
BRANCH   1  26
HETATM   26  C   UNL     1      -6.794   2.073 -33.140  1.00  0.00     0.259 C 
HETATM   27  N   UNL     1      -7.919   1.761 -32.411  1.00  0.00    -0.323 N 
HETATM   28  H   UNL     1      -8.030   0.791 -32.152  1.00  0.00     0.169 HD
HETATM   29  O   UNL     1      -6.612   3.102 -33.788  1.00  0.00    -0.267 OA
BRANCH  27  30
HETATM   30  C   UNL     1      -8.966   2.611 -32.006  1.00  0.00     0.035 A 
HETATM   31  C   UNL     1     -10.168   2.757 -32.693  1.00  0.00     0.032 A 
HETATM   32  C   UNL     1     -11.123   3.680 -32.247  1.00  0.00     0.039 A 
HETATM   33  C   UNL     1     -10.891   4.468 -31.117  1.00  0.00     0.068 A 
HETATM   34  C   UNL     1      -9.698   4.309 -30.418  1.00  0.00     0.039 A 
HETATM   35  C   UNL     1      -8.742   3.388 -30.862  1.00  0.00     0.032 A 
BRANCH  33  36
HETATM   36  O   UNL     1     -11.892   5.346 -30.809  1.00  0.00    -0.352 OA
BRANCH  36  37
HETATM   37  C   UNL     1     -12.509   6.033 -31.899  1.00  0.00     0.171 C 
HETATM   38  C   UNL     1     -12.344   7.525 -31.675  1.00  0.00     0.034 C 
ENDBRANCH  36  37
ENDBRANCH  33  36
ENDBRANCH  27  30
ENDBRANCH   1  26
TORSDOF 9
ENDMDL
MODEL 9
REMARK VINA RESULT:      -8.1      3.161      6.920
REMARK  9 active torsions:
REMARK  status: ('A' for Active; 'I' for Inactive)
REMARK    1  A    between atoms: C_2  and  O_3 
REMARK    2  A    between atoms: O_3  and  C_4 
REMARK    3  A    between atoms: C_7  and  N_8 
REMARK       I    between atoms: N_8  and  C_9 
REMARK    4  A    between atoms: C_9  and  C_10 
REMARK    5  A    between atoms: C_11  and  N_12 
REMARK       I    between atoms: N_12  and  C_13 
REMARK    6  A    between atoms: C_13  and  C_14 
REMARK    7  A    between atoms: C_14  and  N_15 
REMARK    8  A    between atoms: N_15  and  C_18 
REMARK    9  A    between atoms: C_18  and  C_19 
ROOT
HETATM    1  C   UNL     1      -5.572   0.881 -32.766  1.00  0.00     0.073 A 
HETATM    2  C   UNL     1      -6.873   1.376 -32.813  1.00  0.00     0.093 A 
HETATM    3  S   UNL     1      -7.995   0.218 -33.335  1.00  0.00    -0.075 SA
HETATM    4  C   UNL     1      -6.782  -0.920 -33.650  1.00  0.00    -0.008 A 
HETATM    5  C   UNL     1      -5.518  -0.450 -33.343  1.00  0.00    -0.026 A 
HETATM    6  C   UNL     1      -4.300  -1.287 -33.635  1.00  0.00     0.041 C 
HETATM    7  C   UNL     1      -4.595  -2.401 -34.651  1.00  0.00     0.009 C 
HETATM    8  C   UNL     1      -5.871  -3.176 -34.265  1.00  0.00    -0.014 C 
HETATM    9  C   UNL     1      -6.087  -4.365 -35.198  1.00  0.00     0.010 C 
HETATM   10  C   UNL     1      -7.103  -2.247 -34.275  1.00  0.00     0.051 C 
ENDROOT
BRANCH   2  11
HETATM   11  N   UNL     1      -7.262   2.668 -32.478  1.00  0.00    -0.319 N 
HETATM   12  C   UNL     1      -7.509   3.155 -31.214  1.00  0.00     0.248 C 
HETATM   13  O   UNL     1      -7.378   2.587 -30.130  1.00  0.00    -0.271 OA
HETATM   14  H   UNL     1      -7.452   3.252 -33.298  1.00  0.00     0.169 HD
BRANCH  12  15
HETATM   15  C   UNL     1      -8.013   4.599 -31.193  1.00  0.00     0.335 C 
BRANCH  15  16
HETATM   16  N   UNL     1      -8.779   4.863 -29.920  1.00  0.00    -0.063 N 
HETATM   17  H   UNL     1      -9.771   4.612 -30.005  1.00  0.00     0.278 HD
HETATM   18  H   UNL     1      -8.375   4.232 -29.207  1.00  0.00     0.278 HD
BRANCH  16  19
HETATM   19  C   UNL     1      -8.643   6.242 -29.376  1.00  0.00     0.271 C 
BRANCH  19  20
HETATM   20  C   UNL     1      -7.255   6.474 -28.856  1.00  0.00    -0.033 A 
HETATM   21  C   UNL     1      -6.504   7.570 -29.310  1.00  0.00     0.009 A 
HETATM   22  C   UNL     1      -5.201   7.770 -28.853  1.00  0.00     0.001 A 
HETATM   23  C   UNL     1      -4.633   6.876 -27.950  1.00  0.00     0.000 A 
HETATM   24  C   UNL     1      -5.364   5.779 -27.500  1.00  0.00     0.001 A 
HETATM   25  C   UNL     1      -6.669   5.574 -27.952  1.00  0.00     0.009 A 
ENDBRANCH  19  20
ENDBRANCH  16  19
ENDBRANCH  15  16
ENDBRANCH  12  15
ENDBRANCH   2  11
BRANCH   1  26
HETATM   26  C   UNL     1      -4.461   1.704 -32.249  1.00  0.00     0.259 C 
HETATM   27  N   UNL     1      -4.250   2.862 -32.962  1.00  0.00    -0.323 N 
HETATM   28  H   UNL     1      -4.733   2.938 -33.845  1.00  0.00     0.169 HD
HETATM   29  O   UNL     1      -3.772   1.288 -31.320  1.00  0.00    -0.267 OA
BRANCH  27  30
HETATM   30  C   UNL     1      -3.414   3.948 -32.643  1.00  0.00     0.035 A 
HETATM   31  C   UNL     1      -2.252   4.275 -33.337  1.00  0.00     0.032 A 
HETATM   32  C   UNL     1      -1.449   5.337 -32.901  1.00  0.00     0.039 A 
HETATM   33  C   UNL     1      -1.791   6.080 -31.768  1.00  0.00     0.068 A 
HETATM   34  C   UNL     1      -2.962   5.768 -31.084  1.00  0.00     0.039 A 
HETATM   35  C   UNL     1      -3.765   4.707 -31.518  1.00  0.00     0.032 A 
BRANCH  33  36
HETATM   36  O   UNL     1      -0.906   7.068 -31.436  1.00  0.00    -0.352 OA
BRANCH  36  37
HETATM   37  C   UNL     1       0.336   6.659 -30.860  1.00  0.00     0.171 C 
HETATM   38  C   UNL     1       0.363   7.120 -29.414  1.00  0.00     0.034 C 
ENDBRANCH  36  37
ENDBRANCH  33  36
ENDBRANCH  27  30
ENDBRANCH   1  26
TORSDOF 9
ENDMDL
MODEL 10
REMARK VINA RESULT:      -8.1      2.173      7.941
REMARK  9 active torsions:
REMARK  status: ('A' for Active; 'I' for Inactive)
REMARK    1  A    between atoms: C_2  and  O_3 
REMARK    2  A    between atoms: O_3  and  C_4 
REMARK    3  A    between atoms: C_7  and  N_8 
REMARK       I    between atoms: N_8  and  C_9 
REMARK    4  A    between atoms: C_9  and  C_10 
REMARK    5  A    between atoms: C_11  and  N_12 
REMARK       I    between atoms: N_12  and  C_13 
REMARK    6  A    between atoms: C_13  and  C_14 
REMARK    7  A    between atoms: C_14  and  N_15 
REMARK    8  A    between atoms: N_15  and  C_18 
REMARK    9  A    between atoms: C_18  and  C_19 
ROOT
HETATM    1  C   UNL     1      -6.117   0.685 -32.799  1.00  0.00     0.073 A 
HETATM    2  C   UNL     1      -7.418   1.098 -33.077  1.00  0.00     0.093 A 
HETATM    3  S   UNL     1      -8.354  -0.123 -33.788  1.00  0.00    -0.075 SA
HETATM    4  C   UNL     1      -7.035  -1.181 -33.880  1.00  0.00    -0.008 A 
HETATM    5  C   UNL     1      -5.877  -0.636 -33.354  1.00  0.00    -0.026 A 
HETATM    6  C   UNL     1      -4.577  -1.392 -33.423  1.00  0.00     0.041 C 
HETATM    7  C   UNL     1      -4.616  -2.513 -34.473  1.00  0.00     0.009 C 
HETATM    8  C   UNL     1      -5.889  -3.370 -34.318  1.00  0.00    -0.014 C 
HETATM    9  C   UNL     1      -5.861  -4.562 -35.272  1.00  0.00     0.010 C 
HETATM   10  C   UNL     1      -7.156  -2.519 -34.549  1.00  0.00     0.051 C 
ENDROOT
BRANCH   2  11
HETATM   11  N   UNL     1      -7.941   2.360 -32.820  1.00  0.00    -0.319 N 
HETATM   12  C   UNL     1      -8.818   2.700 -31.814  1.00  0.00     0.248 C 
HETATM   13  O   UNL     1      -9.265   1.996 -30.910  1.00  0.00    -0.271 OA
HETATM   14  H   UNL     1      -7.682   3.050 -33.530  1.00  0.00     0.169 HD
BRANCH  12  15
HETATM   15  C   UNL     1      -9.277   4.159 -31.860  1.00  0.00     0.335 C 
BRANCH  15  16
HETATM   16  N   UNL     1     -10.779   4.234 -31.735  1.00  0.00    -0.063 N 
HETATM   17  H   UNL     1     -11.149   3.542 -31.075  1.00  0.00     0.278 HD
HETATM   18  H   UNL     1     -10.986   5.165 -31.334  1.00  0.00     0.278 HD
BRANCH  16  19
HETATM   19  C   UNL     1     -11.523   4.165 -33.023  1.00  0.00     0.271 C 
BRANCH  19  20
HETATM   20  C   UNL     1     -12.710   3.255 -32.903  1.00  0.00    -0.033 A 
HETATM   21  C   UNL     1     -12.826   2.130 -33.736  1.00  0.00     0.009 A 
HETATM   22  C   UNL     1     -13.944   1.301 -33.649  1.00  0.00     0.001 A 
HETATM   23  C   UNL     1     -14.959   1.590 -32.740  1.00  0.00     0.000 A 
HETATM   24  C   UNL     1     -14.860   2.708 -31.916  1.00  0.00     0.001 A 
HETATM   25  C   UNL     1     -13.743   3.541 -31.997  1.00  0.00     0.009 A 
ENDBRANCH  19  20
ENDBRANCH  16  19
ENDBRANCH  15  16
ENDBRANCH  12  15
ENDBRANCH   2  11
BRANCH   1  26
HETATM   26  C   UNL     1      -5.170   1.570 -32.094  1.00  0.00     0.259 C 
HETATM   27  N   UNL     1      -4.722   2.623 -32.859  1.00  0.00    -0.323 N 
HETATM   28  H   UNL     1      -4.930   2.579 -33.846  1.00  0.00     0.169 HD
HETATM   29  O   UNL     1      -4.790   1.283 -30.961  1.00  0.00    -0.267 OA
BRANCH  27  30
HETATM   30  C   UNL     1      -3.971   3.743 -32.455  1.00  0.00     0.035 A 
HETATM   31  C   UNL     1      -4.504   4.852 -31.804  1.00  0.00     0.032 A 
HETATM   32  C   UNL     1      -3.686   5.949 -31.502  1.00  0.00     0.039 A 
HETATM   33  C   UNL     1      -2.333   5.955 -31.848  1.00  0.00     0.068 A 
HETATM   34  C   UNL     1      -1.794   4.839 -32.481  1.00  0.00     0.039 A 
HETATM   35  C   UNL     1      -2.609   3.743 -32.785  1.00  0.00     0.032 A 
BRANCH  33  36
HETATM   36  O   UNL     1      -1.658   7.098 -31.521  1.00  0.00    -0.352 OA
BRANCH  36  37
HETATM   37  C   UNL     1      -1.032   7.135 -30.237  1.00  0.00     0.171 C 
HETATM   38  C   UNL     1       0.460   6.932 -30.430  1.00  0.00     0.034 C 
ENDBRANCH  36  37
ENDBRANCH  33  36
ENDBRANCH  27  30
ENDBRANCH   1  26
TORSDOF 9
ENDMDL
