MODEL 1
REMARK VINA RESULT:      -9.5      0.000      0.000
REMARK  6 active torsions:
REMARK  status: ('A' for Active; 'I' for Inactive)
REMARK    1  A    between atoms: C_4  and  C_5 
REMARK    2  A    between atoms: C_5  and  C_6 
REMARK    3  A    between atoms: C_8  and  C_9 
REMARK    4  A    between atoms: C_9  and  C_10 
REMARK       I    between atoms: C_10  and  N_11 
REMARK    5  A    between atoms: N_11  and  N_12 
REMARK       I    between atoms: N_12  and  C_13 
REMARK       I    between atoms: C_13  and  N_14 
REMARK    6  A    between atoms: N_14  and  C_15 
ROOT
HETATM    1  C   UNL     1      -4.512   4.391 -31.697  1.00  0.00     0.238 C 
HETATM    2  N   UNL     1      -5.496   3.462 -31.960  1.00  0.00    -0.266 N 
HETATM    3  O   UNL     1      -3.402   4.084 -31.269  1.00  0.00    -0.272 OA
HETATM    4  H   UNL     1      -6.458   3.700 -32.206  1.00  0.00     0.190 HD
ENDROOT
BRANCH   1   5
HETATM    5  C   UNL     1      -4.944   5.803 -31.999  1.00  0.00     0.139 C 
BRANCH   5   6
HETATM    6  C   UNL     1      -3.990   6.501 -32.965  1.00  0.00     0.185 C 
HETATM    7  N   UNL     1      -2.677   6.669 -32.346  1.00  0.00    -0.363 N 
HETATM    8  C   UNL     1      -1.543   6.566 -33.118  1.00  0.00     0.125 C 
HETATM    9  H   UNL     1      -2.659   7.390 -31.625  1.00  0.00     0.161 HD
HETATM   10  N   UNL     1      -1.502   6.032 -34.304  1.00  0.00    -0.159 NA
HETATM   11  N   UNL     1      -2.667   5.561 -34.826  1.00  0.00    -0.244 N 
HETATM   12  C   UNL     1      -3.911   5.683 -34.256  1.00  0.00     0.261 C 
HETATM   13  H   UNL     1      -2.599   5.061 -35.706  1.00  0.00     0.192 HD
HETATM   14  O   UNL     1      -4.904   5.196 -34.798  1.00  0.00    -0.269 OA
BRANCH   8  15
HETATM   15  C   UNL     1      -0.238   7.114 -32.549  1.00  0.00     0.118 C 
BRANCH  15  16
HETATM   16  C   UNL     1       0.070   6.599 -31.162  1.00  0.00    -0.051 A 
HETATM   17  C   UNL     1       0.466   5.267 -30.973  1.00  0.00     0.007 A 
HETATM   18  C   UNL     1       0.798   4.800 -29.699  1.00  0.00     0.001 A 
HETATM   19  C   UNL     1       0.741   5.657 -28.602  1.00  0.00     0.000 A 
HETATM   20  C   UNL     1       0.356   6.985 -28.779  1.00  0.00     0.001 A 
HETATM   21  C   UNL     1       0.030   7.455 -30.052  1.00  0.00     0.007 A 
ENDBRANCH  15  16
ENDBRANCH   8  15
ENDBRANCH   5   6
ENDBRANCH   1   5
BRANCH   2  22
HETATM   22  N   UNL     1      -5.234   2.107 -31.709  1.00  0.00    -0.249 N 
HETATM   23  C   UNL     1      -5.499   1.221 -32.744  1.00  0.00     0.339 C 
HETATM   24  N   UNL     1      -5.268  -0.083 -32.366  1.00  0.00    -0.308 N 
HETATM   25  O   UNL     1      -5.852   1.621 -33.848  1.00  0.00    -0.245 OA
HETATM   26  H   UNL     1      -4.839  -0.201 -31.459  1.00  0.00     0.170 HD
HETATM   27  H   UNL     1      -5.380   1.820 -30.744  1.00  0.00     0.192 HD
BRANCH  24  28
HETATM   28  C   UNL     1      -5.428  -1.245 -33.149  1.00  0.00     0.038 A 
HETATM   29  C   UNL     1      -4.434  -2.211 -33.325  1.00  0.00     0.055 A 
HETATM   30  C   UNL     1      -4.674  -3.344 -34.114  1.00  0.00     0.058 A 
HETATM   31 CL   UNL     1      -3.394  -4.496 -34.278  1.00  0.00    -0.082 Cl
HETATM   32  C   UNL     1      -5.913  -3.516 -34.736  1.00  0.00     0.055 A 
HETATM   33 CL   UNL     1      -6.282  -4.888 -35.719  1.00  0.00    -0.083 Cl
HETATM   34  C   UNL     1      -6.907  -2.549 -34.570  1.00  0.00     0.028 A 
HETATM   35  C   UNL     1      -6.664  -1.421 -33.782  1.00  0.00     0.031 A 
ENDBRANCH  24  28
ENDBRANCH   2  22
TORSDOF 6
ENDMDL
MODEL 2
REMARK VINA RESULT:      -9.1      1.951      2.743
REMARK  6 active torsions:
REMARK  status: ('A' for Active; 'I' for Inactive)
REMARK    1  A    between atoms: C_4  and  C_5 
REMARK    2  A    between atoms: C_5  and  C_6 
REMARK    3  A    between atoms: C_8  and  C_9 
REMARK    4  A    between atoms: C_9  and  C_10 
REMARK       I    between atoms: C_10  and  N_11 
REMARK    5  A    between atoms: N_11  and  N_12 
REMARK       I    between atoms: N_12  and  C_13 
REMARK       I    between atoms: C_13  and  N_14 
REMARK    6  A    between atoms: N_14  and  C_15 
ROOT
HETATM    1  C   UNL     1      -3.028   4.291 -31.554  1.00  0.00     0.238 C 
HETATM    2  N   UNL     1      -3.928   3.334 -31.137  1.00  0.00    -0.266 N 
HETATM    3  O   UNL     1      -1.928   4.013 -32.026  1.00  0.00    -0.272 OA
HETATM    4  H   UNL     1      -4.796   3.541 -30.640  1.00  0.00     0.190 HD
ENDROOT
BRANCH   1   5
HETATM    5  C   UNL     1      -3.544   5.697 -31.378  1.00  0.00     0.139 C 
BRANCH   5   6
HETATM    6  C   UNL     1      -2.434   6.672 -30.993  1.00  0.00     0.185 C 
HETATM    7  N   UNL     1      -1.572   6.079 -29.972  1.00  0.00    -0.363 N 
HETATM    8  C   UNL     1      -0.223   6.349 -29.981  1.00  0.00     0.125 C 
HETATM    9  H   UNL     1      -2.009   6.032 -29.052  1.00  0.00     0.161 HD
HETATM   10  N   UNL     1       0.425   6.845 -30.995  1.00  0.00    -0.159 NA
HETATM   11  N   UNL     1      -0.286   7.138 -32.118  1.00  0.00    -0.244 N 
HETATM   12  C   UNL     1      -1.651   7.048 -32.252  1.00  0.00     0.261 C 
HETATM   13  H   UNL     1       0.249   7.429 -32.928  1.00  0.00     0.192 HD
HETATM   14  O   UNL     1      -2.198   7.311 -33.324  1.00  0.00    -0.269 OA
BRANCH   8  15
HETATM   15  C   UNL     1       0.575   6.046 -28.717  1.00  0.00     0.118 C 
BRANCH  15  16
HETATM   16  C   UNL     1       0.561   7.179 -27.718  1.00  0.00    -0.051 A 
HETATM   17  C   UNL     1       1.466   8.243 -27.839  1.00  0.00     0.007 A 
HETATM   18  C   UNL     1       1.425   9.316 -26.946  1.00  0.00     0.001 A 
HETATM   19  C   UNL     1       0.477   9.340 -25.924  1.00  0.00     0.000 A 
HETATM   20  C   UNL     1      -0.434   8.293 -25.799  1.00  0.00     0.001 A 
HETATM   21  C   UNL     1      -0.397   7.223 -26.694  1.00  0.00     0.007 A 
ENDBRANCH  15  16
ENDBRANCH   8  15
ENDBRANCH   5   6
ENDBRANCH   1   5
BRANCH   2  22
HETATM   22  N   UNL     1      -3.571   1.981 -31.230  1.00  0.00    -0.249 N 
HETATM   23  C   UNL     1      -4.265   1.218 -32.157  1.00  0.00     0.339 C 
HETATM   24  N   UNL     1      -3.879  -0.103 -32.117  1.00  0.00    -0.308 N 
HETATM   25  O   UNL     1      -5.080   1.729 -32.919  1.00  0.00    -0.245 OA
HETATM   26  H   UNL     1      -3.087  -0.305 -31.523  1.00  0.00     0.170 HD
HETATM   27  H   UNL     1      -3.265   1.563 -30.354  1.00  0.00     0.192 HD
BRANCH  24  28
HETATM   28  C   UNL     1      -4.364  -1.165 -32.909  1.00  0.00     0.038 A 
HETATM   29  C   UNL     1      -3.719  -2.396 -33.044  1.00  0.00     0.055 A 
HETATM   30  C   UNL     1      -4.271  -3.406 -33.846  1.00  0.00     0.058 A 
HETATM   31 CL   UNL     1      -3.413  -4.904 -33.958  1.00  0.00    -0.082 Cl
HETATM   32  C   UNL     1      -5.474  -3.185 -34.521  1.00  0.00     0.055 A 
HETATM   33 CL   UNL     1      -6.214  -4.382 -35.523  1.00  0.00    -0.083 Cl
HETATM   34  C   UNL     1      -6.118  -1.953 -34.395  1.00  0.00     0.028 A 
HETATM   35  C   UNL     1      -5.565  -0.950 -33.595  1.00  0.00     0.031 A 
ENDBRANCH  24  28
ENDBRANCH   2  22
TORSDOF 6
ENDMDL
MODEL 3
REMARK VINA RESULT:      -9.1      1.928      2.474
REMARK  6 active torsions:
REMARK  status: ('A' for Active; 'I' for Inactive)
REMARK    1  A    between atoms: C_4  and  C_5 
REMARK    2  A    between atoms: C_5  and  C_6 
REMARK    3  A    between atoms: C_8  and  C_9 
REMARK    4  A    between atoms: C_9  and  C_10 
REMARK       I    between atoms: C_10  and  N_11 
REMARK    5  A    between atoms: N_11  and  N_12 
REMARK       I    between atoms: N_12  and  C_13 
REMARK       I    between atoms: C_13  and  N_14 
REMARK    6  A    between atoms: N_14  and  C_15 
ROOT
HETATM    1  C   UNL     1      -4.320   4.527 -31.246  1.00  0.00     0.238 C 
HETATM    2  N   UNL     1      -4.234   3.229 -30.793  1.00  0.00    -0.266 N 
HETATM    3  O   UNL     1      -3.968   4.866 -32.374  1.00  0.00    -0.272 OA
HETATM    4  H   UNL     1      -4.413   2.945 -29.828  1.00  0.00     0.190 HD
ENDROOT
BRANCH   1   5
HETATM    5  C   UNL     1      -4.896   5.469 -30.219  1.00  0.00     0.139 C 
BRANCH   5   6
HETATM    6  C   UNL     1      -3.937   6.609 -29.884  1.00  0.00     0.185 C 
HETATM    7  N   UNL     1      -2.554   6.140 -29.944  1.00  0.00    -0.363 N 
HETATM    8  C   UNL     1      -1.568   6.986 -30.398  1.00  0.00     0.125 C 
HETATM    9  H   UNL     1      -2.296   5.539 -29.162  1.00  0.00     0.161 HD
HETATM   10  N   UNL     1      -1.784   8.078 -31.072  1.00  0.00    -0.159 NA
HETATM   11  N   UNL     1      -3.077   8.419 -31.326  1.00  0.00    -0.244 N 
HETATM   12  C   UNL     1      -4.189   7.765 -30.854  1.00  0.00     0.261 C 
HETATM   13  H   UNL     1      -3.222   9.217 -31.935  1.00  0.00     0.192 HD
HETATM   14  O   UNL     1      -5.321   8.139 -31.166  1.00  0.00    -0.269 OA
BRANCH   8  15
HETATM   15  C   UNL     1      -0.118   6.622 -30.095  1.00  0.00     0.118 C 
BRANCH  15  16
HETATM   16  C   UNL     1       0.353   7.122 -28.750  1.00  0.00    -0.051 A 
HETATM   17  C   UNL     1       0.003   6.437 -27.577  1.00  0.00     0.007 A 
HETATM   18  C   UNL     1       0.476   6.868 -26.336  1.00  0.00     0.001 A 
HETATM   19  C   UNL     1       1.305   7.985 -26.251  1.00  0.00     0.000 A 
HETATM   20  C   UNL     1       1.667   8.669 -27.411  1.00  0.00     0.001 A 
HETATM   21  C   UNL     1       1.200   8.236 -28.652  1.00  0.00     0.007 A 
ENDBRANCH  15  16
ENDBRANCH   8  15
ENDBRANCH   5   6
ENDBRANCH   1   5
BRANCH   2  22
HETATM   22  N   UNL     1      -3.701   2.247 -31.642  1.00  0.00    -0.249 N 
HETATM   23  C   UNL     1      -4.565   1.240 -32.046  1.00  0.00     0.339 C 
HETATM   24  N   UNL     1      -3.921   0.301 -32.821  1.00  0.00    -0.308 N 
HETATM   25  O   UNL     1      -5.755   1.266 -31.749  1.00  0.00    -0.245 OA
HETATM   26  H   UNL     1      -2.972   0.530 -33.078  1.00  0.00     0.170 HD
HETATM   27  H   UNL     1      -2.718   2.041 -31.485  1.00  0.00     0.192 HD
BRANCH  24  28
HETATM   28  C   UNL     1      -4.476  -0.857 -33.405  1.00  0.00     0.038 A 
HETATM   29  C   UNL     1      -3.896  -2.126 -33.325  1.00  0.00     0.055 A 
HETATM   30  C   UNL     1      -4.513  -3.231 -33.928  1.00  0.00     0.058 A 
HETATM   31 CL   UNL     1      -3.735  -4.768 -33.780  1.00  0.00    -0.082 Cl
HETATM   32  C   UNL     1      -5.718  -3.070 -34.618  1.00  0.00     0.055 A 
HETATM   33 CL   UNL     1      -6.537  -4.385 -35.381  1.00  0.00    -0.083 Cl
HETATM   34  C   UNL     1      -6.297  -1.803 -34.707  1.00  0.00     0.028 A 
HETATM   35  C   UNL     1      -5.678  -0.705 -34.105  1.00  0.00     0.031 A 
ENDBRANCH  24  28
ENDBRANCH   2  22
TORSDOF 6
ENDMDL
MODEL 4
REMARK VINA RESULT:      -8.9      4.859      9.905
REMARK  6 active torsions:
REMARK  status: ('A' for Active; 'I' for Inactive)
REMARK    1  A    between atoms: C_4  and  C_5 
REMARK    2  A    between atoms: C_5  and  C_6 
REMARK    3  A    between atoms: C_8  and  C_9 
REMARK    4  A    between atoms: C_9  and  C_10 
REMARK       I    between atoms: C_10  and  N_11 
REMARK    5  A    between atoms: N_11  and  N_12 
REMARK       I    between atoms: N_12  and  C_13 
REMARK       I    between atoms: C_13  and  N_14 
REMARK    6  A    between atoms: N_14  and  C_15 
ROOT
HETATM    1  C   UNL     1      -4.459   4.606 -32.462  1.00  0.00     0.238 C 
HETATM    2  N   UNL     1      -3.084   4.706 -32.430  1.00  0.00    -0.266 N 
HETATM    3  O   UNL     1      -5.150   4.587 -31.446  1.00  0.00    -0.272 OA
HETATM    4  H   UNL     1      -2.483   4.610 -33.249  1.00  0.00     0.190 HD
ENDROOT
BRANCH   1   5
HETATM    5  C   UNL     1      -5.008   4.534 -33.864  1.00  0.00     0.139 C 
BRANCH   5   6
HETATM    6  C   UNL     1      -6.034   3.414 -34.022  1.00  0.00     0.185 C 
HETATM    7  N   UNL     1      -5.746   2.329 -33.086  1.00  0.00    -0.363 N 
HETATM    8  C   UNL     1      -6.785   1.631 -32.514  1.00  0.00     0.125 C 
HETATM    9  H   UNL     1      -4.931   1.775 -33.348  1.00  0.00     0.161 HD
HETATM   10  N   UNL     1      -8.021   2.035 -32.487  1.00  0.00    -0.159 NA
HETATM   11  N   UNL     1      -8.311   3.222 -33.086  1.00  0.00    -0.244 N 
HETATM   12  C   UNL     1      -7.433   3.996 -33.807  1.00  0.00     0.261 C 
HETATM   13  H   UNL     1      -9.258   3.567 -32.970  1.00  0.00     0.192 HD
HETATM   14  O   UNL     1      -7.789   5.072 -34.288  1.00  0.00    -0.269 OA
BRANCH   8  15
HETATM   15  C   UNL     1      -6.470   0.288 -31.862  1.00  0.00     0.118 C 
BRANCH  15  16
HETATM   16  C   UNL     1      -6.124  -0.792 -32.860  1.00  0.00    -0.051 A 
HETATM   17  C   UNL     1      -7.099  -1.281 -33.741  1.00  0.00     0.007 A 
HETATM   18  C   UNL     1      -6.772  -2.245 -34.698  1.00  0.00     0.001 A 
HETATM   19  C   UNL     1      -5.469  -2.729 -34.787  1.00  0.00     0.000 A 
HETATM   20  C   UNL     1      -4.489  -2.244 -33.922  1.00  0.00     0.001 A 
HETATM   21  C   UNL     1      -4.813  -1.277 -32.970  1.00  0.00     0.007 A 
ENDBRANCH  15  16
ENDBRANCH   8  15
ENDBRANCH   5   6
ENDBRANCH   1   5
BRANCH   2  22
HETATM   22  N   UNL     1      -2.437   4.766 -31.186  1.00  0.00    -0.249 N 
HETATM   23  C   UNL     1      -2.062   6.025 -30.742  1.00  0.00     0.339 C 
HETATM   24  N   UNL     1      -1.380   5.959 -29.547  1.00  0.00    -0.308 N 
HETATM   25  O   UNL     1      -2.368   7.037 -31.364  1.00  0.00    -0.245 OA
HETATM   26  H   UNL     1      -1.353   5.046 -29.115  1.00  0.00     0.170 HD
HETATM   27  H   UNL     1      -1.859   3.957 -30.971  1.00  0.00     0.192 HD
BRANCH  24  28
HETATM   28  C   UNL     1      -0.848   7.030 -28.801  1.00  0.00     0.038 A 
HETATM   29  C   UNL     1      -1.617   7.895 -28.018  1.00  0.00     0.055 A 
HETATM   30  C   UNL     1      -1.011   8.934 -27.298  1.00  0.00     0.058 A 
HETATM   31 CL   UNL     1      -2.031   9.958 -26.349  1.00  0.00    -0.082 Cl
HETATM   32  C   UNL     1       0.373   9.116 -27.361  1.00  0.00     0.055 A 
HETATM   33 CL   UNL     1       1.189  10.371 -26.500  1.00  0.00    -0.083 Cl
HETATM   34  C   UNL     1       1.145   8.260 -28.149  1.00  0.00     0.028 A 
HETATM   35  C   UNL     1       0.537   7.225 -28.865  1.00  0.00     0.031 A 
ENDBRANCH  24  28
ENDBRANCH   2  22
TORSDOF 6
ENDMDL
MODEL 5
REMARK VINA RESULT:      -8.8      2.116      3.337
REMARK  6 active torsions:
REMARK  status: ('A' for Active; 'I' for Inactive)
REMARK    1  A    between atoms: C_4  and  C_5 
REMARK    2  A    between atoms: C_5  and  C_6 
REMARK    3  A    between atoms: C_8  and  C_9 
REMARK    4  A    between atoms: C_9  and  C_10 
REMARK       I    between atoms: C_10  and  N_11 
REMARK    5  A    between atoms: N_11  and  N_12 
REMARK       I    between atoms: N_12  and  C_13 
REMARK       I    between atoms: C_13  and  N_14 
REMARK    6  A    between atoms: N_14  and  C_15 
ROOT
HETATM    1  C   UNL     1      -4.139   6.579 -31.205  1.00  0.00     0.238 C 
HETATM    2  N   UNL     1      -4.410   5.673 -32.208  1.00  0.00    -0.266 N 
HETATM    3  O   UNL     1      -4.391   6.361 -30.022  1.00  0.00    -0.272 OA
HETATM    4  H   UNL     1      -4.315   5.874 -33.205  1.00  0.00     0.190 HD
ENDROOT
BRANCH   1   5
HETATM    5  C   UNL     1      -3.499   7.844 -31.717  1.00  0.00     0.139 C 
BRANCH   5   6
HETATM    6  C   UNL     1      -2.000   7.887 -31.427  1.00  0.00     0.185 C 
HETATM    7  N   UNL     1      -1.686   7.062 -30.262  1.00  0.00    -0.363 N 
HETATM    8  C   UNL     1      -0.502   6.363 -30.223  1.00  0.00     0.125 C 
HETATM    9  H   UNL     1      -1.986   7.477 -29.380  1.00  0.00     0.161 HD
HETATM   10  N   UNL     1       0.247   6.118 -31.258  1.00  0.00    -0.159 NA
HETATM   11  N   UNL     1      -0.159   6.607 -32.462  1.00  0.00    -0.244 N 
HETATM   12  C   UNL     1      -1.245   7.422 -32.674  1.00  0.00     0.261 C 
HETATM   13  H   UNL     1       0.383   6.323 -33.271  1.00  0.00     0.192 HD
HETATM   14  O   UNL     1      -1.545   7.789 -33.811  1.00  0.00    -0.269 OA
BRANCH   8  15
HETATM   15  C   UNL     1      -0.028   5.834 -28.872  1.00  0.00     0.118 C 
BRANCH  15  16
HETATM   16  C   UNL     1       0.623   6.893 -28.013  1.00  0.00    -0.051 A 
HETATM   17  C   UNL     1       1.157   8.050 -28.598  1.00  0.00     0.007 A 
HETATM   18  C   UNL     1       1.717   9.053 -27.803  1.00  0.00     0.001 A 
HETATM   19  C   UNL     1       1.746   8.914 -26.417  1.00  0.00     0.000 A 
HETATM   20  C   UNL     1       1.211   7.772 -25.824  1.00  0.00     0.001 A 
HETATM   21  C   UNL     1       0.646   6.772 -26.616  1.00  0.00     0.007 A 
ENDBRANCH  15  16
ENDBRANCH   8  15
ENDBRANCH   5   6
ENDBRANCH   1   5
BRANCH   2  22
HETATM   22  N   UNL     1      -5.021   4.455 -31.875  1.00  0.00    -0.249 N 
HETATM   23  C   UNL     1      -4.359   3.300 -32.267  1.00  0.00     0.339 C 
HETATM   24  N   UNL     1      -5.079   2.171 -31.947  1.00  0.00    -0.308 N 
HETATM   25  O   UNL     1      -3.252   3.349 -32.792  1.00  0.00    -0.245 OA
HETATM   26  H   UNL     1      -5.903   2.328 -31.384  1.00  0.00     0.170 HD
HETATM   27  H   UNL     1      -6.038   4.480 -31.867  1.00  0.00     0.192 HD
BRANCH  24  28
HETATM   28  C   UNL     1      -4.723   0.828 -32.190  1.00  0.00     0.038 A 
HETATM   29  C   UNL     1      -5.317   0.028 -33.170  1.00  0.00     0.055 A 
HETATM   30  C   UNL     1      -4.901  -1.298 -33.355  1.00  0.00     0.058 A 
HETATM   31 CL   UNL     1      -5.682  -2.221 -34.593  1.00  0.00    -0.082 Cl
HETATM   32  C   UNL     1      -3.888  -1.834 -32.556  1.00  0.00     0.055 A 
HETATM   33 CL   UNL     1      -3.323  -3.457 -32.729  1.00  0.00    -0.083 Cl
HETATM   34  C   UNL     1      -3.298  -1.041 -31.570  1.00  0.00     0.028 A 
HETATM   35  C   UNL     1      -3.715   0.280 -31.388  1.00  0.00     0.031 A 
ENDBRANCH  24  28
ENDBRANCH   2  22
TORSDOF 6
ENDMDL
MODEL 6
REMARK VINA RESULT:      -8.7      2.470      3.699
REMARK  6 active torsions:
REMARK  status: ('A' for Active; 'I' for Inactive)
REMARK    1  A    between atoms: C_4  and  C_5 
REMARK    2  A    between atoms: C_5  and  C_6 
REMARK    3  A    between atoms: C_8  and  C_9 
REMARK    4  A    between atoms: C_9  and  C_10 
REMARK       I    between atoms: C_10  and  N_11 
REMARK    5  A    between atoms: N_11  and  N_12 
REMARK       I    between atoms: N_12  and  C_13 
REMARK       I    between atoms: C_13  and  N_14 
REMARK    6  A    between atoms: N_14  and  C_15 
ROOT
HETATM    1  C   UNL     1      -5.442   4.415 -30.306  1.00  0.00     0.238 C 
HETATM    2  N   UNL     1      -5.008   3.117 -30.140  1.00  0.00    -0.266 N 
HETATM    3  O   UNL     1      -5.403   4.999 -31.386  1.00  0.00    -0.272 OA
HETATM    4  H   UNL     1      -4.926   2.651 -29.235  1.00  0.00     0.190 HD
ENDROOT
BRANCH   1   5
HETATM    5  C   UNL     1      -5.973   5.023 -29.033  1.00  0.00     0.139 C 
BRANCH   5   6
HETATM    6  C   UNL     1      -4.973   5.985 -28.395  1.00  0.00     0.185 C 
HETATM    7  N   UNL     1      -3.813   6.159 -29.267  1.00  0.00    -0.363 N 
HETATM    8  C   UNL     1      -3.192   7.385 -29.335  1.00  0.00     0.125 C 
HETATM    9  H   UNL     1      -3.196   5.347 -29.286  1.00  0.00     0.161 HD
HETATM   10  N   UNL     1      -3.716   8.503 -28.926  1.00  0.00    -0.159 NA
HETATM   11  N   UNL     1      -4.958   8.453 -28.371  1.00  0.00    -0.244 N 
HETATM   12  C   UNL     1      -5.679   7.312 -28.113  1.00  0.00     0.261 C 
HETATM   13  H   UNL     1      -5.390   9.344 -28.150  1.00  0.00     0.192 HD
HETATM   14  O   UNL     1      -6.811   7.377 -27.632  1.00  0.00    -0.269 OA
BRANCH   8  15
HETATM   15  C   UNL     1      -1.790   7.443 -29.933  1.00  0.00     0.118 C 
BRANCH  15  16
HETATM   16  C   UNL     1      -1.725   6.931 -31.352  1.00  0.00    -0.051 A 
HETATM   17  C   UNL     1      -1.839   7.819 -32.432  1.00  0.00     0.007 A 
HETATM   18  C   UNL     1      -1.732   7.356 -33.745  1.00  0.00     0.001 A 
HETATM   19  C   UNL     1      -1.507   6.004 -33.995  1.00  0.00     0.000 A 
HETATM   20  C   UNL     1      -1.384   5.113 -32.931  1.00  0.00     0.001 A 
HETATM   21  C   UNL     1      -1.485   5.575 -31.617  1.00  0.00     0.007 A 
ENDBRANCH  15  16
ENDBRANCH   8  15
ENDBRANCH   5   6
ENDBRANCH   1   5
BRANCH   2  22
HETATM   22  N   UNL     1      -4.475   2.434 -31.243  1.00  0.00    -0.249 N 
HETATM   23  C   UNL     1      -5.109   1.256 -31.610  1.00  0.00     0.339 C 
HETATM   24  N   UNL     1      -4.465   0.639 -32.659  1.00  0.00    -0.308 N 
HETATM   25  O   UNL     1      -6.140   0.889 -31.054  1.00  0.00    -0.245 OA
HETATM   26  H   UNL     1      -3.715   1.171 -33.079  1.00  0.00     0.170 HD
HETATM   27  H   UNL     1      -3.467   2.523 -31.348  1.00  0.00     0.192 HD
BRANCH  24  28
HETATM   28  C   UNL     1      -4.819  -0.569 -33.294  1.00  0.00     0.038 A 
HETATM   29  C   UNL     1      -4.087  -1.753 -33.184  1.00  0.00     0.055 A 
HETATM   30  C   UNL     1      -4.510  -2.917 -33.842  1.00  0.00     0.058 A 
HETATM   31 CL   UNL     1      -3.551  -4.343 -33.652  1.00  0.00    -0.082 Cl
HETATM   32  C   UNL     1      -5.671  -2.899 -34.619  1.00  0.00     0.055 A 
HETATM   33 CL   UNL     1      -6.255  -4.294 -35.455  1.00  0.00    -0.083 Cl
HETATM   34  C   UNL     1      -6.402  -1.716 -34.739  1.00  0.00     0.028 A 
HETATM   35  C   UNL     1      -5.977  -0.559 -34.081  1.00  0.00     0.031 A 
ENDBRANCH  24  28
ENDBRANCH   2  22
TORSDOF 6
ENDMDL
MODEL 7
REMARK VINA RESULT:      -8.7      4.822     10.257
REMARK  6 active torsions:
REMARK  status: ('A' for Active; 'I' for Inactive)
REMARK    1  A    between atoms: C_4  and  C_5 
REMARK    2  A    between atoms: C_5  and  C_6 
REMARK    3  A    between atoms: C_8  and  C_9 
REMARK    4  A    between atoms: C_9  and  C_10 
REMARK       I    between atoms: C_10  and  N_11 
REMARK    5  A    between atoms: N_11  and  N_12 
REMARK       I    between atoms: N_12  and  C_13 
REMARK       I    between atoms: C_13  and  N_14 
REMARK    6  A    between atoms: N_14  and  C_15 
ROOT
HETATM    1  C   UNL     1      -3.952   3.350 -31.851  1.00  0.00     0.238 C 
HETATM    2  N   UNL     1      -2.989   4.300 -32.113  1.00  0.00    -0.266 N 
HETATM    3  O   UNL     1      -3.929   2.633 -30.853  1.00  0.00    -0.272 OA
HETATM    4  H   UNL     1      -2.924   4.827 -32.985  1.00  0.00     0.190 HD
ENDROOT
BRANCH   1   5
HETATM    5  C   UNL     1      -5.027   3.300 -32.906  1.00  0.00     0.139 C 
BRANCH   5   6
HETATM    6  C   UNL     1      -5.673   1.919 -33.004  1.00  0.00     0.185 C 
HETATM    7  N   UNL     1      -4.644   0.887 -33.113  1.00  0.00    -0.363 N 
HETATM    8  C   UNL     1      -4.841  -0.336 -32.514  1.00  0.00     0.125 C 
HETATM    9  H   UNL     1      -4.187   0.866 -34.024  1.00  0.00     0.161 HD
HETATM   10  N   UNL     1      -5.730  -0.574 -31.594  1.00  0.00    -0.159 NA
HETATM   11  N   UNL     1      -6.537   0.455 -31.214  1.00  0.00    -0.244 N 
HETATM   12  C   UNL     1      -6.566   1.706 -31.780  1.00  0.00     0.261 C 
HETATM   13  H   UNL     1      -7.154   0.278 -30.429  1.00  0.00     0.192 HD
HETATM   14  O   UNL     1      -7.317   2.579 -31.343  1.00  0.00    -0.269 OA
BRANCH   8  15
HETATM   15  C   UNL     1      -3.956  -1.499 -32.953  1.00  0.00     0.118 C 
BRANCH  15  16
HETATM   16  C   UNL     1      -4.707  -2.559 -33.724  1.00  0.00    -0.051 A 
HETATM   17  C   UNL     1      -4.178  -3.853 -33.847  1.00  0.00     0.007 A 
HETATM   18  C   UNL     1      -4.891  -4.849 -34.518  1.00  0.00     0.001 A 
HETATM   19  C   UNL     1      -6.139  -4.567 -35.070  1.00  0.00     0.000 A 
HETATM   20  C   UNL     1      -6.678  -3.288 -34.946  1.00  0.00     0.001 A 
HETATM   21  C   UNL     1      -5.970  -2.292 -34.271  1.00  0.00     0.007 A 
ENDBRANCH  15  16
ENDBRANCH   8  15
ENDBRANCH   5   6
ENDBRANCH   1   5
BRANCH   2  22
HETATM   22  N   UNL     1      -1.918   4.445 -31.218  1.00  0.00    -0.249 N 
HETATM   23  C   UNL     1      -1.902   5.601 -30.451  1.00  0.00     0.339 C 
HETATM   24  N   UNL     1      -0.777   5.668 -29.659  1.00  0.00    -0.308 N 
HETATM   25  O   UNL     1      -2.829   6.403 -30.490  1.00  0.00    -0.245 OA
HETATM   26  H   UNL     1      -0.199   4.839 -29.658  1.00  0.00     0.170 HD
HETATM   27  H   UNL     1      -1.044   4.032 -31.535  1.00  0.00     0.192 HD
BRANCH  24  28
HETATM   28  C   UNL     1      -0.423   6.690 -28.755  1.00  0.00     0.038 A 
HETATM   29  C   UNL     1      -1.160   7.014 -27.614  1.00  0.00     0.055 A 
HETATM   30  C   UNL     1      -0.737   8.041 -26.759  1.00  0.00     0.058 A 
HETATM   31 CL   UNL     1      -1.702   8.378 -25.365  1.00  0.00    -0.082 Cl
HETATM   32  C   UNL     1       0.430   8.755 -27.046  1.00  0.00     0.055 A 
HETATM   33 CL   UNL     1       1.014  10.030 -26.038  1.00  0.00    -0.083 Cl
HETATM   34  C   UNL     1       1.166   8.441 -28.189  1.00  0.00     0.028 A 
HETATM   35  C   UNL     1       0.741   7.416 -29.039  1.00  0.00     0.031 A 
ENDBRANCH  24  28
ENDBRANCH   2  22
TORSDOF 6
ENDMDL
MODEL 8
REMARK VINA RESULT:      -8.7      3.362      4.911
REMARK  6 active torsions:
REMARK  status: ('A' for Active; 'I' for Inactive)
REMARK    1  A    between atoms: C_4  and  C_5 
REMARK    2  A    between atoms: C_5  and  C_6 
REMARK    3  A    between atoms: C_8  and  C_9 
REMARK    4  A    between atoms: C_9  and  C_10 
REMARK       I    between atoms: C_10  and  N_11 
REMARK    5  A    between atoms: N_11  and  N_12 
REMARK       I    between atoms: N_12  and  C_13 
REMARK       I    between atoms: C_13  and  N_14 
REMARK    6  A    between atoms: N_14  and  C_15 
ROOT
HETATM    1  C   UNL     1      -4.115   6.360 -29.322  1.00  0.00     0.238 C 
HETATM    2  N   UNL     1      -4.596   5.085 -29.530  1.00  0.00    -0.266 N 
HETATM    3  O   UNL     1      -3.393   6.942 -30.128  1.00  0.00    -0.272 OA
HETATM    4  H   UNL     1      -5.101   4.541 -28.830  1.00  0.00     0.190 HD
ENDROOT
BRANCH   1   5
HETATM    5  C   UNL     1      -4.578   6.954 -28.016  1.00  0.00     0.139 C 
BRANCH   5   6
HETATM    6  C   UNL     1      -3.569   6.730 -26.893  1.00  0.00     0.185 C 
HETATM    7  N   UNL     1      -2.208   6.748 -27.425  1.00  0.00    -0.363 N 
HETATM    8  C   UNL     1      -1.189   7.283 -26.671  1.00  0.00     0.125 C 
HETATM    9  H   UNL     1      -1.972   5.913 -27.961  1.00  0.00     0.161 HD
HETATM   10  N   UNL     1      -1.361   8.057 -25.639  1.00  0.00    -0.159 NA
HETATM   11  N   UNL     1      -2.639   8.340 -25.267  1.00  0.00    -0.244 N 
HETATM   12  C   UNL     1      -3.776   7.805 -25.824  1.00  0.00     0.261 C 
HETATM   13  H   UNL     1      -2.753   9.021 -24.525  1.00  0.00     0.192 HD
HETATM   14  O   UNL     1      -4.892   8.149 -25.431  1.00  0.00    -0.269 OA
BRANCH   8  15
HETATM   15  C   UNL     1       0.246   6.949 -27.068  1.00  0.00     0.118 C 
BRANCH  15  16
HETATM   16  C   UNL     1       0.375   6.483 -28.499  1.00  0.00    -0.051 A 
HETATM   17  C   UNL     1       0.221   7.391 -29.557  1.00  0.00     0.007 A 
HETATM   18  C   UNL     1       0.387   6.974 -30.879  1.00  0.00     0.001 A 
HETATM   19  C   UNL     1       0.711   5.649 -31.160  1.00  0.00     0.000 A 
HETATM   20  C   UNL     1       0.875   4.739 -30.118  1.00  0.00     0.001 A 
HETATM   21  C   UNL     1       0.715   5.155 -28.795  1.00  0.00     0.007 A 
ENDBRANCH  15  16
ENDBRANCH   8  15
ENDBRANCH   5   6
ENDBRANCH   1   5
BRANCH   2  22
HETATM   22  N   UNL     1      -4.230   4.406 -30.702  1.00  0.00    -0.249 N 
HETATM   23  C   UNL     1      -4.941   3.252 -30.998  1.00  0.00     0.339 C 
HETATM   24  N   UNL     1      -4.457   2.635 -32.130  1.00  0.00    -0.308 N 
HETATM   25  O   UNL     1      -5.901   2.904 -30.318  1.00  0.00    -0.245 OA
HETATM   26  H   UNL     1      -3.753   3.152 -32.637  1.00  0.00     0.170 HD
HETATM   27  H   UNL     1      -3.242   4.468 -30.936  1.00  0.00     0.192 HD
BRANCH  24  28
HETATM   28  C   UNL     1      -4.926   1.447 -32.729  1.00  0.00     0.038 A 
HETATM   29  C   UNL     1      -5.994   1.396 -33.628  1.00  0.00     0.055 A 
HETATM   30  C   UNL     1      -6.397   0.175 -34.187  1.00  0.00     0.058 A 
HETATM   31 CL   UNL     1      -7.724   0.196 -35.296  1.00  0.00    -0.082 Cl
HETATM   32  C   UNL     1      -5.732  -1.006 -33.844  1.00  0.00     0.055 A 
HETATM   33 CL   UNL     1      -6.171  -2.545 -34.495  1.00  0.00    -0.083 Cl
HETATM   34  C   UNL     1      -4.670  -0.961 -32.940  1.00  0.00     0.028 A 
HETATM   35  C   UNL     1      -4.272   0.258 -32.385  1.00  0.00     0.031 A 
ENDBRANCH  24  28
ENDBRANCH   2  22
TORSDOF 6
ENDMDL
MODEL 9
REMARK VINA RESULT:      -8.7      1.646      2.264
REMARK  6 active torsions:
REMARK  status: ('A' for Active; 'I' for Inactive)
REMARK    1  A    between atoms: C_4  and  C_5 
REMARK    2  A    between atoms: C_5  and  C_6 
REMARK    3  A    between atoms: C_8  and  C_9 
REMARK    4  A    between atoms: C_9  and  C_10 
REMARK       I    between atoms: C_10  and  N_11 
REMARK    5  A    between atoms: N_11  and  N_12 
REMARK       I    between atoms: N_12  and  C_13 
REMARK       I    between atoms: C_13  and  N_14 
REMARK    6  A    between atoms: N_14  and  C_15 
ROOT
HETATM    1  C   UNL     1      -4.859   5.645 -30.786  1.00  0.00     0.238 C 
HETATM    2  N   UNL     1      -5.577   5.155 -31.855  1.00  0.00    -0.266 N 
HETATM    3  O   UNL     1      -4.705   5.018 -29.740  1.00  0.00    -0.272 OA
HETATM    4  H   UNL     1      -5.813   5.699 -32.686  1.00  0.00     0.190 HD
ENDROOT
BRANCH   1   5
HETATM    5  C   UNL     1      -4.282   7.014 -31.047  1.00  0.00     0.139 C 
BRANCH   5   6
HETATM    6  C   UNL     1      -2.811   6.950 -31.451  1.00  0.00     0.185 C 
HETATM    7  N   UNL     1      -2.031   6.275 -30.415  1.00  0.00    -0.363 N 
HETATM    8  C   UNL     1      -0.971   5.476 -30.775  1.00  0.00     0.125 C 
HETATM    9  H   UNL     1      -1.897   6.841 -29.577  1.00  0.00     0.161 HD
HETATM   10  N   UNL     1      -0.768   5.012 -31.973  1.00  0.00    -0.159 NA
HETATM   11  N   UNL     1      -1.656   5.359 -32.944  1.00  0.00    -0.244 N 
HETATM   12  C   UNL     1      -2.703   6.238 -32.801  1.00  0.00     0.261 C 
HETATM   13  H   UNL     1      -1.538   4.909 -33.845  1.00  0.00     0.192 HD
HETATM   14  O   UNL     1      -3.469   6.464 -33.738  1.00  0.00    -0.269 OA
BRANCH   8  15
HETATM   15  C   UNL     1       0.042   5.103 -29.696  1.00  0.00     0.118 C 
BRANCH  15  16
HETATM   16  C   UNL     1       0.313   6.225 -28.721  1.00  0.00    -0.051 A 
HETATM   17  C   UNL     1       0.018   6.065 -27.359  1.00  0.00     0.007 A 
HETATM   18  C   UNL     1       0.312   7.081 -26.446  1.00  0.00     0.001 A 
HETATM   19  C   UNL     1       0.905   8.264 -26.882  1.00  0.00     0.000 A 
HETATM   20  C   UNL     1       1.210   8.431 -28.231  1.00  0.00     0.001 A 
HETATM   21  C   UNL     1       0.923   7.415 -29.143  1.00  0.00     0.007 A 
ENDBRANCH  15  16
ENDBRANCH   8  15
ENDBRANCH   5   6
ENDBRANCH   1   5
BRANCH   2  22
HETATM   22  N   UNL     1      -6.183   3.894 -31.743  1.00  0.00    -0.249 N 
HETATM   23  C   UNL     1      -5.651   2.878 -32.524  1.00  0.00     0.339 C 
HETATM   24  N   UNL     1      -6.361   1.707 -32.384  1.00  0.00    -0.308 N 
HETATM   25  O   UNL     1      -4.643   3.057 -33.200  1.00  0.00    -0.245 OA
HETATM   26  H   UNL     1      -7.073   1.716 -31.668  1.00  0.00     0.170 HD
HETATM   27  H   UNL     1      -7.183   3.920 -31.556  1.00  0.00     0.192 HD
BRANCH  24  28
HETATM   28  C   UNL     1      -6.115   0.472 -33.018  1.00  0.00     0.038 A 
HETATM   29  C   UNL     1      -5.106  -0.416 -32.635  1.00  0.00     0.055 A 
HETATM   30  C   UNL     1      -4.929  -1.630 -33.313  1.00  0.00     0.058 A 
HETATM   31 CL   UNL     1      -3.662  -2.676 -32.775  1.00  0.00    -0.082 Cl
HETATM   32  C   UNL     1      -5.763  -1.962 -34.385  1.00  0.00     0.055 A 
HETATM   33 CL   UNL     1      -5.606  -3.441 -35.265  1.00  0.00    -0.083 Cl
HETATM   34  C   UNL     1      -6.766  -1.075 -34.777  1.00  0.00     0.028 A 
HETATM   35  C   UNL     1      -6.939   0.134 -34.098  1.00  0.00     0.031 A 
ENDBRANCH  24  28
ENDBRANCH   2  22
TORSDOF 6
ENDMDL
MODEL 10
REMARK VINA RESULT:      -8.4      3.736      6.428
REMARK  6 active torsions:
REMARK  status: ('A' for Active; 'I' for Inactive)
REMARK    1  A    between atoms: C_4  and  C_5 
REMARK    2  A    between atoms: C_5  and  C_6 
REMARK    3  A    between atoms: C_8  and  C_9 
REMARK    4  A    between atoms: C_9  and  C_10 
REMARK       I    between atoms: C_10  and  N_11 
REMARK    5  A    between atoms: N_11  and  N_12 
REMARK       I    between atoms: N_12  and  C_13 
REMARK       I    between atoms: C_13  and  N_14 
REMARK    6  A    between atoms: N_14  and  C_15 
ROOT
HETATM    1  C   UNL     1      -5.026   4.208 -30.685  1.00  0.00     0.238 C 
HETATM    2  N   UNL     1      -4.712   2.915 -30.324  1.00  0.00    -0.266 N 
HETATM    3  O   UNL     1      -4.802   4.662 -31.805  1.00  0.00    -0.272 OA
HETATM    4  H   UNL     1      -4.783   2.552 -29.373  1.00  0.00     0.190 HD
ENDROOT
BRANCH   1   5
HETATM    5  C   UNL     1      -5.674   4.986 -29.569  1.00  0.00     0.139 C 
BRANCH   5   6
HETATM    6  C   UNL     1      -6.893   5.771 -30.049  1.00  0.00     0.185 C 
HETATM    7  N   UNL     1      -7.599   5.023 -31.087  1.00  0.00    -0.363 N 
HETATM    8  C   UNL     1      -8.972   5.087 -31.157  1.00  0.00     0.125 C 
HETATM    9  H   UNL     1      -7.110   5.012 -31.981  1.00  0.00     0.161 HD
HETATM   10  N   UNL     1      -9.742   5.513 -30.198  1.00  0.00    -0.159 NA
HETATM   11  N   UNL     1      -9.146   5.945 -29.053  1.00  0.00    -0.244 N 
HETATM   12  C   UNL     1      -7.793   6.066 -28.847  1.00  0.00     0.261 C 
HETATM   13  H   UNL     1      -9.763   6.179 -28.283  1.00  0.00     0.192 HD
HETATM   14  O   UNL     1      -7.352   6.442 -27.760  1.00  0.00    -0.269 OA
BRANCH   8  15
HETATM   15  C   UNL     1      -9.645   4.627 -32.446  1.00  0.00     0.118 C 
BRANCH  15  16
HETATM   16  C   UNL     1      -9.449   3.156 -32.728  1.00  0.00    -0.051 A 
HETATM   17  C   UNL     1      -9.055   2.725 -34.003  1.00  0.00     0.007 A 
HETATM   18  C   UNL     1      -8.826   1.370 -34.254  1.00  0.00     0.001 A 
HETATM   19  C   UNL     1      -8.985   0.432 -33.236  1.00  0.00     0.000 A 
HETATM   20  C   UNL     1      -9.368   0.849 -31.963  1.00  0.00     0.001 A 
HETATM   21  C   UNL     1      -9.592   2.203 -31.708  1.00  0.00     0.007 A 
ENDBRANCH  15  16
ENDBRANCH   8  15
ENDBRANCH   5   6
ENDBRANCH   1   5
BRANCH   2  22
HETATM   22  N   UNL     1      -4.088   2.081 -31.264  1.00  0.00    -0.249 N 
HETATM   23  C   UNL     1      -4.832   1.009 -31.733  1.00  0.00     0.339 C 
HETATM   24  N   UNL     1      -4.102   0.224 -32.597  1.00  0.00    -0.308 N 
HETATM   25  O   UNL     1      -6.007   0.860 -31.411  1.00  0.00    -0.245 OA
HETATM   26  H   UNL     1      -3.196   0.591 -32.854  1.00  0.00     0.170 HD
HETATM   27  H   UNL     1      -3.082   1.988 -31.145  1.00  0.00     0.192 HD
BRANCH  24  28
HETATM   28  C   UNL     1      -4.526  -0.943 -33.265  1.00  0.00     0.038 A 
HETATM   29  C   UNL     1      -3.888  -2.181 -33.155  1.00  0.00     0.055 A 
HETATM   30  C   UNL     1      -4.376  -3.299 -33.847  1.00  0.00     0.058 A 
HETATM   31 CL   UNL     1      -3.534  -4.796 -33.654  1.00  0.00    -0.082 Cl
HETATM   32  C   UNL     1      -5.508  -3.181 -34.658  1.00  0.00     0.055 A 
HETATM   33 CL   UNL     1      -6.169  -4.514 -35.537  1.00  0.00    -0.083 Cl
HETATM   34  C   UNL     1      -6.144  -1.944 -34.778  1.00  0.00     0.028 A 
HETATM   35  C   UNL     1      -5.654  -0.833 -34.087  1.00  0.00     0.031 A 
ENDBRANCH  24  28
ENDBRANCH   2  22
TORSDOF 6
ENDMDL
