MODEL 1
REMARK VINA RESULT:      -9.5      0.000      0.000
REMARK  9 active torsions:
REMARK  status: ('A' for Active; 'I' for Inactive)
REMARK    1  A    between atoms: C_4  and  C_5 
REMARK    2  A    between atoms: N_10  and  C_11 
REMARK    3  A    between atoms: C_11  and  C_12 
REMARK    4  A    between atoms: C_12  and  C_13 
REMARK    5  A    between atoms: C_13  and  C_14 
REMARK    6  A    between atoms: C_14  and  C_15 
REMARK    7  A    between atoms: C_15  and  C_16 
REMARK       I    between atoms: C_16  and  N_17 
REMARK    8  A    between atoms: N_17  and  C_18 
REMARK    9  A    between atoms: C_26  and  C_27 
REMARK       I    between atoms: C_27  and  N_28 
ROOT
HETATM    1  C   UNL     1      -2.402   4.121 -33.001  1.00  0.00     0.103 C 
ENDROOT
BRANCH   1   2
HETATM    2  C   UNL     1      -3.520   4.722 -32.145  1.00  0.00     0.009 C 
BRANCH   2   3
HETATM    3  C   UNL     1      -4.666   5.301 -32.983  1.00  0.00     0.002 C 
BRANCH   3   4
HETATM    4  C   UNL     1      -5.417   4.211 -33.748  1.00  0.00     0.020 C 
BRANCH   4   5
HETATM    5  C   UNL     1      -6.623   3.653 -32.980  1.00  0.00     0.134 C 
BRANCH   5   6
HETATM    6  N   UNL     1      -6.496   2.205 -32.802  1.00  0.00    -0.298 N 
HETATM    7  C   UNL     1      -6.028   1.589 -31.661  1.00  0.00     0.148 C 
HETATM    8  S   UNL     1      -5.914  -0.146 -31.926  1.00  0.00    -0.055 SA
HETATM    9  S   UNL     1      -5.596   2.289 -30.208  1.00  0.00    -0.052 SA
HETATM   10  C   UNL     1      -6.340  -0.013 -33.582  1.00  0.00     0.076 C 
HETATM   11  C   UNL     1      -6.295  -0.943 -34.546  1.00  0.00     0.036 C 
HETATM   12  C   UNL     1      -6.746   1.384 -33.889  1.00  0.00     0.266 C 
HETATM   13  O   UNL     1      -7.195   1.739 -34.970  1.00  0.00    -0.266 OA
BRANCH  11  14
HETATM   14  C   UNL     1      -5.835  -2.336 -34.457  1.00  0.00    -0.035 A 
HETATM   15  C   UNL     1      -6.729  -3.360 -34.795  1.00  0.00     0.011 A 
HETATM   16  C   UNL     1      -6.315  -4.694 -34.799  1.00  0.00     0.001 A 
HETATM   17  C   UNL     1      -5.001  -5.018 -34.470  1.00  0.00     0.000 A 
HETATM   18  C   UNL     1      -4.098  -4.007 -34.147  1.00  0.00     0.001 A 
HETATM   19  C   UNL     1      -4.510  -2.673 -34.153  1.00  0.00     0.011 A 
ENDBRANCH  11  14
ENDBRANCH   5   6
ENDBRANCH   4   5
ENDBRANCH   3   4
ENDBRANCH   2   3
ENDBRANCH   1   2
BRANCH   1  20
HETATM   20  C   UNL     1      -1.548   5.153 -33.713  1.00  0.00     0.222 C 
HETATM   21  N   UNL     1      -0.792   6.067 -33.041  1.00  0.00    -0.320 N 
HETATM   22  H   UNL     1      -0.293   6.678 -33.689  1.00  0.00     0.169 HD
HETATM   23  O   UNL     1      -1.495   5.185 -34.949  1.00  0.00    -0.273 OA
BRANCH  21  24
HETATM   24  C   UNL     1      -0.569   6.345 -31.702  1.00  0.00     0.093 A 
HETATM   25  S   UNL     1       0.512   5.454 -30.753  1.00  0.00    -0.075 SA
HETATM   26  C   UNL     1       0.138   6.325 -29.355  1.00  0.00    -0.008 A 
HETATM   27  C   UNL     1      -0.773   7.340 -29.583  1.00  0.00    -0.026 A 
HETATM   28  C   UNL     1       0.762   5.985 -28.036  1.00  0.00     0.047 C 
HETATM   29  C   UNL     1      -1.288   8.180 -28.444  1.00  0.00     0.041 C 
HETATM   30  C   UNL     1      -1.185   7.366 -30.976  1.00  0.00     0.072 A 
HETATM   31  C   UNL     1      -0.433   8.038 -27.173  1.00  0.00     0.005 C 
HETATM   32  C   UNL     1      -0.064   6.578 -26.890  1.00  0.00     0.005 C 
BRANCH  30  33
HETATM   33  C   UNL     1      -2.142   8.271 -31.618  1.00  0.00     0.252 C 
HETATM   34  N   UNL     1      -3.373   8.372 -31.039  1.00  0.00    -0.366 N 
HETATM   35  H   UNL     1      -3.496   8.118 -30.070  1.00  0.00     0.159 HD
HETATM   36  H   UNL     1      -3.954   9.120 -31.394  1.00  0.00     0.159 HD
HETATM   37  O   UNL     1      -1.855   8.981 -32.576  1.00  0.00    -0.268 OA
ENDBRANCH  30  33
ENDBRANCH  21  24
ENDBRANCH   1  20
TORSDOF 9
ENDMDL
MODEL 2
REMARK VINA RESULT:      -9.3      2.304      9.968
REMARK  9 active torsions:
REMARK  status: ('A' for Active; 'I' for Inactive)
REMARK    1  A    between atoms: C_4  and  C_5 
REMARK    2  A    between atoms: N_10  and  C_11 
REMARK    3  A    between atoms: C_11  and  C_12 
REMARK    4  A    between atoms: C_12  and  C_13 
REMARK    5  A    between atoms: C_13  and  C_14 
REMARK    6  A    between atoms: C_14  and  C_15 
REMARK    7  A    between atoms: C_15  and  C_16 
REMARK       I    between atoms: C_16  and  N_17 
REMARK    8  A    between atoms: N_17  and  C_18 
REMARK    9  A    between atoms: C_26  and  C_27 
REMARK       I    between atoms: C_27  and  N_28 
ROOT
HETATM    1  C   UNL     1      -7.046   3.886 -31.560  1.00  0.00     0.103 C 
ENDROOT
BRANCH   1   2
HETATM    2  C   UNL     1      -7.309   3.911 -33.068  1.00  0.00     0.009 C 
BRANCH   2   3
HETATM    3  C   UNL     1      -6.123   4.459 -33.870  1.00  0.00     0.002 C 
BRANCH   3   4
HETATM    4  C   UNL     1      -4.787   4.132 -33.203  1.00  0.00     0.020 C 
BRANCH   4   5
HETATM    5  C   UNL     1      -3.739   5.241 -33.366  1.00  0.00     0.134 C 
BRANCH   5   6
HETATM    6  N   UNL     1      -3.294   5.725 -32.059  1.00  0.00    -0.298 N 
HETATM    7  C   UNL     1      -3.962   6.660 -31.295  1.00  0.00     0.148 C 
HETATM    8  S   UNL     1      -3.009   7.050 -29.868  1.00  0.00    -0.055 SA
HETATM    9  S   UNL     1      -5.438   7.378 -31.593  1.00  0.00    -0.052 SA
HETATM   10  C   UNL     1      -1.682   6.093 -30.379  1.00  0.00     0.076 C 
HETATM   11  C   UNL     1      -0.444   6.021 -29.872  1.00  0.00     0.036 C 
HETATM   12  C   UNL     1      -2.054   5.319 -31.593  1.00  0.00     0.266 C 
HETATM   13  O   UNL     1      -1.332   4.478 -32.111  1.00  0.00    -0.266 OA
BRANCH  11  14
HETATM   14  C   UNL     1       0.133   6.772 -28.748  1.00  0.00    -0.035 A 
HETATM   15  C   UNL     1      -0.031   6.269 -27.450  1.00  0.00     0.011 A 
HETATM   16  C   UNL     1       0.563   6.907 -26.358  1.00  0.00     0.001 A 
HETATM   17  C   UNL     1       1.331   8.052 -26.553  1.00  0.00     0.000 A 
HETATM   18  C   UNL     1       1.516   8.553 -27.840  1.00  0.00     0.001 A 
HETATM   19  C   UNL     1       0.930   7.909 -28.932  1.00  0.00     0.011 A 
ENDBRANCH  11  14
ENDBRANCH   5   6
ENDBRANCH   4   5
ENDBRANCH   3   4
ENDBRANCH   2   3
ENDBRANCH   1   2
BRANCH   1  20
HETATM   20  C   UNL     1      -8.045   3.059 -30.773  1.00  0.00     0.222 C 
HETATM   21  N   UNL     1      -8.107   1.700 -30.868  1.00  0.00    -0.320 N 
HETATM   22  H   UNL     1      -8.843   1.323 -30.269  1.00  0.00     0.169 HD
HETATM   23  O   UNL     1      -8.836   3.600 -29.991  1.00  0.00    -0.273 OA
BRANCH  21  24
HETATM   24  C   UNL     1      -7.410   0.746 -31.592  1.00  0.00     0.093 A 
HETATM   25  S   UNL     1      -5.899   0.157 -31.108  1.00  0.00    -0.075 SA
HETATM   26  C   UNL     1      -5.741  -0.814 -32.481  1.00  0.00    -0.008 A 
HETATM   27  C   UNL     1      -6.847  -0.755 -33.309  1.00  0.00    -0.026 A 
HETATM   28  C   UNL     1      -4.509  -1.632 -32.718  1.00  0.00     0.047 C 
HETATM   29  C   UNL     1      -6.863  -1.495 -34.621  1.00  0.00     0.041 C 
HETATM   30  C   UNL     1      -7.846   0.158 -32.781  1.00  0.00     0.072 A 
HETATM   31  C   UNL     1      -5.752  -2.555 -34.715  1.00  0.00     0.005 C 
HETATM   32  C   UNL     1      -4.411  -2.029 -34.194  1.00  0.00     0.005 C 
BRANCH  30  33
HETATM   33  C   UNL     1      -9.143   0.512 -33.362  1.00  0.00     0.252 C 
HETATM   34  N   UNL     1      -9.122   1.098 -34.594  1.00  0.00    -0.366 N 
HETATM   35  H   UNL     1      -8.319   0.981 -35.194  1.00  0.00     0.159 HD
HETATM   36  H   UNL     1     -10.025   1.180 -35.045  1.00  0.00     0.159 HD
HETATM   37  O   UNL     1     -10.214   0.232 -32.834  1.00  0.00    -0.268 OA
ENDBRANCH  30  33
ENDBRANCH  21  24
ENDBRANCH   1  20
TORSDOF 9
ENDMDL
MODEL 3
REMARK VINA RESULT:      -9.0      2.411      9.878
REMARK  9 active torsions:
REMARK  status: ('A' for Active; 'I' for Inactive)
REMARK    1  A    between atoms: C_4  and  C_5 
REMARK    2  A    between atoms: N_10  and  C_11 
REMARK    3  A    between atoms: C_11  and  C_12 
REMARK    4  A    between atoms: C_12  and  C_13 
REMARK    5  A    between atoms: C_13  and  C_14 
REMARK    6  A    between atoms: C_14  and  C_15 
REMARK    7  A    between atoms: C_15  and  C_16 
REMARK       I    between atoms: C_16  and  N_17 
REMARK    8  A    between atoms: N_17  and  C_18 
REMARK    9  A    between atoms: C_26  and  C_27 
REMARK       I    between atoms: C_27  and  N_28 
ROOT
HETATM    1  C   UNL     1      -7.278   3.650 -31.645  1.00  0.00     0.103 C 
ENDROOT
BRANCH   1   2
HETATM    2  C   UNL     1      -7.439   3.743 -33.165  1.00  0.00     0.009 C 
BRANCH   2   3
HETATM    3  C   UNL     1      -6.249   4.428 -33.848  1.00  0.00     0.002 C 
BRANCH   3   4
HETATM    4  C   UNL     1      -4.933   4.128 -33.131  1.00  0.00     0.020 C 
BRANCH   4   5
HETATM    5  C   UNL     1      -3.876   5.224 -33.320  1.00  0.00     0.134 C 
BRANCH   5   6
HETATM    6  N   UNL     1      -3.406   5.717 -32.024  1.00  0.00    -0.298 N 
HETATM    7  C   UNL     1      -4.052   6.666 -31.261  1.00  0.00     0.148 C 
HETATM    8  S   UNL     1      -3.075   7.060 -29.852  1.00  0.00    -0.055 SA
HETATM    9  S   UNL     1      -5.524   7.399 -31.546  1.00  0.00    -0.052 SA
HETATM   10  C   UNL     1      -1.767   6.083 -30.372  1.00  0.00     0.076 C 
HETATM   11  C   UNL     1      -0.522   6.001 -29.881  1.00  0.00     0.036 C 
HETATM   12  C   UNL     1      -2.165   5.301 -31.572  1.00  0.00     0.266 C 
HETATM   13  O   UNL     1      -1.459   4.447 -32.091  1.00  0.00    -0.266 OA
BRANCH  11  14
HETATM   14  C   UNL     1       0.079   6.758 -28.773  1.00  0.00    -0.035 A 
HETATM   15  C   UNL     1      -0.104   6.290 -27.465  1.00  0.00     0.011 A 
HETATM   16  C   UNL     1       0.511   6.931 -26.387  1.00  0.00     0.001 A 
HETATM   17  C   UNL     1       1.319   8.044 -26.606  1.00  0.00     0.000 A 
HETATM   18  C   UNL     1       1.522   8.509 -27.903  1.00  0.00     0.001 A 
HETATM   19  C   UNL     1       0.915   7.862 -28.982  1.00  0.00     0.011 A 
ENDBRANCH  11  14
ENDBRANCH   5   6
ENDBRANCH   4   5
ENDBRANCH   3   4
ENDBRANCH   2   3
ENDBRANCH   1   2
BRANCH   1  20
HETATM   20  C   UNL     1      -8.287   2.739 -30.972  1.00  0.00     0.222 C 
HETATM   21  N   UNL     1      -8.324   1.395 -31.197  1.00  0.00    -0.320 N 
HETATM   22  H   UNL     1      -9.072   0.953 -30.661  1.00  0.00     0.169 HD
HETATM   23  O   UNL     1      -9.111   3.193 -30.169  1.00  0.00    -0.273 OA
BRANCH  21  24
HETATM   24  C   UNL     1      -7.590   0.522 -31.985  1.00  0.00     0.093 A 
HETATM   25  S   UNL     1      -8.212  -0.175 -33.396  1.00  0.00    -0.075 SA
HETATM   26  C   UNL     1      -6.818  -1.091 -33.662  1.00  0.00    -0.008 A 
HETATM   27  C   UNL     1      -5.834  -0.853 -32.721  1.00  0.00    -0.026 A 
HETATM   28  C   UNL     1      -6.721  -2.042 -34.814  1.00  0.00     0.047 C 
HETATM   29  C   UNL     1      -4.544  -1.631 -32.747  1.00  0.00     0.041 C 
HETATM   30  C   UNL     1      -6.280   0.114 -31.732  1.00  0.00     0.072 A 
HETATM   31  C   UNL     1      -4.324  -2.365 -34.080  1.00  0.00     0.005 C 
HETATM   32  C   UNL     1      -5.599  -3.058 -34.571  1.00  0.00     0.005 C 
BRANCH  30  33
HETATM   33  C   UNL     1      -5.548   0.619 -30.569  1.00  0.00     0.252 C 
HETATM   34  N   UNL     1      -4.454   1.394 -30.822  1.00  0.00    -0.366 N 
HETATM   35  H   UNL     1      -4.362   1.859 -31.713  1.00  0.00     0.159 HD
HETATM   36  H   UNL     1      -4.067   1.866 -30.015  1.00  0.00     0.159 HD
HETATM   37  O   UNL     1      -5.922   0.446 -29.413  1.00  0.00    -0.268 OA
ENDBRANCH  30  33
ENDBRANCH  21  24
ENDBRANCH   1  20
TORSDOF 9
ENDMDL
MODEL 4
REMARK VINA RESULT:      -9.0      2.004      2.738
REMARK  9 active torsions:
REMARK  status: ('A' for Active; 'I' for Inactive)
REMARK    1  A    between atoms: C_4  and  C_5 
REMARK    2  A    between atoms: N_10  and  C_11 
REMARK    3  A    between atoms: C_11  and  C_12 
REMARK    4  A    between atoms: C_12  and  C_13 
REMARK    5  A    between atoms: C_13  and  C_14 
REMARK    6  A    between atoms: C_14  and  C_15 
REMARK    7  A    between atoms: C_15  and  C_16 
REMARK       I    between atoms: C_16  and  N_17 
REMARK    8  A    between atoms: N_17  and  C_18 
REMARK    9  A    between atoms: C_26  and  C_27 
REMARK       I    between atoms: C_27  and  N_28 
ROOT
HETATM    1  C   UNL     1      -3.414   4.483 -31.459  1.00  0.00     0.103 C 
ENDROOT
BRANCH   1   2
HETATM    2  C   UNL     1      -4.655   5.351 -31.683  1.00  0.00     0.009 C 
BRANCH   2   3
HETATM    3  C   UNL     1      -5.137   5.335 -33.139  1.00  0.00     0.002 C 
BRANCH   3   4
HETATM    4  C   UNL     1      -6.594   4.885 -33.249  1.00  0.00     0.020 C 
BRANCH   4   5
HETATM    5  C   UNL     1      -6.927   3.683 -32.356  1.00  0.00     0.134 C 
BRANCH   5   6
HETATM    6  N   UNL     1      -6.944   2.447 -33.141  1.00  0.00    -0.298 N 
HETATM    7  C   UNL     1      -8.025   1.987 -33.864  1.00  0.00     0.148 C 
HETATM    8  S   UNL     1      -7.658   0.405 -34.541  1.00  0.00    -0.055 SA
HETATM    9  S   UNL     1      -9.499   2.730 -34.110  1.00  0.00    -0.052 SA
HETATM   10  C   UNL     1      -6.147   0.310 -33.734  1.00  0.00     0.076 C 
HETATM   11  C   UNL     1      -5.315  -0.734 -33.613  1.00  0.00     0.036 C 
HETATM   12  C   UNL     1      -5.847   1.605 -33.068  1.00  0.00     0.266 C 
HETATM   13  O   UNL     1      -4.789   1.851 -32.506  1.00  0.00    -0.266 OA
BRANCH  11  14
HETATM   14  C   UNL     1      -5.484  -2.105 -34.114  1.00  0.00    -0.035 A 
HETATM   15  C   UNL     1      -4.409  -2.997 -34.004  1.00  0.00     0.011 A 
HETATM   16  C   UNL     1      -4.547  -4.330 -34.397  1.00  0.00     0.001 A 
HETATM   17  C   UNL     1      -5.763  -4.788 -34.899  1.00  0.00     0.000 A 
HETATM   18  C   UNL     1      -6.844  -3.915 -34.998  1.00  0.00     0.001 A 
HETATM   19  C   UNL     1      -6.709  -2.584 -34.596  1.00  0.00     0.011 A 
ENDBRANCH  11  14
ENDBRANCH   5   6
ENDBRANCH   4   5
ENDBRANCH   3   4
ENDBRANCH   2   3
ENDBRANCH   1   2
BRANCH   1  20
HETATM   20  C   UNL     1      -2.244   4.834 -32.359  1.00  0.00     0.222 C 
HETATM   21  N   UNL     1      -1.250   5.682 -31.970  1.00  0.00    -0.320 N 
HETATM   22  H   UNL     1      -0.556   5.799 -32.711  1.00  0.00     0.169 HD
HETATM   23  O   UNL     1      -2.144   4.337 -33.488  1.00  0.00    -0.273 OA
BRANCH  21  24
HETATM   24  C   UNL     1      -0.990   6.410 -30.820  1.00  0.00     0.093 A 
HETATM   25  S   UNL     1      -1.872   7.790 -30.395  1.00  0.00    -0.075 SA
HETATM   26  C   UNL     1      -0.925   8.080 -29.027  1.00  0.00    -0.008 A 
HETATM   27  C   UNL     1       0.044   7.115 -28.832  1.00  0.00    -0.026 A 
HETATM   28  C   UNL     1      -1.163   9.276 -28.156  1.00  0.00     0.047 C 
HETATM   29  C   UNL     1       1.036   7.240 -27.705  1.00  0.00     0.041 C 
HETATM   30  C   UNL     1       0.002   6.113 -29.884  1.00  0.00     0.072 A 
HETATM   31  C   UNL     1       0.607   8.277 -26.653  1.00  0.00     0.005 C 
HETATM   32  C   UNL     1       0.074   9.561 -27.297  1.00  0.00     0.005 C 
BRANCH  30  33
HETATM   33  C   UNL     1       0.867   4.943 -30.052  1.00  0.00     0.252 C 
HETATM   34  N   UNL     1       1.122   4.204 -28.935  1.00  0.00    -0.366 N 
HETATM   35  H   UNL     1       0.498   4.256 -28.143  1.00  0.00     0.159 HD
HETATM   36  H   UNL     1       1.577   3.316 -29.103  1.00  0.00     0.159 HD
HETATM   37  O   UNL     1       1.285   4.569 -31.143  1.00  0.00    -0.268 OA
ENDBRANCH  30  33
ENDBRANCH  21  24
ENDBRANCH   1  20
TORSDOF 9
ENDMDL
MODEL 5
REMARK VINA RESULT:      -8.9      1.608      2.330
REMARK  9 active torsions:
REMARK  status: ('A' for Active; 'I' for Inactive)
REMARK    1  A    between atoms: C_4  and  C_5 
REMARK    2  A    between atoms: N_10  and  C_11 
REMARK    3  A    between atoms: C_11  and  C_12 
REMARK    4  A    between atoms: C_12  and  C_13 
REMARK    5  A    between atoms: C_13  and  C_14 
REMARK    6  A    between atoms: C_14  and  C_15 
REMARK    7  A    between atoms: C_15  and  C_16 
REMARK       I    between atoms: C_16  and  N_17 
REMARK    8  A    between atoms: N_17  and  C_18 
REMARK    9  A    between atoms: C_26  and  C_27 
REMARK       I    between atoms: C_27  and  N_28 
ROOT
HETATM    1  C   UNL     1      -3.252   6.248 -32.885  1.00  0.00     0.103 C 
ENDROOT
BRANCH   1   2
HETATM    2  C   UNL     1      -2.845   4.835 -33.313  1.00  0.00     0.009 C 
BRANCH   2   3
HETATM    3  C   UNL     1      -3.912   3.784 -32.984  1.00  0.00     0.002 C 
BRANCH   3   4
HETATM    4  C   UNL     1      -5.259   4.122 -33.622  1.00  0.00     0.020 C 
BRANCH   4   5
HETATM    5  C   UNL     1      -6.458   3.582 -32.831  1.00  0.00     0.134 C 
BRANCH   5   6
HETATM    6  N   UNL     1      -6.398   2.122 -32.737  1.00  0.00    -0.298 N 
HETATM    7  C   UNL     1      -6.041   1.420 -31.605  1.00  0.00     0.148 C 
HETATM    8  S   UNL     1      -5.970  -0.300 -31.971  1.00  0.00    -0.055 SA
HETATM    9  S   UNL     1      -5.696   2.011 -30.083  1.00  0.00    -0.052 SA
HETATM   10  C   UNL     1      -6.263  -0.049 -33.641  1.00  0.00     0.076 C 
HETATM   11  C   UNL     1      -6.178  -0.920 -34.657  1.00  0.00     0.036 C 
HETATM   12  C   UNL     1      -6.593   1.379 -33.889  1.00  0.00     0.266 C 
HETATM   13  O   UNL     1      -6.946   1.817 -34.975  1.00  0.00    -0.266 OA
BRANCH  11  14
HETATM   14  C   UNL     1      -5.778  -2.334 -34.622  1.00  0.00    -0.035 A 
HETATM   15  C   UNL     1      -4.484  -2.654 -34.189  1.00  0.00     0.011 A 
HETATM   16  C   UNL     1      -4.083  -3.987 -34.066  1.00  0.00     0.001 A 
HETATM   17  C   UNL     1      -4.974  -5.014 -34.371  1.00  0.00     0.000 A 
HETATM   18  C   UNL     1      -6.268  -4.709 -34.787  1.00  0.00     0.001 A 
HETATM   19  C   UNL     1      -6.671  -3.377 -34.900  1.00  0.00     0.011 A 
ENDBRANCH  11  14
ENDBRANCH   5   6
ENDBRANCH   4   5
ENDBRANCH   3   4
ENDBRANCH   2   3
ENDBRANCH   1   2
BRANCH   1  20
HETATM   20  C   UNL     1      -2.175   7.293 -33.107  1.00  0.00     0.222 C 
HETATM   21  N   UNL     1      -1.596   7.977 -32.079  1.00  0.00    -0.320 N 
HETATM   22  H   UNL     1      -0.899   8.639 -32.425  1.00  0.00     0.169 HD
HETATM   23  O   UNL     1      -1.768   7.549 -34.247  1.00  0.00    -0.273 OA
BRANCH  21  24
HETATM   24  C   UNL     1      -1.752   7.974 -30.702  1.00  0.00     0.093 A 
HETATM   25  S   UNL     1      -2.833   9.004 -29.905  1.00  0.00    -0.075 SA
HETATM   26  C   UNL     1      -2.365   8.456 -28.378  1.00  0.00    -0.008 A 
HETATM   27  C   UNL     1      -1.420   7.448 -28.437  1.00  0.00    -0.026 A 
HETATM   28  C   UNL     1      -2.950   9.040 -27.129  1.00  0.00     0.047 C 
HETATM   29  C   UNL     1      -0.823   6.881 -27.175  1.00  0.00     0.041 C 
HETATM   30  C   UNL     1      -1.063   7.148 -29.813  1.00  0.00     0.072 A 
HETATM   31  C   UNL     1      -1.632   7.253 -25.921  1.00  0.00     0.005 C 
HETATM   32  C   UNL     1      -2.054   8.726 -25.926  1.00  0.00     0.005 C 
BRANCH  30  33
HETATM   33  C   UNL     1      -0.094   6.164 -30.300  1.00  0.00     0.252 C 
HETATM   34  N   UNL     1      -0.322   4.862 -29.968  1.00  0.00    -0.366 N 
HETATM   35  H   UNL     1      -1.251   4.564 -29.709  1.00  0.00     0.159 HD
HETATM   36  H   UNL     1       0.258   4.188 -30.450  1.00  0.00     0.159 HD
HETATM   37  O   UNL     1       0.839   6.453 -31.044  1.00  0.00    -0.268 OA
ENDBRANCH  30  33
ENDBRANCH  21  24
ENDBRANCH   1  20
TORSDOF 9
ENDMDL
MODEL 6
REMARK VINA RESULT:      -8.7      2.286     10.091
REMARK  9 active torsions:
REMARK  status: ('A' for Active; 'I' for Inactive)
REMARK    1  A    between atoms: C_4  and  C_5 
REMARK    2  A    between atoms: N_10  and  C_11 
REMARK    3  A    between atoms: C_11  and  C_12 
REMARK    4  A    between atoms: C_12  and  C_13 
REMARK    5  A    between atoms: C_13  and  C_14 
REMARK    6  A    between atoms: C_14  and  C_15 
REMARK    7  A    between atoms: C_15  and  C_16 
REMARK       I    between atoms: C_16  and  N_17 
REMARK    8  A    between atoms: N_17  and  C_18 
REMARK    9  A    between atoms: C_26  and  C_27 
REMARK       I    between atoms: C_27  and  N_28 
ROOT
HETATM    1  C   UNL     1      -8.290   3.739 -32.190  1.00  0.00     0.103 C 
ENDROOT
BRANCH   1   2
HETATM    2  C   UNL     1      -7.118   4.668 -31.860  1.00  0.00     0.009 C 
BRANCH   2   3
HETATM    3  C   UNL     1      -5.774   3.933 -31.805  1.00  0.00     0.002 C 
BRANCH   3   4
HETATM    4  C   UNL     1      -4.919   4.219 -33.040  1.00  0.00     0.020 C 
BRANCH   4   5
HETATM    5  C   UNL     1      -4.746   5.717 -33.324  1.00  0.00     0.134 C 
BRANCH   5   6
HETATM    6  N   UNL     1      -3.531   6.226 -32.685  1.00  0.00    -0.298 N 
HETATM    7  C   UNL     1      -2.252   6.059 -33.176  1.00  0.00     0.148 C 
HETATM    8  S   UNL     1      -1.086   6.707 -32.029  1.00  0.00    -0.055 SA
HETATM    9  S   UNL     1      -1.778   5.356 -34.613  1.00  0.00    -0.052 SA
HETATM   10  C   UNL     1      -2.291   7.047 -30.857  1.00  0.00     0.076 C 
HETATM   11  C   UNL     1      -2.147   7.416 -29.576  1.00  0.00     0.036 C 
HETATM   12  C   UNL     1      -3.641   6.814 -31.436  1.00  0.00     0.266 C 
HETATM   13  O   UNL     1      -4.684   7.075 -30.854  1.00  0.00    -0.266 OA
BRANCH  11  14
HETATM   14  C   UNL     1      -0.908   7.601 -28.808  1.00  0.00    -0.035 A 
HETATM   15  C   UNL     1      -0.618   8.874 -28.299  1.00  0.00     0.011 A 
HETATM   16  C   UNL     1       0.508   9.082 -27.500  1.00  0.00     0.001 A 
HETATM   17  C   UNL     1       1.354   8.018 -27.196  1.00  0.00     0.000 A 
HETATM   18  C   UNL     1       1.068   6.744 -27.682  1.00  0.00     0.001 A 
HETATM   19  C   UNL     1      -0.064   6.535 -28.473  1.00  0.00     0.011 A 
ENDBRANCH  11  14
ENDBRANCH   5   6
ENDBRANCH   4   5
ENDBRANCH   3   4
ENDBRANCH   2   3
ENDBRANCH   1   2
BRANCH   1  20
HETATM   20  C   UNL     1      -8.790   2.933 -31.006  1.00  0.00     0.222 C 
HETATM   21  N   UNL     1      -8.459   1.623 -30.819  1.00  0.00    -0.320 N 
HETATM   22  H   UNL     1      -8.893   1.251 -29.973  1.00  0.00     0.169 HD
HETATM   23  O   UNL     1      -9.511   3.454 -30.146  1.00  0.00    -0.273 OA
BRANCH  21  24
HETATM   24  C   UNL     1      -7.688   0.708 -31.519  1.00  0.00     0.093 A 
HETATM   25  S   UNL     1      -6.142   0.242 -31.012  1.00  0.00    -0.075 SA
HETATM   26  C   UNL     1      -5.901  -0.742 -32.364  1.00  0.00    -0.008 A 
HETATM   27  C   UNL     1      -7.001  -0.781 -33.201  1.00  0.00    -0.026 A 
HETATM   28  C   UNL     1      -4.610  -1.471 -32.575  1.00  0.00     0.047 C 
HETATM   29  C   UNL     1      -6.951  -1.546 -34.497  1.00  0.00     0.041 C 
HETATM   30  C   UNL     1      -8.069   0.066 -32.698  1.00  0.00     0.072 A 
HETATM   31  C   UNL     1      -5.765  -2.524 -34.561  1.00  0.00     0.005 C 
HETATM   32  C   UNL     1      -4.470  -1.890 -34.043  1.00  0.00     0.005 C 
BRANCH  30  33
HETATM   33  C   UNL     1      -9.383   0.313 -33.296  1.00  0.00     0.252 C 
HETATM   34  N   UNL     1     -10.450  -0.293 -32.701  1.00  0.00    -0.366 N 
HETATM   35  H   UNL     1     -10.386  -0.597 -31.740  1.00  0.00     0.159 HD
HETATM   36  H   UNL     1     -11.357   0.022 -33.023  1.00  0.00     0.159 HD
HETATM   37  O   UNL     1      -9.560   1.088 -34.230  1.00  0.00    -0.268 OA
ENDBRANCH  30  33
ENDBRANCH  21  24
ENDBRANCH   1  20
TORSDOF 9
ENDMDL
MODEL 7
REMARK VINA RESULT:      -8.5      2.563     10.505
REMARK  9 active torsions:
REMARK  status: ('A' for Active; 'I' for Inactive)
REMARK    1  A    between atoms: C_4  and  C_5 
REMARK    2  A    between atoms: N_10  and  C_11 
REMARK    3  A    between atoms: C_11  and  C_12 
REMARK    4  A    between atoms: C_12  and  C_13 
REMARK    5  A    between atoms: C_13  and  C_14 
REMARK    6  A    between atoms: C_14  and  C_15 
REMARK    7  A    between atoms: C_15  and  C_16 
REMARK       I    between atoms: C_16  and  N_17 
REMARK    8  A    between atoms: N_17  and  C_18 
REMARK    9  A    between atoms: C_26  and  C_27 
REMARK       I    between atoms: C_27  and  N_28 
ROOT
HETATM    1  C   UNL     1      -4.232   4.850 -34.562  1.00  0.00     0.103 C 
ENDROOT
BRANCH   1   2
HETATM    2  C   UNL     1      -2.781   5.151 -34.176  1.00  0.00     0.009 C 
BRANCH   2   3
HETATM    3  C   UNL     1      -2.478   6.654 -34.128  1.00  0.00     0.002 C 
BRANCH   3   4
HETATM    4  C   UNL     1      -1.883   7.070 -32.783  1.00  0.00     0.020 C 
BRANCH   4   5
HETATM    5  C   UNL     1      -1.916   5.952 -31.733  1.00  0.00     0.134 C 
BRANCH   5   6
HETATM    6  N   UNL     1      -1.587   6.481 -30.407  1.00  0.00    -0.298 N 
HETATM    7  C   UNL     1      -2.508   6.962 -29.500  1.00  0.00     0.148 C 
HETATM    8  S   UNL     1      -1.672   7.620 -28.099  1.00  0.00    -0.055 SA
HETATM    9  S   UNL     1      -4.172   6.978 -29.622  1.00  0.00    -0.052 SA
HETATM   10  C   UNL     1      -0.124   7.388 -28.798  1.00  0.00     0.076 C 
HETATM   11  C   UNL     1       1.070   7.830 -28.380  1.00  0.00     0.036 C 
HETATM   12  C   UNL     1      -0.252   6.627 -30.069  1.00  0.00     0.266 C 
HETATM   13  O   UNL     1       0.703   6.234 -30.725  1.00  0.00    -0.266 OA
BRANCH  11  14
HETATM   14  C   UNL     1       1.381   8.669 -27.214  1.00  0.00    -0.035 A 
HETATM   15  C   UNL     1       0.883   9.978 -27.177  1.00  0.00     0.011 A 
HETATM   16  C   UNL     1       1.088  10.787 -26.057  1.00  0.00     0.001 A 
HETATM   17  C   UNL     1       1.788  10.293 -24.959  1.00  0.00     0.000 A 
HETATM   18  C   UNL     1       2.274   8.988 -24.976  1.00  0.00     0.001 A 
HETATM   19  C   UNL     1       2.061   8.176 -26.092  1.00  0.00     0.011 A 
ENDBRANCH  11  14
ENDBRANCH   5   6
ENDBRANCH   4   5
ENDBRANCH   3   4
ENDBRANCH   2   3
ENDBRANCH   1   2
BRANCH   1  20
HETATM   20  C   UNL     1      -5.205   4.912 -33.400  1.00  0.00     0.222 C 
HETATM   21  N   UNL     1      -5.883   3.817 -32.954  1.00  0.00    -0.320 N 
HETATM   22  H   UNL     1      -6.493   4.056 -32.171  1.00  0.00     0.169 HD
HETATM   23  O   UNL     1      -5.403   5.974 -32.798  1.00  0.00    -0.273 OA
BRANCH  21  24
HETATM   24  C   UNL     1      -5.931   2.484 -33.333  1.00  0.00     0.093 A 
HETATM   25  S   UNL     1      -7.018   1.904 -34.492  1.00  0.00    -0.075 SA
HETATM   26  C   UNL     1      -6.507   0.306 -34.299  1.00  0.00    -0.008 A 
HETATM   27  C   UNL     1      -5.470   0.182 -33.393  1.00  0.00    -0.026 A 
HETATM   28  C   UNL     1      -7.148  -0.814 -35.059  1.00  0.00     0.047 C 
HETATM   29  C   UNL     1      -4.926  -1.176 -33.029  1.00  0.00     0.041 C 
HETATM   30  C   UNL     1      -5.114   1.472 -32.827  1.00  0.00     0.072 A 
HETATM   31  C   UNL     1      -5.364  -2.270 -34.018  1.00  0.00     0.005 C 
HETATM   32  C   UNL     1      -6.847  -2.155 -34.382  1.00  0.00     0.005 C 
BRANCH  30  33
HETATM   33  C   UNL     1      -4.086   1.767 -31.826  1.00  0.00     0.252 C 
HETATM   34  N   UNL     1      -4.262   1.221 -30.588  1.00  0.00    -0.366 N 
HETATM   35  H   UNL     1      -4.855   0.413 -30.474  1.00  0.00     0.159 HD
HETATM   36  H   UNL     1      -3.465   1.297 -29.969  1.00  0.00     0.159 HD
HETATM   37  O   UNL     1      -3.064   2.396 -32.079  1.00  0.00    -0.268 OA
ENDBRANCH  30  33
ENDBRANCH  21  24
ENDBRANCH   1  20
TORSDOF 9
ENDMDL
MODEL 8
REMARK VINA RESULT:      -8.3      3.367      5.122
REMARK  9 active torsions:
REMARK  status: ('A' for Active; 'I' for Inactive)
REMARK    1  A    between atoms: C_4  and  C_5 
REMARK    2  A    between atoms: N_10  and  C_11 
REMARK    3  A    between atoms: C_11  and  C_12 
REMARK    4  A    between atoms: C_12  and  C_13 
REMARK    5  A    between atoms: C_13  and  C_14 
REMARK    6  A    between atoms: C_14  and  C_15 
REMARK    7  A    between atoms: C_15  and  C_16 
REMARK       I    between atoms: C_16  and  N_17 
REMARK    8  A    between atoms: N_17  and  C_18 
REMARK    9  A    between atoms: C_26  and  C_27 
REMARK       I    between atoms: C_27  and  N_28 
ROOT
HETATM    1  C   UNL     1       0.286   7.053 -29.897  1.00  0.00     0.103 C 
ENDROOT
BRANCH   1   2
HETATM    2  C   UNL     1       0.471   6.693 -31.375  1.00  0.00     0.009 C 
BRANCH   2   3
HETATM    3  C   UNL     1      -0.857   6.594 -32.134  1.00  0.00     0.002 C 
BRANCH   3   4
HETATM    4  C   UNL     1      -1.241   5.143 -32.419  1.00  0.00     0.020 C 
BRANCH   4   5
HETATM    5  C   UNL     1      -2.154   4.534 -31.346  1.00  0.00     0.134 C 
BRANCH   5   6
HETATM    6  N   UNL     1      -3.455   4.179 -31.917  1.00  0.00    -0.298 N 
HETATM    7  C   UNL     1      -4.527   5.040 -32.031  1.00  0.00     0.148 C 
HETATM    8  S   UNL     1      -5.926   4.167 -32.644  1.00  0.00    -0.055 SA
HETATM    9  S   UNL     1      -4.595   6.665 -31.660  1.00  0.00    -0.052 SA
HETATM   10  C   UNL     1      -5.119   2.655 -32.595  1.00  0.00     0.076 C 
HETATM   11  C   UNL     1      -5.619   1.422 -32.759  1.00  0.00     0.036 C 
HETATM   12  C   UNL     1      -3.684   2.858 -32.262  1.00  0.00     0.266 C 
HETATM   13  O   UNL     1      -2.854   1.960 -32.261  1.00  0.00    -0.266 OA
BRANCH  11  14
HETATM   14  C   UNL     1      -7.012   1.021 -32.996  1.00  0.00    -0.035 A 
HETATM   15  C   UNL     1      -7.838   0.776 -31.890  1.00  0.00     0.011 A 
HETATM   16  C   UNL     1      -9.189   0.467 -32.065  1.00  0.00     0.001 A 
HETATM   17  C   UNL     1      -9.730   0.403 -33.346  1.00  0.00     0.000 A 
HETATM   18  C   UNL     1      -8.924   0.660 -34.453  1.00  0.00     0.001 A 
HETATM   19  C   UNL     1      -7.576   0.979 -34.278  1.00  0.00     0.011 A 
ENDBRANCH  11  14
ENDBRANCH   5   6
ENDBRANCH   4   5
ENDBRANCH   3   4
ENDBRANCH   2   3
ENDBRANCH   1   2
BRANCH   1  20
HETATM   20  C   UNL     1       0.436   5.875 -28.953  1.00  0.00     0.222 C 
HETATM   21  N   UNL     1      -0.006   5.910 -27.663  1.00  0.00    -0.320 N 
HETATM   22  H   UNL     1       0.189   5.029 -27.185  1.00  0.00     0.169 HD
HETATM   23  O   UNL     1       0.957   4.820 -29.336  1.00  0.00    -0.273 OA
BRANCH  21  24
HETATM   24  C   UNL     1      -0.636   6.863 -26.879  1.00  0.00     0.093 A 
HETATM   25  S   UNL     1      -2.290   6.804 -26.526  1.00  0.00    -0.075 SA
HETATM   26  C   UNL     1      -2.247   8.260 -25.671  1.00  0.00    -0.008 A 
HETATM   27  C   UNL     1      -0.976   8.796 -25.588  1.00  0.00    -0.026 A 
HETATM   28  C   UNL     1      -3.491   8.855 -25.085  1.00  0.00     0.047 C 
HETATM   29  C   UNL     1      -0.747  10.130 -24.927  1.00  0.00     0.041 C 
HETATM   30  C   UNL     1      -0.013   7.965 -26.291  1.00  0.00     0.072 A 
HETATM   31  C   UNL     1      -1.945  10.580 -24.074  1.00  0.00     0.005 C 
HETATM   32  C   UNL     1      -3.279  10.343 -24.789  1.00  0.00     0.005 C 
BRANCH  30  33
HETATM   33  C   UNL     1       1.425   8.189 -26.454  1.00  0.00     0.252 C 
HETATM   34  N   UNL     1       2.225   7.822 -25.412  1.00  0.00    -0.366 N 
HETATM   35  H   UNL     1       1.897   7.145 -24.740  1.00  0.00     0.159 HD
HETATM   36  H   UNL     1       3.217   7.830 -25.611  1.00  0.00     0.159 HD
HETATM   37  O   UNL     1       1.925   8.604 -27.495  1.00  0.00    -0.268 OA
ENDBRANCH  30  33
ENDBRANCH  21  24
ENDBRANCH   1  20
TORSDOF 9
ENDMDL
MODEL 9
REMARK VINA RESULT:      -8.2     17.789     20.568
REMARK  9 active torsions:
REMARK  status: ('A' for Active; 'I' for Inactive)
REMARK    1  A    between atoms: C_4  and  C_5 
REMARK    2  A    between atoms: N_10  and  C_11 
REMARK    3  A    between atoms: C_11  and  C_12 
REMARK    4  A    between atoms: C_12  and  C_13 
REMARK    5  A    between atoms: C_13  and  C_14 
REMARK    6  A    between atoms: C_14  and  C_15 
REMARK    7  A    between atoms: C_15  and  C_16 
REMARK       I    between atoms: C_16  and  N_17 
REMARK    8  A    between atoms: N_17  and  C_18 
REMARK    9  A    between atoms: C_26  and  C_27 
REMARK       I    between atoms: C_27  and  N_28 
ROOT
HETATM    1  C   UNL     1      -2.784 -16.941 -41.022  1.00  0.00     0.103 C 
ENDROOT
BRANCH   1   2
HETATM    2  C   UNL     1      -1.472 -16.291 -41.471  1.00  0.00     0.009 C 
BRANCH   2   3
HETATM    3  C   UNL     1      -0.490 -16.074 -40.313  1.00  0.00     0.002 C 
BRANCH   3   4
HETATM    4  C   UNL     1      -0.057 -14.612 -40.202  1.00  0.00     0.020 C 
BRANCH   4   5
HETATM    5  C   UNL     1       0.590 -14.272 -38.853  1.00  0.00     0.134 C 
BRANCH   5   6
HETATM    6  N   UNL     1      -0.371 -14.446 -37.762  1.00  0.00    -0.298 N 
HETATM    7  C   UNL     1      -0.370 -15.499 -36.872  1.00  0.00     0.148 C 
HETATM    8  S   UNL     1      -1.773 -15.385 -35.816  1.00  0.00    -0.055 SA
HETATM    9  S   UNL     1       0.732 -16.745 -36.741  1.00  0.00    -0.052 SA
HETATM   10  C   UNL     1      -2.416 -14.041 -36.664  1.00  0.00     0.076 C 
HETATM   11  C   UNL     1      -3.621 -13.465 -36.552  1.00  0.00     0.036 C 
HETATM   12  C   UNL     1      -1.436 -13.565 -37.676  1.00  0.00     0.266 C 
HETATM   13  O   UNL     1      -1.593 -12.557 -38.352  1.00  0.00    -0.266 OA
BRANCH  11  14
HETATM   14  C   UNL     1      -4.745 -13.850 -35.686  1.00  0.00    -0.035 A 
HETATM   15  C   UNL     1      -5.113 -12.990 -34.642  1.00  0.00     0.011 A 
HETATM   16  C   UNL     1      -6.221 -13.276 -33.841  1.00  0.00     0.001 A 
HETATM   17  C   UNL     1      -6.977 -14.422 -34.079  1.00  0.00     0.000 A 
HETATM   18  C   UNL     1      -6.631 -15.276 -35.124  1.00  0.00     0.001 A 
HETATM   19  C   UNL     1      -5.529 -14.985 -35.931  1.00  0.00     0.011 A 
ENDBRANCH  11  14
ENDBRANCH   5   6
ENDBRANCH   4   5
ENDBRANCH   3   4
ENDBRANCH   2   3
ENDBRANCH   1   2
BRANCH   1  20
HETATM   20  C   UNL     1      -3.814 -17.079 -42.127  1.00  0.00     0.222 C 
HETATM   21  N   UNL     1      -5.076 -16.573 -42.020  1.00  0.00    -0.320 N 
HETATM   22  H   UNL     1      -5.623 -16.769 -42.860  1.00  0.00     0.169 HD
HETATM   23  O   UNL     1      -3.529 -17.647 -43.189  1.00  0.00    -0.273 OA
BRANCH  21  24
HETATM   24  C   UNL     1      -5.762 -15.879 -41.036  1.00  0.00     0.093 A 
HETATM   25  S   UNL     1      -7.000 -16.580 -40.120  1.00  0.00    -0.075 SA
HETATM   26  C   UNL     1      -7.322 -15.142 -39.295  1.00  0.00    -0.008 A 
HETATM   27  C   UNL     1      -6.470 -14.115 -39.656  1.00  0.00    -0.026 A 
HETATM   28  C   UNL     1      -8.428 -15.053 -38.289  1.00  0.00     0.047 C 
HETATM   29  C   UNL     1      -6.647 -12.733 -39.082  1.00  0.00     0.041 C 
HETATM   30  C   UNL     1      -5.533 -14.550 -40.678  1.00  0.00     0.072 A 
HETATM   31  C   UNL     1      -7.563 -12.720 -37.847  1.00  0.00     0.005 C 
HETATM   32  C   UNL     1      -8.809 -13.589 -38.046  1.00  0.00     0.005 C 
BRANCH  30  33
HETATM   33  C   UNL     1      -4.486 -13.765 -41.336  1.00  0.00     0.252 C 
HETATM   34  N   UNL     1      -3.504 -13.260 -40.535  1.00  0.00    -0.366 N 
HETATM   35  H   UNL     1      -3.325 -13.677 -39.633  1.00  0.00     0.159 HD
HETATM   36  H   UNL     1      -2.710 -12.869 -41.025  1.00  0.00     0.159 HD
HETATM   37  O   UNL     1      -4.418 -13.622 -42.552  1.00  0.00    -0.268 OA
ENDBRANCH  30  33
ENDBRANCH  21  24
ENDBRANCH   1  20
TORSDOF 9
ENDMDL
MODEL 10
REMARK VINA RESULT:      -8.2      1.973      2.421
REMARK  9 active torsions:
REMARK  status: ('A' for Active; 'I' for Inactive)
REMARK    1  A    between atoms: C_4  and  C_5 
REMARK    2  A    between atoms: N_10  and  C_11 
REMARK    3  A    between atoms: C_11  and  C_12 
REMARK    4  A    between atoms: C_12  and  C_13 
REMARK    5  A    between atoms: C_13  and  C_14 
REMARK    6  A    between atoms: C_14  and  C_15 
REMARK    7  A    between atoms: C_15  and  C_16 
REMARK       I    between atoms: C_16  and  N_17 
REMARK    8  A    between atoms: N_17  and  C_18 
REMARK    9  A    between atoms: C_26  and  C_27 
REMARK       I    between atoms: C_27  and  N_28 
ROOT
HETATM    1  C   UNL     1      -4.694   6.207 -31.769  1.00  0.00     0.103 C 
ENDROOT
BRANCH   1   2
HETATM    2  C   UNL     1      -5.796   5.147 -31.842  1.00  0.00     0.009 C 
BRANCH   2   3
HETATM    3  C   UNL     1      -7.005   5.484 -30.962  1.00  0.00     0.002 C 
BRANCH   3   4
HETATM    4  C   UNL     1      -7.363   4.333 -30.022  1.00  0.00     0.020 C 
BRANCH   4   5
HETATM    5  C   UNL     1      -8.472   3.425 -30.569  1.00  0.00     0.134 C 
BRANCH   5   6
HETATM    6  N   UNL     1      -7.962   2.584 -31.654  1.00  0.00    -0.298 N 
HETATM    7  C   UNL     1      -8.384   2.647 -32.966  1.00  0.00     0.148 C 
HETATM    8  S   UNL     1      -7.611   1.372 -33.900  1.00  0.00    -0.055 SA
HETATM    9  S   UNL     1      -9.462   3.717 -33.657  1.00  0.00    -0.052 SA
HETATM   10  C   UNL     1      -6.866   0.685 -32.517  1.00  0.00     0.076 C 
HETATM   11  C   UNL     1      -6.217  -0.482 -32.395  1.00  0.00     0.036 C 
HETATM   12  C   UNL     1      -7.081   1.564 -31.337  1.00  0.00     0.266 C 
HETATM   13  O   UNL     1      -6.572   1.367 -30.242  1.00  0.00    -0.266 OA
BRANCH  11  14
HETATM   14  C   UNL     1      -5.990  -1.516 -33.414  1.00  0.00    -0.035 A 
HETATM   15  C   UNL     1      -4.673  -1.896 -33.703  1.00  0.00     0.011 A 
HETATM   16  C   UNL     1      -4.411  -2.928 -34.608  1.00  0.00     0.001 A 
HETATM   17  C   UNL     1      -5.464  -3.594 -35.230  1.00  0.00     0.000 A 
HETATM   18  C   UNL     1      -6.779  -3.236 -34.939  1.00  0.00     0.001 A 
HETATM   19  C   UNL     1      -7.041  -2.212 -34.027  1.00  0.00     0.011 A 
ENDBRANCH  11  14
ENDBRANCH   5   6
ENDBRANCH   4   5
ENDBRANCH   3   4
ENDBRANCH   2   3
ENDBRANCH   1   2
BRANCH   1  20
HETATM   20  C   UNL     1      -3.681   6.123 -32.895  1.00  0.00     0.222 C 
HETATM   21  N   UNL     1      -2.337   6.203 -32.679  1.00  0.00    -0.320 N 
HETATM   22  H   UNL     1      -1.819   6.131 -33.556  1.00  0.00     0.169 HD
HETATM   23  O   UNL     1      -4.049   5.956 -34.064  1.00  0.00    -0.273 OA
BRANCH  21  24
HETATM   24  C   UNL     1      -1.543   6.367 -31.554  1.00  0.00     0.093 A 
HETATM   25  S   UNL     1      -0.591   5.120 -30.920  1.00  0.00    -0.075 SA
HETATM   26  C   UNL     1      -0.068   6.063 -29.620  1.00  0.00    -0.008 A 
HETATM   27  C   UNL     1      -0.560   7.354 -29.663  1.00  0.00    -0.026 A 
HETATM   28  C   UNL     1       0.834   5.501 -28.565  1.00  0.00     0.047 C 
HETATM   29  C   UNL     1      -0.265   8.325 -28.550  1.00  0.00     0.041 C 
HETATM   30  C   UNL     1      -1.424   7.545 -30.816  1.00  0.00     0.072 A 
HETATM   31  C   UNL     1       0.888   7.855 -27.647  1.00  0.00     0.005 C 
HETATM   32  C   UNL     1       0.777   6.367 -27.302  1.00  0.00     0.005 C 
BRANCH  30  33
HETATM   33  C   UNL     1      -2.150   8.755 -31.209  1.00  0.00     0.252 C 
HETATM   34  N   UNL     1      -3.016   9.276 -30.293  1.00  0.00    -0.366 N 
HETATM   35  H   UNL     1      -2.907   9.052 -29.314  1.00  0.00     0.159 HD
HETATM   36  H   UNL     1      -3.376  10.194 -30.517  1.00  0.00     0.159 HD
HETATM   37  O   UNL     1      -1.950   9.344 -32.267  1.00  0.00    -0.268 OA
ENDBRANCH  30  33
ENDBRANCH  21  24
ENDBRANCH   1  20
TORSDOF 9
ENDMDL
