MODEL 1
REMARK VINA RESULT:      -8.9      0.000      0.000
REMARK  9 active torsions:
REMARK  status: ('A' for Active; 'I' for Inactive)
REMARK    1  A    between atoms: C_3  and  C_4 
REMARK       I    between atoms: C_4  and  N_5 
REMARK    2  A    between atoms: N_5  and  C_6 
REMARK    3  A    between atoms: C_6  and  C_7 
REMARK    4  A    between atoms: C_14  and  N_15 
REMARK       I    between atoms: N_15  and  C_16 
REMARK    5  A    between atoms: C_16  and  C_17 
REMARK       I    between atoms: C_17  and  N_18 
REMARK    6  A    between atoms: N_18  and  C_19 
REMARK    7  A    between atoms: C_19  and  C_20 
REMARK    8  A    between atoms: C_20  and  C_21 
REMARK    9  A    between atoms: C_24  and  O_25 
ROOT
HETATM    1  N   UNL     1      -2.875   3.344 -32.459  1.00  0.00    -0.318 N 
HETATM    2  C   UNL     1      -3.799   2.991 -31.498  1.00  0.00     0.313 C 
HETATM    3  O   UNL     1      -4.416   3.719 -30.731  1.00  0.00    -0.262 OA
HETATM    4  H   UNL     1      -2.704   2.628 -33.161  1.00  0.00     0.169 HD
ENDROOT
BRANCH   1   5
HETATM    5  C   UNL     1      -2.376   4.642 -32.679  1.00  0.00     0.051 A 
HETATM    6  C   UNL     1      -2.949   5.603 -33.534  1.00  0.00     0.058 A 
HETATM    7  C   UNL     1      -2.300   6.837 -33.728  1.00  0.00     0.019 A 
HETATM    8  C   UNL     1      -1.105   7.121 -33.068  1.00  0.00     0.001 A 
HETATM    9  C   UNL     1      -0.567   6.195 -32.181  1.00  0.00     0.002 A 
HETATM   10  C   UNL     1      -1.206   4.970 -31.977  1.00  0.00     0.030 A 
BRANCH   6  11
HETATM   11  C   UNL     1      -4.338   5.473 -34.057  1.00  0.00     0.254 C 
HETATM   12  N   UNL     1      -5.348   5.599 -33.125  1.00  0.00    -0.353 N 
HETATM   13  H   UNL     1      -5.129   5.991 -32.219  1.00  0.00     0.163 HD
HETATM   14  O   UNL     1      -4.531   5.217 -35.241  1.00  0.00    -0.268 OA
BRANCH  12  15
HETATM   15  C   UNL     1      -6.739   5.548 -33.519  1.00  0.00     0.162 C 
BRANCH  15  16
HETATM   16  C   UNL     1      -7.464   4.407 -32.863  1.00  0.00    -0.023 A 
HETATM   17  C   UNL     1      -7.821   3.276 -33.591  1.00  0.00     0.125 A 
HETATM   18  N   UNL     1      -8.430   2.189 -33.061  1.00  0.00    -0.273 NA
HETATM   19  C   UNL     1      -8.682   2.221 -31.736  1.00  0.00     0.116 A 
HETATM   20  C   UNL     1      -8.357   3.288 -30.917  1.00  0.00     0.020 A 
HETATM   21  C   UNL     1      -7.734   4.393 -31.491  1.00  0.00     0.012 A 
ENDBRANCH  15  16
ENDBRANCH  12  15
ENDBRANCH   6  11
ENDBRANCH   1   5
BRANCH   2  22
HETATM   22  C   UNL     1      -4.141   1.484 -31.548  1.00  0.00     0.309 C 
HETATM   23  N   UNL     1      -5.296   1.201 -32.241  1.00  0.00    -0.353 N 
HETATM   24  H   UNL     1      -5.826   2.000 -32.579  1.00  0.00     0.162 HD
HETATM   25  O   UNL     1      -3.391   0.669 -31.030  1.00  0.00    -0.262 OA
BRANCH  23  26
HETATM   26  C   UNL     1      -5.853  -0.134 -32.325  1.00  0.00     0.128 C 
BRANCH  26  27
HETATM   27  C   UNL     1      -6.120  -0.533 -33.776  1.00  0.00     0.058 C 
BRANCH  27  28
HETATM   28  C   UNL     1      -5.762  -1.972 -34.051  1.00  0.00    -0.057 A 
HETATM   29  C   UNL     1      -6.718  -2.851 -34.582  1.00  0.00     0.010 A 
HETATM   30  C   UNL     1      -6.390  -4.183 -34.843  1.00  0.00     0.037 A 
HETATM   31  C   UNL     1      -5.105  -4.638 -34.564  1.00  0.00     0.065 A 
HETATM   32  C   UNL     1      -4.150  -3.786 -34.025  1.00  0.00     0.037 A 
HETATM   33  C   UNL     1      -4.476  -2.453 -33.767  1.00  0.00     0.010 A 
BRANCH  31  34
HETATM   34  O   UNL     1      -4.740  -5.929 -34.809  1.00  0.00    -0.361 OA
HETATM   35  H   UNL     1      -5.455  -6.513 -34.505  1.00  0.00     0.217 HD
ENDBRANCH  31  34
ENDBRANCH  27  28
ENDBRANCH  26  27
ENDBRANCH  23  26
ENDBRANCH   2  22
TORSDOF 9
ENDMDL
MODEL 2
REMARK VINA RESULT:      -8.8      2.101      7.763
REMARK  9 active torsions:
REMARK  status: ('A' for Active; 'I' for Inactive)
REMARK    1  A    between atoms: C_3  and  C_4 
REMARK       I    between atoms: C_4  and  N_5 
REMARK    2  A    between atoms: N_5  and  C_6 
REMARK    3  A    between atoms: C_6  and  C_7 
REMARK    4  A    between atoms: C_14  and  N_15 
REMARK       I    between atoms: N_15  and  C_16 
REMARK    5  A    between atoms: C_16  and  C_17 
REMARK       I    between atoms: C_17  and  N_18 
REMARK    6  A    between atoms: N_18  and  C_19 
REMARK    7  A    between atoms: C_19  and  C_20 
REMARK    8  A    between atoms: C_20  and  C_21 
REMARK    9  A    between atoms: C_24  and  O_25 
ROOT
HETATM    1  N   UNL     1      -4.239  -1.177 -33.239  1.00  0.00    -0.318 N 
HETATM    2  C   UNL     1      -4.625  -0.516 -32.092  1.00  0.00     0.313 C 
HETATM    3  O   UNL     1      -5.574  -0.758 -31.357  1.00  0.00    -0.262 OA
HETATM    4  H   UNL     1      -3.281  -0.994 -33.527  1.00  0.00     0.169 HD
ENDROOT
BRANCH   1   5
HETATM    5  C   UNL     1      -4.944  -2.228 -33.856  1.00  0.00     0.051 A 
HETATM    6  C   UNL     1      -6.277  -2.164 -34.306  1.00  0.00     0.058 A 
HETATM    7  C   UNL     1      -6.891  -3.317 -34.830  1.00  0.00     0.019 A 
HETATM    8  C   UNL     1      -6.185  -4.516 -34.923  1.00  0.00     0.001 A 
HETATM    9  C   UNL     1      -4.851  -4.567 -34.530  1.00  0.00     0.002 A 
HETATM   10  C   UNL     1      -4.232  -3.427 -34.015  1.00  0.00     0.030 A 
BRANCH   6  11
HETATM   11  C   UNL     1      -6.995  -0.870 -34.479  1.00  0.00     0.254 C 
HETATM   12  N   UNL     1      -7.902  -0.546 -33.490  1.00  0.00    -0.353 N 
HETATM   13  H   UNL     1      -7.869  -1.051 -32.615  1.00  0.00     0.163 HD
HETATM   14  O   UNL     1      -6.806  -0.188 -35.481  1.00  0.00    -0.268 OA
BRANCH  12  15
HETATM   15  C   UNL     1      -8.620   0.709 -33.517  1.00  0.00     0.162 C 
BRANCH  15  16
HETATM   16  C   UNL     1      -7.941   1.760 -32.687  1.00  0.00    -0.023 A 
HETATM   17  C   UNL     1      -7.195   2.771 -33.286  1.00  0.00     0.125 A 
HETATM   18  N   UNL     1      -6.597   3.780 -32.610  1.00  0.00    -0.273 NA
HETATM   19  C   UNL     1      -6.760   3.794 -31.271  1.00  0.00     0.116 A 
HETATM   20  C   UNL     1      -7.491   2.847 -30.576  1.00  0.00     0.020 A 
HETATM   21  C   UNL     1      -8.093   1.820 -31.298  1.00  0.00     0.012 A 
ENDBRANCH  15  16
ENDBRANCH  12  15
ENDBRANCH   6  11
ENDBRANCH   1   5
BRANCH   2  22
HETATM   22  C   UNL     1      -3.606   0.571 -31.678  1.00  0.00     0.309 C 
HETATM   23  N   UNL     1      -3.950   1.838 -32.090  1.00  0.00    -0.353 N 
HETATM   24  H   UNL     1      -4.782   1.913 -32.669  1.00  0.00     0.162 HD
HETATM   25  O   UNL     1      -2.625   0.268 -31.014  1.00  0.00    -0.262 OA
BRANCH  23  26
HETATM   26  C   UNL     1      -3.088   2.987 -31.896  1.00  0.00     0.128 C 
BRANCH  26  27
HETATM   27  C   UNL     1      -2.979   3.820 -33.173  1.00  0.00     0.058 C 
BRANCH  27  28
HETATM   28  C   UNL     1      -2.690   5.272 -32.888  1.00  0.00    -0.057 A 
HETATM   29  C   UNL     1      -3.623   6.058 -32.197  1.00  0.00     0.010 A 
HETATM   30  C   UNL     1      -3.358   7.402 -31.925  1.00  0.00     0.037 A 
HETATM   31  C   UNL     1      -2.159   7.961 -32.354  1.00  0.00     0.065 A 
HETATM   32  C   UNL     1      -1.228   7.203 -33.052  1.00  0.00     0.037 A 
HETATM   33  C   UNL     1      -1.492   5.858 -33.320  1.00  0.00     0.010 A 
BRANCH  31  34
HETATM   34  O   UNL     1      -1.856   9.268 -32.106  1.00  0.00    -0.361 OA
HETATM   35  H   UNL     1      -2.685   9.772 -32.062  1.00  0.00     0.217 HD
ENDBRANCH  31  34
ENDBRANCH  27  28
ENDBRANCH  26  27
ENDBRANCH  23  26
ENDBRANCH   2  22
TORSDOF 9
ENDMDL
MODEL 3
REMARK VINA RESULT:      -8.7      2.920      5.284
REMARK  9 active torsions:
REMARK  status: ('A' for Active; 'I' for Inactive)
REMARK    1  A    between atoms: C_3  and  C_4 
REMARK       I    between atoms: C_4  and  N_5 
REMARK    2  A    between atoms: N_5  and  C_6 
REMARK    3  A    between atoms: C_6  and  C_7 
REMARK    4  A    between atoms: C_14  and  N_15 
REMARK       I    between atoms: N_15  and  C_16 
REMARK    5  A    between atoms: C_16  and  C_17 
REMARK       I    between atoms: C_17  and  N_18 
REMARK    6  A    between atoms: N_18  and  C_19 
REMARK    7  A    between atoms: C_19  and  C_20 
REMARK    8  A    between atoms: C_20  and  C_21 
REMARK    9  A    between atoms: C_24  and  O_25 
ROOT
HETATM    1  N   UNL     1      -3.797   4.017 -32.775  1.00  0.00    -0.318 N 
HETATM    2  C   UNL     1      -3.605   2.904 -31.984  1.00  0.00     0.313 C 
HETATM    3  O   UNL     1      -2.593   2.562 -31.385  1.00  0.00    -0.262 OA
HETATM    4  H   UNL     1      -4.773   4.254 -32.937  1.00  0.00     0.169 HD
ENDROOT
BRANCH   1   5
HETATM    5  C   UNL     1      -2.805   4.949 -33.136  1.00  0.00     0.051 A 
HETATM    6  C   UNL     1      -2.424   6.071 -32.376  1.00  0.00     0.058 A 
HETATM    7  C   UNL     1      -1.474   6.972 -32.893  1.00  0.00     0.019 A 
HETATM    8  C   UNL     1      -0.896   6.753 -34.143  1.00  0.00     0.001 A 
HETATM    9  C   UNL     1      -1.231   5.615 -34.871  1.00  0.00     0.002 A 
HETATM   10  C   UNL     1      -2.167   4.712 -34.363  1.00  0.00     0.030 A 
BRANCH   6  11
HETATM   11  C   UNL     1      -2.798   6.224 -30.942  1.00  0.00     0.254 C 
HETATM   12  N   UNL     1      -1.785   6.621 -30.093  1.00  0.00    -0.353 N 
HETATM   13  H   UNL     1      -0.938   7.005 -30.492  1.00  0.00     0.163 HD
HETATM   14  O   UNL     1      -3.934   5.951 -30.567  1.00  0.00    -0.268 OA
BRANCH  12  15
HETATM   15  C   UNL     1      -2.036   6.858 -28.689  1.00  0.00     0.162 C 
BRANCH  15  16
HETATM   16  C   UNL     1      -0.788   7.265 -27.959  1.00  0.00    -0.023 A 
HETATM   17  C   UNL     1      -0.519   6.781 -26.682  1.00  0.00     0.125 A 
HETATM   18  N   UNL     1       0.605   7.060 -25.982  1.00  0.00    -0.273 NA
HETATM   19  C   UNL     1       1.517   7.850 -26.588  1.00  0.00     0.116 A 
HETATM   20  C   UNL     1       1.357   8.373 -27.859  1.00  0.00     0.020 A 
HETATM   21  C   UNL     1       0.189   8.070 -28.553  1.00  0.00     0.012 A 
ENDBRANCH  15  16
ENDBRANCH  12  15
ENDBRANCH   6  11
ENDBRANCH   1   5
BRANCH   2  22
HETATM   22  C   UNL     1      -4.914   2.110 -31.770  1.00  0.00     0.309 C 
HETATM   23  N   UNL     1      -4.980   0.945 -32.499  1.00  0.00    -0.353 N 
HETATM   24  H   UNL     1      -4.210   0.769 -33.137  1.00  0.00     0.162 HD
HETATM   25  O   UNL     1      -5.756   2.519 -30.983  1.00  0.00    -0.262 OA
BRANCH  23  26
HETATM   26  C   UNL     1      -6.159   0.101 -32.524  1.00  0.00     0.128 C 
BRANCH  26  27
HETATM   27  C   UNL     1      -6.455  -0.393 -33.939  1.00  0.00     0.058 C 
BRANCH  27  28
HETATM   28  C   UNL     1      -6.028  -1.824 -34.148  1.00  0.00    -0.057 A 
HETATM   29  C   UNL     1      -6.960  -2.790 -34.556  1.00  0.00     0.010 A 
HETATM   30  C   UNL     1      -6.568  -4.115 -34.756  1.00  0.00     0.037 A 
HETATM   31  C   UNL     1      -5.242  -4.476 -34.539  1.00  0.00     0.065 A 
HETATM   32  C   UNL     1      -4.308  -3.537 -34.122  1.00  0.00     0.037 A 
HETATM   33  C   UNL     1      -4.699  -2.211 -33.925  1.00  0.00     0.010 A 
BRANCH  31  34
HETATM   34  O   UNL     1      -4.815  -5.757 -34.728  1.00  0.00    -0.361 OA
HETATM   35  H   UNL     1      -4.944  -5.989 -35.663  1.00  0.00     0.217 HD
ENDBRANCH  31  34
ENDBRANCH  27  28
ENDBRANCH  26  27
ENDBRANCH  23  26
ENDBRANCH   2  22
TORSDOF 9
ENDMDL
MODEL 4
REMARK VINA RESULT:      -8.7      2.195      8.076
REMARK  9 active torsions:
REMARK  status: ('A' for Active; 'I' for Inactive)
REMARK    1  A    between atoms: C_3  and  C_4 
REMARK       I    between atoms: C_4  and  N_5 
REMARK    2  A    between atoms: N_5  and  C_6 
REMARK    3  A    between atoms: C_6  and  C_7 
REMARK    4  A    between atoms: C_14  and  N_15 
REMARK       I    between atoms: N_15  and  C_16 
REMARK    5  A    between atoms: C_16  and  C_17 
REMARK       I    between atoms: C_17  and  N_18 
REMARK    6  A    between atoms: N_18  and  C_19 
REMARK    7  A    between atoms: C_19  and  C_20 
REMARK    8  A    between atoms: C_20  and  C_21 
REMARK    9  A    between atoms: C_24  and  O_25 
ROOT
HETATM    1  N   UNL     1      -4.619   4.215 -32.571  1.00  0.00    -0.318 N 
HETATM    2  C   UNL     1      -4.648   4.780 -33.828  1.00  0.00     0.313 C 
HETATM    3  O   UNL     1      -5.582   4.827 -34.619  1.00  0.00    -0.262 OA
HETATM    4  H   UNL     1      -3.850   4.533 -31.986  1.00  0.00     0.169 HD
ENDROOT
BRANCH   1   5
HETATM    5  C   UNL     1      -5.661   3.475 -31.979  1.00  0.00     0.051 A 
HETATM    6  C   UNL     1      -5.834   2.082 -32.084  1.00  0.00     0.058 A 
HETATM    7  C   UNL     1      -6.969   1.477 -31.511  1.00  0.00     0.019 A 
HETATM    8  C   UNL     1      -7.913   2.244 -30.829  1.00  0.00     0.001 A 
HETATM    9  C   UNL     1      -7.715   3.612 -30.678  1.00  0.00     0.002 A 
HETATM   10  C   UNL     1      -6.589   4.221 -31.236  1.00  0.00     0.030 A 
BRANCH   6  11
HETATM   11  C   UNL     1      -4.749   1.180 -32.561  1.00  0.00     0.254 C 
HETATM   12  N   UNL     1      -5.143  -0.083 -32.954  1.00  0.00    -0.353 N 
HETATM   13  H   UNL     1      -6.125  -0.257 -33.122  1.00  0.00     0.163 HD
HETATM   14  O   UNL     1      -3.581   1.554 -32.541  1.00  0.00    -0.268 OA
BRANCH  12  15
HETATM   15  C   UNL     1      -4.190  -1.031 -33.489  1.00  0.00     0.162 C 
BRANCH  15  16
HETATM   16  C   UNL     1      -4.865  -2.268 -34.010  1.00  0.00    -0.023 A 
HETATM   17  C   UNL     1      -4.197  -3.488 -34.034  1.00  0.00     0.125 A 
HETATM   18  N   UNL     1      -4.753  -4.654 -34.441  1.00  0.00    -0.273 NA
HETATM   19  C   UNL     1      -6.044  -4.607 -34.829  1.00  0.00     0.116 A 
HETATM   20  C   UNL     1      -6.805  -3.451 -34.833  1.00  0.00     0.020 A 
HETATM   21  C   UNL     1      -6.205  -2.267 -34.411  1.00  0.00     0.012 A 
ENDBRANCH  15  16
ENDBRANCH  12  15
ENDBRANCH   6  11
ENDBRANCH   1   5
BRANCH   2  22
HETATM   22  C   UNL     1      -3.343   5.542 -34.154  1.00  0.00     0.309 C 
HETATM   23  N   UNL     1      -3.050   6.545 -33.258  1.00  0.00    -0.353 N 
HETATM   24  H   UNL     1      -3.742   6.720 -32.535  1.00  0.00     0.162 HD
HETATM   25  O   UNL     1      -2.662   5.208 -35.113  1.00  0.00    -0.262 OA
BRANCH  23  26
HETATM   26  C   UNL     1      -1.929   7.447 -33.431  1.00  0.00     0.128 C 
BRANCH  26  27
HETATM   27  C   UNL     1      -1.483   8.039 -32.094  1.00  0.00     0.058 C 
BRANCH  27  28
HETATM   28  C   UNL     1      -0.747   7.037 -31.240  1.00  0.00    -0.057 A 
HETATM   29  C   UNL     1      -0.817   7.111 -29.841  1.00  0.00     0.010 A 
HETATM   30  C   UNL     1      -0.141   6.183 -29.046  1.00  0.00     0.037 A 
HETATM   31  C   UNL     1       0.613   5.185 -29.654  1.00  0.00     0.065 A 
HETATM   32  C   UNL     1       0.706   5.103 -31.037  1.00  0.00     0.037 A 
HETATM   33  C   UNL     1       0.027   6.029 -31.832  1.00  0.00     0.010 A 
BRANCH  31  34
HETATM   34  O   UNL     1       1.284   4.254 -28.916  1.00  0.00    -0.361 OA
HETATM   35  H   UNL     1       1.691   3.615 -29.525  1.00  0.00     0.217 HD
ENDBRANCH  31  34
ENDBRANCH  27  28
ENDBRANCH  26  27
ENDBRANCH  23  26
ENDBRANCH   2  22
TORSDOF 9
ENDMDL
MODEL 5
REMARK VINA RESULT:      -8.6      2.089      6.765
REMARK  9 active torsions:
REMARK  status: ('A' for Active; 'I' for Inactive)
REMARK    1  A    between atoms: C_3  and  C_4 
REMARK       I    between atoms: C_4  and  N_5 
REMARK    2  A    between atoms: N_5  and  C_6 
REMARK    3  A    between atoms: C_6  and  C_7 
REMARK    4  A    between atoms: C_14  and  N_15 
REMARK       I    between atoms: N_15  and  C_16 
REMARK    5  A    between atoms: C_16  and  C_17 
REMARK       I    between atoms: C_17  and  N_18 
REMARK    6  A    between atoms: N_18  and  C_19 
REMARK    7  A    between atoms: C_19  and  C_20 
REMARK    8  A    between atoms: C_20  and  C_21 
REMARK    9  A    between atoms: C_24  and  O_25 
ROOT
HETATM    1  N   UNL     1      -4.683  -0.006 -33.020  1.00  0.00    -0.318 N 
HETATM    2  C   UNL     1      -5.065   0.403 -31.760  1.00  0.00     0.313 C 
HETATM    3  O   UNL     1      -5.796  -0.171 -30.962  1.00  0.00    -0.262 OA
HETATM    4  H   UNL     1      -3.863   0.471 -33.386  1.00  0.00     0.169 HD
ENDROOT
BRANCH   1   5
HETATM    5  C   UNL     1      -5.156  -1.151 -33.689  1.00  0.00     0.051 A 
HETATM    6  C   UNL     1      -6.441  -1.299 -34.244  1.00  0.00     0.058 A 
HETATM    7  C   UNL     1      -6.815  -2.532 -34.814  1.00  0.00     0.019 A 
HETATM    8  C   UNL     1      -5.919  -3.599 -34.847  1.00  0.00     0.001 A 
HETATM    9  C   UNL     1      -4.630  -3.436 -34.348  1.00  0.00     0.002 A 
HETATM   10  C   UNL     1      -4.248  -2.216 -33.787  1.00  0.00     0.030 A 
BRANCH   6  11
HETATM   11  C   UNL     1      -7.345  -0.139 -34.478  1.00  0.00     0.254 C 
HETATM   12  N   UNL     1      -8.474  -0.083 -33.687  1.00  0.00    -0.353 N 
HETATM   13  H   UNL     1      -8.520  -0.667 -32.862  1.00  0.00     0.163 HD
HETATM   14  O   UNL     1      -7.095   0.670 -35.366  1.00  0.00    -0.268 OA
BRANCH  12  15
HETATM   15  C   UNL     1      -9.399   1.024 -33.781  1.00  0.00     0.162 C 
BRANCH  15  16
HETATM   16  C   UNL     1      -9.067   2.115 -32.802  1.00  0.00    -0.023 A 
HETATM   17  C   UNL     1      -8.865   3.422 -33.232  1.00  0.00     0.125 A 
HETATM   18  N   UNL     1      -8.613   4.466 -32.408  1.00  0.00    -0.273 NA
HETATM   19  C   UNL     1      -8.575   4.199 -31.085  1.00  0.00     0.116 A 
HETATM   20  C   UNL     1      -8.775   2.939 -30.549  1.00  0.00     0.020 A 
HETATM   21  C   UNL     1      -9.030   1.885 -31.423  1.00  0.00     0.012 A 
ENDBRANCH  15  16
ENDBRANCH  12  15
ENDBRANCH   6  11
ENDBRANCH   1   5
BRANCH   2  22
HETATM   22  C   UNL     1      -4.333   1.692 -31.321  1.00  0.00     0.309 C 
HETATM   23  N   UNL     1      -5.180   2.725 -30.989  1.00  0.00    -0.353 N 
HETATM   24  H   UNL     1      -6.172   2.556 -31.131  1.00  0.00     0.162 HD
HETATM   25  O   UNL     1      -3.112   1.711 -31.261  1.00  0.00    -0.262 OA
BRANCH  23  26
HETATM   26  C   UNL     1      -4.704   4.050 -30.647  1.00  0.00     0.128 C 
BRANCH  26  27
HETATM   27  C   UNL     1      -4.997   5.049 -31.767  1.00  0.00     0.058 C 
BRANCH  27  28
HETATM   28  C   UNL     1      -3.900   5.091 -32.800  1.00  0.00    -0.057 A 
HETATM   29  C   UNL     1      -4.213   5.218 -34.161  1.00  0.00     0.010 A 
HETATM   30  C   UNL     1      -3.200   5.262 -35.122  1.00  0.00     0.037 A 
HETATM   31  C   UNL     1      -1.872   5.171 -34.719  1.00  0.00     0.065 A 
HETATM   32  C   UNL     1      -1.543   5.031 -33.377  1.00  0.00     0.037 A 
HETATM   33  C   UNL     1      -2.555   4.990 -32.416  1.00  0.00     0.010 A 
BRANCH  31  34
HETATM   34  O   UNL     1      -0.852   5.216 -35.622  1.00  0.00    -0.361 OA
HETATM   35  H   UNL     1      -0.324   6.013 -35.450  1.00  0.00     0.217 HD
ENDBRANCH  31  34
ENDBRANCH  27  28
ENDBRANCH  26  27
ENDBRANCH  23  26
ENDBRANCH   2  22
TORSDOF 9
ENDMDL
MODEL 6
REMARK VINA RESULT:      -8.5      2.244      7.365
REMARK  9 active torsions:
REMARK  status: ('A' for Active; 'I' for Inactive)
REMARK    1  A    between atoms: C_3  and  C_4 
REMARK       I    between atoms: C_4  and  N_5 
REMARK    2  A    between atoms: N_5  and  C_6 
REMARK    3  A    between atoms: C_6  and  C_7 
REMARK    4  A    between atoms: C_14  and  N_15 
REMARK       I    between atoms: N_15  and  C_16 
REMARK    5  A    between atoms: C_16  and  C_17 
REMARK       I    between atoms: C_17  and  N_18 
REMARK    6  A    between atoms: N_18  and  C_19 
REMARK    7  A    between atoms: C_19  and  C_20 
REMARK    8  A    between atoms: C_20  and  C_21 
REMARK    9  A    between atoms: C_24  and  O_25 
ROOT
HETATM    1  N   UNL     1      -7.540  -0.583 -33.815  1.00  0.00    -0.318 N 
HETATM    2  C   UNL     1      -7.728   0.475 -34.678  1.00  0.00     0.313 C 
HETATM    3  O   UNL     1      -7.126   0.728 -35.715  1.00  0.00    -0.262 OA
HETATM    4  H   UNL     1      -8.320  -0.755 -33.185  1.00  0.00     0.169 HD
ENDROOT
BRANCH   1   5
HETATM    5  C   UNL     1      -6.521  -1.550 -33.913  1.00  0.00     0.051 A 
HETATM    6  C   UNL     1      -5.230  -1.433 -33.365  1.00  0.00     0.058 A 
HETATM    7  C   UNL     1      -4.277  -2.441 -33.609  1.00  0.00     0.019 A 
HETATM    8  C   UNL     1      -4.606  -3.559 -34.374  1.00  0.00     0.001 A 
HETATM    9  C   UNL     1      -5.898  -3.701 -34.870  1.00  0.00     0.002 A 
HETATM   10  C   UNL     1      -6.853  -2.711 -34.628  1.00  0.00     0.030 A 
BRANCH   6  11
HETATM   11  C   UNL     1      -4.893  -0.412 -32.334  1.00  0.00     0.254 C 
HETATM   12  N   UNL     1      -3.909   0.491 -32.678  1.00  0.00    -0.353 N 
HETATM   13  H   UNL     1      -3.639   0.572 -33.650  1.00  0.00     0.163 HD
HETATM   14  O   UNL     1      -5.441  -0.438 -31.237  1.00  0.00    -0.268 OA
BRANCH  12  15
HETATM   15  C   UNL     1      -3.533   1.564 -31.784  1.00  0.00     0.162 C 
BRANCH  15  16
HETATM   16  C   UNL     1      -3.984   2.903 -32.296  1.00  0.00    -0.023 A 
HETATM   17  C   UNL     1      -3.250   4.054 -32.027  1.00  0.00     0.125 A 
HETATM   18  N   UNL     1      -3.563   5.285 -32.494  1.00  0.00    -0.273 NA
HETATM   19  C   UNL     1      -4.654   5.374 -33.284  1.00  0.00     0.116 A 
HETATM   20  C   UNL     1      -5.446   4.293 -33.626  1.00  0.00     0.020 A 
HETATM   21  C   UNL     1      -5.100   3.040 -33.127  1.00  0.00     0.012 A 
ENDBRANCH  15  16
ENDBRANCH  12  15
ENDBRANCH   6  11
ENDBRANCH   1   5
BRANCH   2  22
HETATM   22  C   UNL     1      -8.956   1.331 -34.290  1.00  0.00     0.309 C 
HETATM   23  N   UNL     1      -8.660   2.656 -34.068  1.00  0.00    -0.353 N 
HETATM   24  H   UNL     1      -7.677   2.911 -34.114  1.00  0.00     0.162 HD
HETATM   25  O   UNL     1     -10.066   0.820 -34.239  1.00  0.00    -0.262 OA
BRANCH  23  26
HETATM   26  C   UNL     1      -9.642   3.611 -33.597  1.00  0.00     0.128 C 
BRANCH  26  27
HETATM   27  C   UNL     1      -9.911   3.438 -32.102  1.00  0.00     0.058 C 
BRANCH  27  28
HETATM   28  C   UNL     1      -8.662   3.598 -31.272  1.00  0.00    -0.057 A 
HETATM   29  C   UNL     1      -8.102   4.869 -31.073  1.00  0.00     0.010 A 
HETATM   30  C   UNL     1      -6.948   5.023 -30.302  1.00  0.00     0.037 A 
HETATM   31  C   UNL     1      -6.350   3.902 -29.736  1.00  0.00     0.065 A 
HETATM   32  C   UNL     1      -6.881   2.635 -29.933  1.00  0.00     0.037 A 
HETATM   33  C   UNL     1      -8.037   2.481 -30.701  1.00  0.00     0.010 A 
BRANCH  31  34
HETATM   34  O   UNL     1      -5.226   4.008 -28.970  1.00  0.00    -0.361 OA
HETATM   35  H   UNL     1      -4.612   3.299 -29.226  1.00  0.00     0.217 HD
ENDBRANCH  31  34
ENDBRANCH  27  28
ENDBRANCH  26  27
ENDBRANCH  23  26
ENDBRANCH   2  22
TORSDOF 9
ENDMDL
MODEL 7
REMARK VINA RESULT:      -8.4      3.902      8.005
REMARK  9 active torsions:
REMARK  status: ('A' for Active; 'I' for Inactive)
REMARK    1  A    between atoms: C_3  and  C_4 
REMARK       I    between atoms: C_4  and  N_5 
REMARK    2  A    between atoms: N_5  and  C_6 
REMARK    3  A    between atoms: C_6  and  C_7 
REMARK    4  A    between atoms: C_14  and  N_15 
REMARK       I    between atoms: N_15  and  C_16 
REMARK    5  A    between atoms: C_16  and  C_17 
REMARK       I    between atoms: C_17  and  N_18 
REMARK    6  A    between atoms: N_18  and  C_19 
REMARK    7  A    between atoms: C_19  and  C_20 
REMARK    8  A    between atoms: C_20  and  C_21 
REMARK    9  A    between atoms: C_24  and  O_25 
ROOT
HETATM    1  N   UNL     1      -7.584  -0.733 -33.752  1.00  0.00    -0.318 N 
HETATM    2  C   UNL     1      -7.887   0.302 -34.611  1.00  0.00     0.313 C 
HETATM    3  O   UNL     1      -7.374   0.570 -35.691  1.00  0.00    -0.262 OA
HETATM    4  H   UNL     1      -8.308  -0.936 -33.067  1.00  0.00     0.169 HD
ENDROOT
BRANCH   1   5
HETATM    5  C   UNL     1      -6.525  -1.648 -33.911  1.00  0.00     0.051 A 
HETATM    6  C   UNL     1      -5.249  -1.530 -33.328  1.00  0.00     0.058 A 
HETATM    7  C   UNL     1      -4.253  -2.475 -33.638  1.00  0.00     0.019 A 
HETATM    8  C   UNL     1      -4.524  -3.534 -34.503  1.00  0.00     0.001 A 
HETATM    9  C   UNL     1      -5.800  -3.683 -35.037  1.00  0.00     0.002 A 
HETATM   10  C   UNL     1      -6.797  -2.755 -34.730  1.00  0.00     0.030 A 
BRANCH   6  11
HETATM   11  C   UNL     1      -4.973  -0.590 -32.206  1.00  0.00     0.254 C 
HETATM   12  N   UNL     1      -3.747   0.043 -32.237  1.00  0.00    -0.353 N 
HETATM   13  H   UNL     1      -3.213   0.030 -33.097  1.00  0.00     0.163 HD
HETATM   14  O   UNL     1      -5.787  -0.454 -31.299  1.00  0.00    -0.268 OA
BRANCH  12  15
HETATM   15  C   UNL     1      -3.384   1.020 -31.234  1.00  0.00     0.162 C 
BRANCH  15  16
HETATM   16  C   UNL     1      -3.782   2.411 -31.639  1.00  0.00    -0.023 A 
HETATM   17  C   UNL     1      -4.816   3.076 -30.987  1.00  0.00     0.125 A 
HETATM   18  N   UNL     1      -5.199   4.345 -31.260  1.00  0.00    -0.273 NA
HETATM   19  C   UNL     1      -4.507   4.993 -32.221  1.00  0.00     0.116 A 
HETATM   20  C   UNL     1      -3.455   4.432 -32.922  1.00  0.00     0.020 A 
HETATM   21  C   UNL     1      -3.086   3.124 -32.621  1.00  0.00     0.012 A 
ENDBRANCH  15  16
ENDBRANCH  12  15
ENDBRANCH   6  11
ENDBRANCH   1   5
BRANCH   2  22
HETATM   22  C   UNL     1      -9.127   1.099 -34.146  1.00  0.00     0.309 C 
HETATM   23  N   UNL     1      -9.249   2.332 -34.744  1.00  0.00    -0.353 N 
HETATM   24  H   UNL     1      -8.491   2.610 -35.361  1.00  0.00     0.162 HD
HETATM   25  O   UNL     1      -9.908   0.604 -33.345  1.00  0.00    -0.262 OA
BRANCH  23  26
HETATM   26  C   UNL     1     -10.281   3.282 -34.379  1.00  0.00     0.128 C 
BRANCH  26  27
HETATM   27  C   UNL     1     -11.583   3.000 -35.129  1.00  0.00     0.058 C 
BRANCH  27  28
HETATM   28  C   UNL     1     -12.723   2.674 -34.198  1.00  0.00    -0.057 A 
HETATM   29  C   UNL     1     -13.587   1.607 -34.483  1.00  0.00     0.010 A 
HETATM   30  C   UNL     1     -14.642   1.297 -33.621  1.00  0.00     0.037 A 
HETATM   31  C   UNL     1     -14.835   2.063 -32.476  1.00  0.00     0.065 A 
HETATM   32  C   UNL     1     -13.998   3.132 -32.184  1.00  0.00     0.037 A 
HETATM   33  C   UNL     1     -12.942   3.439 -33.044  1.00  0.00     0.010 A 
BRANCH  31  34
HETATM   34  O   UNL     1     -15.848   1.792 -31.603  1.00  0.00    -0.361 OA
HETATM   35  H   UNL     1     -15.580   1.043 -31.045  1.00  0.00     0.217 HD
ENDBRANCH  31  34
ENDBRANCH  27  28
ENDBRANCH  26  27
ENDBRANCH  23  26
ENDBRANCH   2  22
TORSDOF 9
ENDMDL
MODEL 8
REMARK VINA RESULT:      -8.4      3.898      7.881
REMARK  9 active torsions:
REMARK  status: ('A' for Active; 'I' for Inactive)
REMARK    1  A    between atoms: C_3  and  C_4 
REMARK       I    between atoms: C_4  and  N_5 
REMARK    2  A    between atoms: N_5  and  C_6 
REMARK    3  A    between atoms: C_6  and  C_7 
REMARK    4  A    between atoms: C_14  and  N_15 
REMARK       I    between atoms: N_15  and  C_16 
REMARK    5  A    between atoms: C_16  and  C_17 
REMARK       I    between atoms: C_17  and  N_18 
REMARK    6  A    between atoms: N_18  and  C_19 
REMARK    7  A    between atoms: C_19  and  C_20 
REMARK    8  A    between atoms: C_20  and  C_21 
REMARK    9  A    between atoms: C_24  and  O_25 
ROOT
HETATM    1  N   UNL     1      -7.758   0.868 -33.914  1.00  0.00    -0.318 N 
HETATM    2  C   UNL     1      -8.781   0.980 -32.996  1.00  0.00     0.313 C 
HETATM    3  O   UNL     1      -8.956   0.336 -31.970  1.00  0.00    -0.262 OA
HETATM    4  H   UNL     1      -7.652   1.674 -34.525  1.00  0.00     0.169 HD
ENDROOT
BRANCH   1   5
HETATM    5  C   UNL     1      -6.742  -0.107 -33.895  1.00  0.00     0.051 A 
HETATM    6  C   UNL     1      -5.464   0.057 -33.326  1.00  0.00     0.058 A 
HETATM    7  C   UNL     1      -4.511  -0.972 -33.451  1.00  0.00     0.019 A 
HETATM    8  C   UNL     1      -4.826  -2.155 -34.118  1.00  0.00     0.001 A 
HETATM    9  C   UNL     1      -6.106  -2.339 -34.633  1.00  0.00     0.002 A 
HETATM   10  C   UNL     1      -7.060  -1.328 -34.509  1.00  0.00     0.030 A 
BRANCH   6  11
HETATM   11  C   UNL     1      -5.150   1.167 -32.385  1.00  0.00     0.254 C 
HETATM   12  N   UNL     1      -4.120   2.005 -32.763  1.00  0.00    -0.353 N 
HETATM   13  H   UNL     1      -3.798   1.979 -33.721  1.00  0.00     0.163 HD
HETATM   14  O   UNL     1      -5.755   1.267 -31.323  1.00  0.00    -0.268 OA
BRANCH  12  15
HETATM   15  C   UNL     1      -3.757   3.153 -31.961  1.00  0.00     0.162 C 
BRANCH  15  16
HETATM   16  C   UNL     1      -3.130   4.238 -32.789  1.00  0.00    -0.023 A 
HETATM   17  C   UNL     1      -3.879   4.945 -33.724  1.00  0.00     0.125 A 
HETATM   18  N   UNL     1      -3.400   5.967 -34.470  1.00  0.00    -0.273 NA
HETATM   19  C   UNL     1      -2.112   6.315 -34.266  1.00  0.00     0.116 A 
HETATM   20  C   UNL     1      -1.282   5.689 -33.353  1.00  0.00     0.020 A 
HETATM   21  C   UNL     1      -1.803   4.639 -32.602  1.00  0.00     0.012 A 
ENDBRANCH  15  16
ENDBRANCH  12  15
ENDBRANCH   6  11
ENDBRANCH   1   5
BRANCH   2  22
HETATM   22  C   UNL     1      -9.709   2.178 -33.304  1.00  0.00     0.309 C 
HETATM   23  N   UNL     1      -9.935   2.372 -34.648  1.00  0.00    -0.353 N 
HETATM   24  H   UNL     1      -9.424   1.765 -35.282  1.00  0.00     0.162 HD
HETATM   25  O   UNL     1     -10.193   2.828 -32.388  1.00  0.00    -0.262 OA
BRANCH  23  26
HETATM   26  C   UNL     1     -10.692   3.496 -35.161  1.00  0.00     0.128 C 
BRANCH  26  27
HETATM   27  C   UNL     1     -12.056   3.051 -35.689  1.00  0.00     0.058 C 
BRANCH  27  28
HETATM   28  C   UNL     1     -13.019   2.715 -34.578  1.00  0.00    -0.057 A 
HETATM   29  C   UNL     1     -13.312   3.660 -33.584  1.00  0.00     0.010 A 
HETATM   30  C   UNL     1     -14.207   3.356 -32.557  1.00  0.00     0.037 A 
HETATM   31  C   UNL     1     -14.804   2.100 -32.520  1.00  0.00     0.065 A 
HETATM   32  C   UNL     1     -14.516   1.146 -33.487  1.00  0.00     0.037 A 
HETATM   33  C   UNL     1     -13.623   1.452 -34.517  1.00  0.00     0.010 A 
BRANCH  31  34
HETATM   34  O   UNL     1     -15.688   1.763 -31.538  1.00  0.00    -0.361 OA
HETATM   35  H   UNL     1     -15.750   0.794 -31.500  1.00  0.00     0.217 HD
ENDBRANCH  31  34
ENDBRANCH  27  28
ENDBRANCH  26  27
ENDBRANCH  23  26
ENDBRANCH   2  22
TORSDOF 9
ENDMDL
MODEL 9
REMARK VINA RESULT:      -8.3      3.080      4.499
REMARK  9 active torsions:
REMARK  status: ('A' for Active; 'I' for Inactive)
REMARK    1  A    between atoms: C_3  and  C_4 
REMARK       I    between atoms: C_4  and  N_5 
REMARK    2  A    between atoms: N_5  and  C_6 
REMARK    3  A    between atoms: C_6  and  C_7 
REMARK    4  A    between atoms: C_14  and  N_15 
REMARK       I    between atoms: N_15  and  C_16 
REMARK    5  A    between atoms: C_16  and  C_17 
REMARK       I    between atoms: C_17  and  N_18 
REMARK    6  A    between atoms: N_18  and  C_19 
REMARK    7  A    between atoms: C_19  and  C_20 
REMARK    8  A    between atoms: C_20  and  C_21 
REMARK    9  A    between atoms: C_24  and  O_25 
ROOT
HETATM    1  N   UNL     1      -3.841   3.373 -32.787  1.00  0.00    -0.318 N 
HETATM    2  C   UNL     1      -3.440   2.415 -31.879  1.00  0.00     0.313 C 
HETATM    3  O   UNL     1      -2.511   2.463 -31.083  1.00  0.00    -0.262 OA
HETATM    4  H   UNL     1      -4.787   3.248 -33.139  1.00  0.00     0.169 HD
ENDROOT
BRANCH   1   5
HETATM    5  C   UNL     1      -3.175   4.586 -33.047  1.00  0.00     0.051 A 
HETATM    6  C   UNL     1      -3.392   5.798 -32.365  1.00  0.00     0.058 A 
HETATM    7  C   UNL     1      -2.718   6.962 -32.782  1.00  0.00     0.019 A 
HETATM    8  C   UNL     1      -1.826   6.919 -33.853  1.00  0.00     0.001 A 
HETATM    9  C   UNL     1      -1.570   5.710 -34.493  1.00  0.00     0.002 A 
HETATM   10  C   UNL     1      -2.228   4.550 -34.082  1.00  0.00     0.030 A 
BRANCH   6  11
HETATM   11  C   UNL     1      -4.117   5.860 -31.065  1.00  0.00     0.254 C 
HETATM   12  N   UNL     1      -3.557   6.671 -30.099  1.00  0.00    -0.353 N 
HETATM   13  H   UNL     1      -2.851   7.341 -30.375  1.00  0.00     0.163 HD
HETATM   14  O   UNL     1      -5.119   5.175 -30.883  1.00  0.00    -0.268 OA
BRANCH  12  15
HETATM   15  C   UNL     1      -4.198   6.857 -28.816  1.00  0.00     0.162 C 
BRANCH  15  16
HETATM   16  C   UNL     1      -3.231   7.341 -27.773  1.00  0.00    -0.023 A 
HETATM   17  C   UNL     1      -3.413   7.026 -26.430  1.00  0.00     0.125 A 
HETATM   18  N   UNL     1      -2.560   7.381 -25.441  1.00  0.00    -0.273 NA
HETATM   19  C   UNL     1      -1.460   8.072 -25.807  1.00  0.00     0.116 A 
HETATM   20  C   UNL     1      -1.175   8.427 -27.114  1.00  0.00     0.020 A 
HETATM   21  C   UNL     1      -2.072   8.049 -28.109  1.00  0.00     0.012 A 
ENDBRANCH  15  16
ENDBRANCH  12  15
ENDBRANCH   6  11
ENDBRANCH   1   5
BRANCH   2  22
HETATM   22  C   UNL     1      -4.415   1.216 -31.831  1.00  0.00     0.309 C 
HETATM   23  N   UNL     1      -5.284   1.166 -32.897  1.00  0.00    -0.353 N 
HETATM   24  H   UNL     1      -5.239   1.943 -33.551  1.00  0.00     0.162 HD
HETATM   25  O   UNL     1      -4.341   0.404 -30.920  1.00  0.00    -0.262 OA
BRANCH  23  26
HETATM   26  C   UNL     1      -6.345   0.184 -32.999  1.00  0.00     0.128 C 
BRANCH  26  27
HETATM   27  C   UNL     1      -6.417  -0.410 -34.405  1.00  0.00     0.058 C 
BRANCH  27  28
HETATM   28  C   UNL     1      -5.967  -1.849 -34.444  1.00  0.00    -0.057 A 
HETATM   29  C   UNL     1      -6.870  -2.864 -34.792  1.00  0.00     0.010 A 
HETATM   30  C   UNL     1      -6.457  -4.198 -34.834  1.00  0.00     0.037 A 
HETATM   31  C   UNL     1      -5.140  -4.515 -34.520  1.00  0.00     0.065 A 
HETATM   32  C   UNL     1      -4.235  -3.526 -34.160  1.00  0.00     0.037 A 
HETATM   33  C   UNL     1      -4.647  -2.192 -34.121  1.00  0.00     0.010 A 
BRANCH  31  34
HETATM   34  O   UNL     1      -4.693  -5.803 -34.555  1.00  0.00    -0.361 OA
HETATM   35  H   UNL     1      -4.223  -5.943 -35.394  1.00  0.00     0.217 HD
ENDBRANCH  31  34
ENDBRANCH  27  28
ENDBRANCH  26  27
ENDBRANCH  23  26
ENDBRANCH   2  22
TORSDOF 9
ENDMDL
MODEL 10
REMARK VINA RESULT:      -8.2      2.516      7.096
REMARK  9 active torsions:
REMARK  status: ('A' for Active; 'I' for Inactive)
REMARK    1  A    between atoms: C_3  and  C_4 
REMARK       I    between atoms: C_4  and  N_5 
REMARK    2  A    between atoms: N_5  and  C_6 
REMARK    3  A    between atoms: C_6  and  C_7 
REMARK    4  A    between atoms: C_14  and  N_15 
REMARK       I    between atoms: N_15  and  C_16 
REMARK    5  A    between atoms: C_16  and  C_17 
REMARK       I    between atoms: C_17  and  N_18 
REMARK    6  A    between atoms: N_18  and  C_19 
REMARK    7  A    between atoms: C_19  and  C_20 
REMARK    8  A    between atoms: C_20  and  C_21 
REMARK    9  A    between atoms: C_24  and  O_25 
ROOT
HETATM    1  N   UNL     1      -5.174   0.872 -32.712  1.00  0.00    -0.318 N 
HETATM    2  C   UNL     1      -4.426   0.858 -31.554  1.00  0.00     0.313 C 
HETATM    3  O   UNL     1      -4.049  -0.108 -30.903  1.00  0.00    -0.262 OA
HETATM    4  H   UNL     1      -5.130   1.746 -33.231  1.00  0.00     0.169 HD
ENDROOT
BRANCH   1   5
HETATM    5  C   UNL     1      -5.749  -0.255 -33.331  1.00  0.00     0.051 A 
HETATM    6  C   UNL     1      -7.111  -0.607 -33.280  1.00  0.00     0.058 A 
HETATM    7  C   UNL     1      -7.541  -1.810 -33.874  1.00  0.00     0.019 A 
HETATM    8  C   UNL     1      -6.633  -2.645 -34.523  1.00  0.00     0.001 A 
HETATM    9  C   UNL     1      -5.296  -2.271 -34.621  1.00  0.00     0.002 A 
HETATM   10  C   UNL     1      -4.861  -1.077 -34.041  1.00  0.00     0.030 A 
BRANCH   6  11
HETATM   11  C   UNL     1      -8.164   0.350 -32.841  1.00  0.00     0.254 C 
HETATM   12  N   UNL     1      -9.425   0.141 -33.360  1.00  0.00    -0.353 N 
HETATM   13  H   UNL     1      -9.629  -0.746 -33.802  1.00  0.00     0.163 HD
HETATM   14  O   UNL     1      -7.877   1.288 -32.104  1.00  0.00    -0.268 OA
BRANCH  12  15
HETATM   15  C   UNL     1     -10.543   0.970 -32.966  1.00  0.00     0.162 C 
BRANCH  15  16
HETATM   16  C   UNL     1     -11.051   1.804 -34.108  1.00  0.00    -0.023 A 
HETATM   17  C   UNL     1     -12.181   1.422 -34.823  1.00  0.00     0.125 A 
HETATM   18  N   UNL     1     -12.727   2.144 -35.830  1.00  0.00    -0.273 NA
HETATM   19  C   UNL     1     -12.128   3.315 -36.130  1.00  0.00     0.116 A 
HETATM   20  C   UNL     1     -11.008   3.796 -35.474  1.00  0.00     0.020 A 
HETATM   21  C   UNL     1     -10.468   3.030 -34.445  1.00  0.00     0.012 A 
ENDBRANCH  15  16
ENDBRANCH  12  15
ENDBRANCH   6  11
ENDBRANCH   1   5
BRANCH   2  22
HETATM   22  C   UNL     1      -3.930   2.270 -31.167  1.00  0.00     0.309 C 
HETATM   23  N   UNL     1      -4.944   3.157 -30.886  1.00  0.00    -0.353 N 
HETATM   24  H   UNL     1      -5.891   2.816 -31.028  1.00  0.00     0.162 HD
HETATM   25  O   UNL     1      -2.730   2.500 -31.100  1.00  0.00    -0.262 OA
BRANCH  23  26
HETATM   26  C   UNL     1      -4.705   4.557 -30.600  1.00  0.00     0.128 C 
BRANCH  26  27
HETATM   27  C   UNL     1      -5.002   5.430 -31.819  1.00  0.00     0.058 C 
BRANCH  27  28
HETATM   28  C   UNL     1      -3.856   5.453 -32.800  1.00  0.00    -0.057 A 
HETATM   29  C   UNL     1      -4.087   5.225 -34.164  1.00  0.00     0.010 A 
HETATM   30  C   UNL     1      -3.031   5.251 -35.077  1.00  0.00     0.037 A 
HETATM   31  C   UNL     1      -1.740   5.498 -34.621  1.00  0.00     0.065 A 
HETATM   32  C   UNL     1      -1.490   5.713 -33.273  1.00  0.00     0.037 A 
HETATM   33  C   UNL     1      -2.547   5.691 -32.360  1.00  0.00     0.010 A 
BRANCH  31  34
HETATM   34  O   UNL     1      -0.680   5.538 -35.479  1.00  0.00    -0.361 OA
HETATM   35  H   UNL     1      -0.099   4.785 -35.284  1.00  0.00     0.217 HD
ENDBRANCH  31  34
ENDBRANCH  27  28
ENDBRANCH  26  27
ENDBRANCH  23  26
ENDBRANCH   2  22
TORSDOF 9
ENDMDL
