MODEL 1
REMARK VINA RESULT:      -7.7      0.000      0.000
REMARK  4 active torsions:
REMARK  status: ('A' for Active; 'I' for Inactive)
REMARK    1  A    between atoms: C_8  and  N_9 
REMARK    2  A    between atoms: C_11  and  C_12 
REMARK    3  A    between atoms: C_13  and  O_14 
REMARK    4  A    between atoms: O_14  and  C_15 
ROOT
HETATM    1  C   UNL     1      -5.680  -3.005 -34.489  1.00  0.00     0.002 A 
HETATM    2  C   UNL     1      -4.633  -2.695 -33.614  1.00  0.00     0.034 A 
HETATM    3  C   UNL     1      -4.448  -1.360 -33.231  1.00  0.00     0.103 A 
HETATM    4  C   UNL     1      -5.308  -0.382 -33.722  1.00  0.00     0.083 A 
HETATM    5  N   UNL     1      -4.849   0.763 -33.127  1.00  0.00    -0.151 N 
HETATM    6  C   UNL     1      -3.740   0.482 -32.371  1.00  0.00     0.734 A 
HETATM    7  N   UNL     1      -3.038   1.433 -31.715  1.00  0.00    -0.033 NA
HETATM    8  C   UNL     1      -3.405   2.659 -31.815  1.00  0.00     0.193 A 
HETATM    9  N   UNL     1      -4.510   3.097 -32.549  1.00  0.00    -0.338 N 
HETATM   10  C   UNL     1      -5.340   2.119 -33.247  1.00  0.00     0.246 A 
HETATM   11  N   UNL     1      -3.503  -0.811 -32.401  1.00  0.00    -0.060 NA
HETATM   12  C   UNL     1      -6.360  -0.665 -34.598  1.00  0.00     0.033 A 
HETATM   13  C   UNL     1      -6.527  -2.004 -34.971  1.00  0.00     0.002 A 
HETATM   14  H   UNL     1      -4.715   4.084 -32.646  1.00  0.00     0.164 HD
ENDROOT
BRANCH  10  15
HETATM   15  C   UNL     1      -6.759   2.300 -32.725  1.00  0.00     0.020 A 
HETATM   16  C   UNL     1      -7.039   2.100 -31.360  1.00  0.00     0.085 A 
HETATM   17  C   UNL     1      -8.326   2.282 -30.846  1.00  0.00     0.039 A 
HETATM   18  C   UNL     1      -9.374   2.608 -31.704  1.00  0.00     0.022 A 
HETATM   19  C   UNL     1      -9.129   2.755 -33.067  1.00  0.00     0.011 A 
HETATM   20 BR   UNL     1     -10.552   3.185 -34.233  1.00  0.00    -0.051 Br
HETATM   21  C   UNL     1      -7.840   2.597 -33.579  1.00  0.00     0.033 A 
BRANCH  16  22
HETATM   22  O   UNL     1      -6.015   1.782 -30.506  1.00  0.00    -0.289 OA
BRANCH  22  23
HETATM   23  C   UNL     1      -6.328   0.617 -29.745  1.00  0.00     0.505 C 
HETATM   24  F   UNL     1      -6.462  -0.420 -30.621  1.00  0.00    -0.184 F 
HETATM   25  F   UNL     1      -5.241   0.330 -28.992  1.00  0.00    -0.184 F 
ENDBRANCH  22  23
ENDBRANCH  16  22
ENDBRANCH  10  15
BRANCH   8  26
HETATM   26  N   UNL     1      -2.749   3.673 -31.217  1.00  0.00    -0.272 NA
HETATM   27  H   UNL     1      -1.922   3.341 -30.725  1.00  0.00     0.127 HD
HETATM   28  H   UNL     1      -3.296   4.305 -30.649  1.00  0.00     0.127 HD
ENDBRANCH   8  26
TORSDOF 4
ENDMDL
MODEL 2
REMARK VINA RESULT:      -7.6      4.277      5.466
REMARK  4 active torsions:
REMARK  status: ('A' for Active; 'I' for Inactive)
REMARK    1  A    between atoms: C_8  and  N_9 
REMARK    2  A    between atoms: C_11  and  C_12 
REMARK    3  A    between atoms: C_13  and  O_14 
REMARK    4  A    between atoms: O_14  and  C_15 
ROOT
HETATM    1  C   UNL     1      -6.452  -1.157 -34.240  1.00  0.00     0.002 A 
HETATM    2  C   UNL     1      -6.556  -0.838 -32.881  1.00  0.00     0.034 A 
HETATM    3  C   UNL     1      -7.259   0.317 -32.512  1.00  0.00     0.103 A 
HETATM    4  C   UNL     1      -7.836   1.111 -33.498  1.00  0.00     0.083 A 
HETATM    5  N   UNL     1      -8.442   2.107 -32.781  1.00  0.00    -0.151 N 
HETATM    6  C   UNL     1      -8.185   1.940 -31.444  1.00  0.00     0.734 A 
HETATM    7  N   UNL     1      -8.609   2.811 -30.501  1.00  0.00    -0.033 NA
HETATM    8  C   UNL     1      -9.262   3.854 -30.863  1.00  0.00     0.193 A 
HETATM    9  N   UNL     1      -9.597   4.158 -32.185  1.00  0.00    -0.338 N 
HETATM   10  C   UNL     1      -9.209   3.240 -33.252  1.00  0.00     0.246 A 
HETATM   11  N   UNL     1      -7.491   0.838 -31.265  1.00  0.00    -0.060 NA
HETATM   12  C   UNL     1      -7.744   0.816 -34.862  1.00  0.00     0.033 A 
HETATM   13  C   UNL     1      -7.037  -0.341 -35.211  1.00  0.00     0.002 A 
HETATM   14  H   UNL     1     -10.058   5.029 -32.419  1.00  0.00     0.164 HD
ENDROOT
BRANCH  10  15
HETATM   15  C   UNL     1     -10.491   2.848 -33.975  1.00  0.00     0.020 A 
HETATM   16  C   UNL     1     -10.975   3.640 -35.033  1.00  0.00     0.085 A 
HETATM   17  C   UNL     1     -12.135   3.294 -35.732  1.00  0.00     0.039 A 
HETATM   18  C   UNL     1     -12.871   2.177 -35.340  1.00  0.00     0.022 A 
HETATM   19  C   UNL     1     -12.440   1.412 -34.260  1.00  0.00     0.011 A 
HETATM   20 BR   UNL     1     -13.444  -0.096 -33.722  1.00  0.00    -0.051 Br
HETATM   21  C   UNL     1     -11.268   1.742 -33.576  1.00  0.00     0.033 A 
BRANCH  16  22
HETATM   22  O   UNL     1     -10.258   4.739 -35.428  1.00  0.00    -0.289 OA
BRANCH  22  23
HETATM   23  C   UNL     1     -11.050   5.923 -35.342  1.00  0.00     0.505 C 
HETATM   24  F   UNL     1     -11.237   6.195 -34.018  1.00  0.00    -0.184 F 
HETATM   25  F   UNL     1     -10.299   6.939 -35.827  1.00  0.00    -0.184 F 
ENDBRANCH  22  23
ENDBRANCH  16  22
ENDBRANCH  10  15
BRANCH   8  26
HETATM   26  N   UNL     1      -9.699   4.786 -29.993  1.00  0.00    -0.272 NA
HETATM   27  H   UNL     1      -8.965   5.451 -29.761  1.00  0.00     0.127 HD
HETATM   28  H   UNL     1     -10.181   4.456 -29.168  1.00  0.00     0.127 HD
ENDBRANCH   8  26
TORSDOF 4
ENDMDL
MODEL 3
REMARK VINA RESULT:      -7.6      4.257      7.006
REMARK  4 active torsions:
REMARK  status: ('A' for Active; 'I' for Inactive)
REMARK    1  A    between atoms: C_8  and  N_9 
REMARK    2  A    between atoms: C_11  and  C_12 
REMARK    3  A    between atoms: C_13  and  O_14 
REMARK    4  A    between atoms: O_14  and  C_15 
ROOT
HETATM    1  C   UNL     1      -2.953   9.331 -29.026  1.00  0.00     0.002 A 
HETATM    2  C   UNL     1      -2.467   9.634 -30.303  1.00  0.00     0.034 A 
HETATM    3  C   UNL     1      -2.266   8.587 -31.213  1.00  0.00     0.103 A 
HETATM    4  C   UNL     1      -2.558   7.282 -30.829  1.00  0.00     0.083 A 
HETATM    5  N   UNL     1      -2.270   6.555 -31.953  1.00  0.00    -0.151 N 
HETATM    6  C   UNL     1      -1.779   7.383 -32.930  1.00  0.00     0.734 A 
HETATM    7  N   UNL     1      -1.354   6.931 -34.131  1.00  0.00    -0.033 NA
HETATM    8  C   UNL     1      -1.387   5.671 -34.369  1.00  0.00     0.193 A 
HETATM    9  N   UNL     1      -1.859   4.708 -33.474  1.00  0.00    -0.338 N 
HETATM   10  C   UNL     1      -2.374   5.129 -32.175  1.00  0.00     0.246 A 
HETATM   11  N   UNL     1      -1.799   8.627 -32.502  1.00  0.00    -0.060 NA
HETATM   12  C   UNL     1      -3.042   6.953 -29.559  1.00  0.00     0.033 A 
HETATM   13  C   UNL     1      -3.235   8.012 -28.664  1.00  0.00     0.002 A 
HETATM   14  H   UNL     1      -1.801   3.721 -33.692  1.00  0.00     0.164 HD
ENDROOT
BRANCH  10  15
HETATM   15  C   UNL     1      -3.799   4.601 -32.080  1.00  0.00     0.020 A 
HETATM   16  C   UNL     1      -4.031   3.249 -31.761  1.00  0.00     0.085 A 
HETATM   17  C   UNL     1      -5.328   2.741 -31.644  1.00  0.00     0.039 A 
HETATM   18  C   UNL     1      -6.421   3.564 -31.907  1.00  0.00     0.022 A 
HETATM   19  C   UNL     1      -6.212   4.889 -32.279  1.00  0.00     0.011 A 
HETATM   20 BR   UNL     1      -7.693   6.003 -32.648  1.00  0.00    -0.051 Br
HETATM   21  C   UNL     1      -4.918   5.407 -32.374  1.00  0.00     0.033 A 
BRANCH  16  22
HETATM   22  O   UNL     1      -2.964   2.431 -31.498  1.00  0.00    -0.289 OA
BRANCH  22  23
HETATM   23  C   UNL     1      -3.354   1.059 -31.521  1.00  0.00     0.505 C 
HETATM   24  F   UNL     1      -3.170   0.603 -32.793  1.00  0.00    -0.184 F 
HETATM   25  F   UNL     1      -2.472   0.382 -30.750  1.00  0.00    -0.184 F 
ENDBRANCH  22  23
ENDBRANCH  16  22
ENDBRANCH  10  15
BRANCH   8  26
HETATM   26  N   UNL     1      -0.959   5.132 -35.529  1.00  0.00    -0.272 NA
HETATM   27  H   UNL     1      -1.605   4.424 -35.870  1.00  0.00     0.127 HD
HETATM   28  H   UNL     1      -0.000   4.815 -35.563  1.00  0.00     0.127 HD
ENDBRANCH   8  26
TORSDOF 4
ENDMDL
MODEL 4
REMARK VINA RESULT:      -7.5      3.440      4.646
REMARK  4 active torsions:
REMARK  status: ('A' for Active; 'I' for Inactive)
REMARK    1  A    between atoms: C_8  and  N_9 
REMARK    2  A    between atoms: C_11  and  C_12 
REMARK    3  A    between atoms: C_13  and  O_14 
REMARK    4  A    between atoms: O_14  and  C_15 
ROOT
HETATM    1  C   UNL     1      -5.225  -2.371 -34.494  1.00  0.00     0.002 A 
HETATM    2  C   UNL     1      -6.602  -2.176 -34.339  1.00  0.00     0.034 A 
HETATM    3  C   UNL     1      -7.046  -1.114 -33.540  1.00  0.00     0.103 A 
HETATM    4  C   UNL     1      -6.114  -0.283 -32.926  1.00  0.00     0.083 A 
HETATM    5  N   UNL     1      -6.895   0.629 -32.268  1.00  0.00    -0.151 N 
HETATM    6  C   UNL     1      -8.219   0.315 -32.436  1.00  0.00     0.734 A 
HETATM    7  N   UNL     1      -9.219   1.009 -31.848  1.00  0.00    -0.033 NA
HETATM    8  C   UNL     1      -8.926   1.993 -31.078  1.00  0.00     0.193 A 
HETATM    9  N   UNL     1      -7.626   2.428 -30.810  1.00  0.00    -0.338 N 
HETATM   10  C   UNL     1      -6.498   1.752 -31.446  1.00  0.00     0.246 A 
HETATM   11  N   UNL     1      -8.326  -0.726 -33.233  1.00  0.00    -0.060 NA
HETATM   12  C   UNL     1      -4.733  -0.458 -33.063  1.00  0.00     0.033 A 
HETATM   13  C   UNL     1      -4.309  -1.524 -33.865  1.00  0.00     0.002 A 
HETATM   14  H   UNL     1      -7.451   3.169 -30.143  1.00  0.00     0.164 HD
ENDROOT
BRANCH  10  15
HETATM   15  C   UNL     1      -5.726   2.820 -32.209  1.00  0.00     0.020 A 
HETATM   16  C   UNL     1      -6.298   3.432 -33.341  1.00  0.00     0.085 A 
HETATM   17  C   UNL     1      -5.624   4.432 -34.047  1.00  0.00     0.039 A 
HETATM   18  C   UNL     1      -4.332   4.795 -33.670  1.00  0.00     0.022 A 
HETATM   19  C   UNL     1      -3.727   4.163 -32.588  1.00  0.00     0.011 A 
HETATM   20 BR   UNL     1      -1.971   4.646 -32.084  1.00  0.00    -0.051 Br
HETATM   21  C   UNL     1      -4.407   3.180 -31.865  1.00  0.00     0.033 A 
BRANCH  16  22
HETATM   22  O   UNL     1      -7.569   3.084 -33.719  1.00  0.00    -0.289 OA
BRANCH  22  23
HETATM   23  C   UNL     1      -8.378   4.243 -33.913  1.00  0.00     0.505 C 
HETATM   24  F   UNL     1      -9.638   3.816 -34.216  1.00  0.00    -0.184 F 
HETATM   25  F   UNL     1      -8.473   4.866 -32.716  1.00  0.00    -0.184 F 
ENDBRANCH  22  23
ENDBRANCH  16  22
ENDBRANCH  10  15
BRANCH   8  26
HETATM   26  N   UNL     1      -9.857   2.721 -30.431  1.00  0.00    -0.272 NA
HETATM   27  H   UNL     1     -10.479   2.129 -29.885  1.00  0.00     0.127 HD
HETATM   28  H   UNL     1     -10.368   3.403 -30.975  1.00  0.00     0.127 HD
ENDBRANCH   8  26
TORSDOF 4
ENDMDL
MODEL 5
REMARK VINA RESULT:      -7.4      3.347      5.446
REMARK  4 active torsions:
REMARK  status: ('A' for Active; 'I' for Inactive)
REMARK    1  A    between atoms: C_8  and  N_9 
REMARK    2  A    between atoms: C_11  and  C_12 
REMARK    3  A    between atoms: C_13  and  O_14 
REMARK    4  A    between atoms: O_14  and  C_15 
ROOT
HETATM    1  C   UNL     1      -2.536   5.699 -34.612  1.00  0.00     0.002 A 
HETATM    2  C   UNL     1      -2.511   5.609 -33.215  1.00  0.00     0.034 A 
HETATM    3  C   UNL     1      -3.595   5.010 -32.560  1.00  0.00     0.103 A 
HETATM    4  C   UNL     1      -4.661   4.518 -33.308  1.00  0.00     0.083 A 
HETATM    5  N   UNL     1      -5.495   3.997 -32.357  1.00  0.00    -0.151 N 
HETATM    6  C   UNL     1      -4.976   4.222 -31.108  1.00  0.00     0.734 A 
HETATM    7  N   UNL     1      -5.616   3.869 -29.971  1.00  0.00    -0.033 NA
HETATM    8  C   UNL     1      -6.772   3.317 -30.053  1.00  0.00     0.193 A 
HETATM    9  N   UNL     1      -7.427   3.026 -31.252  1.00  0.00    -0.338 N 
HETATM   10  C   UNL     1      -6.775   3.341 -32.520  1.00  0.00     0.246 A 
HETATM   11  N   UNL     1      -3.805   4.812 -31.219  1.00  0.00    -0.060 NA
HETATM   12  C   UNL     1      -4.710   4.598 -34.704  1.00  0.00     0.033 A 
HETATM   13  C   UNL     1      -3.619   5.201 -35.340  1.00  0.00     0.002 A 
HETATM   14  H   UNL     1      -8.367   2.649 -31.255  1.00  0.00     0.164 HD
ENDROOT
BRANCH  10  15
HETATM   15  C   UNL     1      -6.694   2.037 -33.302  1.00  0.00     0.020 A 
HETATM   16  C   UNL     1      -7.713   1.697 -34.213  1.00  0.00     0.085 A 
HETATM   17  C   UNL     1      -7.655   0.519 -34.964  1.00  0.00     0.039 A 
HETATM   18  C   UNL     1      -6.605  -0.375 -34.769  1.00  0.00     0.022 A 
HETATM   19  C   UNL     1      -5.617  -0.085 -33.832  1.00  0.00     0.011 A 
HETATM   20 BR   UNL     1      -4.198  -1.303 -33.559  1.00  0.00    -0.051 Br
HETATM   21  C   UNL     1      -5.659   1.103 -33.098  1.00  0.00     0.033 A 
BRANCH  16  22
HETATM   22  O   UNL     1      -8.749   2.571 -34.415  1.00  0.00    -0.289 OA
BRANCH  22  23
HETATM   23  C   UNL     1     -10.003   1.947 -34.140  1.00  0.00     0.505 C 
HETATM   24  F   UNL     1      -9.983   1.546 -32.836  1.00  0.00    -0.184 F 
HETATM   25  F   UNL     1     -10.950   2.910 -34.219  1.00  0.00    -0.184 F 
ENDBRANCH  22  23
ENDBRANCH  16  22
ENDBRANCH  10  15
BRANCH   8  26
HETATM   26  N   UNL     1      -7.491   2.957 -28.971  1.00  0.00    -0.272 NA
HETATM   27  H   UNL     1      -8.122   2.188 -29.184  1.00  0.00     0.127 HD
HETATM   28  H   UNL     1      -7.956   3.694 -28.460  1.00  0.00     0.127 HD
ENDBRANCH   8  26
TORSDOF 4
ENDMDL
MODEL 6
REMARK VINA RESULT:      -7.3      3.731      6.038
REMARK  4 active torsions:
REMARK  status: ('A' for Active; 'I' for Inactive)
REMARK    1  A    between atoms: C_8  and  N_9 
REMARK    2  A    between atoms: C_11  and  C_12 
REMARK    3  A    between atoms: C_13  and  O_14 
REMARK    4  A    between atoms: O_14  and  C_15 
ROOT
HETATM    1  C   UNL     1     -13.265   2.461 -34.693  1.00  0.00     0.002 A 
HETATM    2  C   UNL     1     -12.740   3.487 -33.898  1.00  0.00     0.034 A 
HETATM    3  C   UNL     1     -11.623   3.213 -33.097  1.00  0.00     0.103 A 
HETATM    4  C   UNL     1     -11.064   1.938 -33.115  1.00  0.00     0.083 A 
HETATM    5  N   UNL     1     -10.006   2.051 -32.253  1.00  0.00    -0.151 N 
HETATM    6  C   UNL     1      -9.978   3.310 -31.711  1.00  0.00     0.734 A 
HETATM    7  N   UNL     1      -9.075   3.689 -30.780  1.00  0.00    -0.033 NA
HETATM    8  C   UNL     1      -8.215   2.834 -30.361  1.00  0.00     0.193 A 
HETATM    9  N   UNL     1      -8.121   1.517 -30.818  1.00  0.00    -0.338 N 
HETATM   10  C   UNL     1      -9.037   1.052 -31.856  1.00  0.00     0.246 A 
HETATM   11  N   UNL     1     -10.939   4.036 -32.239  1.00  0.00    -0.060 NA
HETATM   12  C   UNL     1     -11.571   0.897 -33.898  1.00  0.00     0.033 A 
HETATM   13  C   UNL     1     -12.688   1.189 -34.690  1.00  0.00     0.002 A 
HETATM   14  H   UNL     1      -7.464   0.867 -30.405  1.00  0.00     0.164 HD
ENDROOT
BRANCH  10  15
HETATM   15  C   UNL     1      -8.174   0.551 -33.006  1.00  0.00     0.020 A 
HETATM   16  C   UNL     1      -7.612   1.466 -33.917  1.00  0.00     0.085 A 
HETATM   17  C   UNL     1      -6.795   1.040 -34.968  1.00  0.00     0.039 A 
HETATM   18  C   UNL     1      -6.576  -0.321 -35.166  1.00  0.00     0.022 A 
HETATM   19  C   UNL     1      -7.168  -1.246 -34.310  1.00  0.00     0.011 A 
HETATM   20 BR   UNL     1      -6.881  -3.093 -34.584  1.00  0.00    -0.051 Br
HETATM   21  C   UNL     1      -7.965  -0.822 -33.244  1.00  0.00     0.033 A 
BRANCH  16  22
HETATM   22  O   UNL     1      -7.819   2.808 -33.730  1.00  0.00    -0.289 OA
BRANCH  22  23
HETATM   23  C   UNL     1      -6.589   3.529 -33.803  1.00  0.00     0.505 C 
HETATM   24  F   UNL     1      -6.891   4.859 -33.762  1.00  0.00    -0.184 F 
HETATM   25  F   UNL     1      -5.907   3.267 -32.664  1.00  0.00    -0.184 F 
ENDBRANCH  22  23
ENDBRANCH  16  22
ENDBRANCH  10  15
BRANCH   8  26
HETATM   26  N   UNL     1      -7.296   3.119 -29.417  1.00  0.00    -0.272 NA
HETATM   27  H   UNL     1      -6.831   2.277 -29.085  1.00  0.00     0.127 HD
HETATM   28  H   UNL     1      -7.589   3.712 -28.653  1.00  0.00     0.127 HD
ENDBRANCH   8  26
TORSDOF 4
ENDMDL
MODEL 7
REMARK VINA RESULT:      -7.2      3.232      4.617
REMARK  4 active torsions:
REMARK  status: ('A' for Active; 'I' for Inactive)
REMARK    1  A    between atoms: C_8  and  N_9 
REMARK    2  A    between atoms: C_11  and  C_12 
REMARK    3  A    between atoms: C_13  and  O_14 
REMARK    4  A    between atoms: O_14  and  C_15 
ROOT
HETATM    1  C   UNL     1      -3.176  -0.872 -31.918  1.00  0.00     0.002 A 
HETATM    2  C   UNL     1      -4.136  -1.272 -32.855  1.00  0.00     0.034 A 
HETATM    3  C   UNL     1      -5.452  -0.816 -32.707  1.00  0.00     0.103 A 
HETATM    4  C   UNL     1      -5.771   0.022 -31.643  1.00  0.00     0.083 A 
HETATM    5  N   UNL     1      -7.103   0.275 -31.833  1.00  0.00    -0.151 N 
HETATM    6  C   UNL     1      -7.559  -0.425 -32.921  1.00  0.00     0.734 A 
HETATM    7  N   UNL     1      -8.853  -0.414 -33.311  1.00  0.00    -0.033 NA
HETATM    8  C   UNL     1      -9.704   0.261 -32.628  1.00  0.00     0.193 A 
HETATM    9  N   UNL     1      -9.390   1.020 -31.499  1.00  0.00    -0.338 N 
HETATM   10  C   UNL     1      -8.003   1.089 -31.045  1.00  0.00     0.246 A 
HETATM   11  N   UNL     1      -6.558  -1.069 -33.480  1.00  0.00    -0.060 NA
HETATM   12  C   UNL     1      -4.831   0.434 -30.692  1.00  0.00     0.033 A 
HETATM   13  C   UNL     1      -3.522  -0.033 -30.856  1.00  0.00     0.002 A 
HETATM   14  H   UNL     1     -10.113   1.479 -30.961  1.00  0.00     0.164 HD
ENDROOT
BRANCH  10  15
HETATM   15  C   UNL     1      -7.627   2.564 -31.022  1.00  0.00     0.020 A 
HETATM   16  C   UNL     1      -7.427   3.261 -32.229  1.00  0.00     0.085 A 
HETATM   17  C   UNL     1      -7.104   4.621 -32.241  1.00  0.00     0.039 A 
HETATM   18  C   UNL     1      -6.912   5.297 -31.038  1.00  0.00     0.022 A 
HETATM   19  C   UNL     1      -7.049   4.613 -29.833  1.00  0.00     0.011 A 
HETATM   20 BR   UNL     1      -6.776   5.526 -28.202  1.00  0.00    -0.051 Br
HETATM   21  C   UNL     1      -7.395   3.260 -29.818  1.00  0.00     0.033 A 
BRANCH  16  22
HETATM   22  O   UNL     1      -7.617   2.606 -33.418  1.00  0.00    -0.289 OA
BRANCH  22  23
HETATM   23  C   UNL     1      -6.470   2.731 -34.258  1.00  0.00     0.505 C 
HETATM   24  F   UNL     1      -5.369   2.508 -33.483  1.00  0.00    -0.184 F 
HETATM   25  F   UNL     1      -6.514   1.710 -35.145  1.00  0.00    -0.184 F 
ENDBRANCH  22  23
ENDBRANCH  16  22
ENDBRANCH  10  15
BRANCH   8  26
HETATM   26  N   UNL     1     -11.017   0.306 -32.931  1.00  0.00    -0.272 NA
HETATM   27  H   UNL     1     -11.260   1.175 -33.401  1.00  0.00     0.127 HD
HETATM   28  H   UNL     1     -11.669   0.083 -32.191  1.00  0.00     0.127 HD
ENDBRANCH   8  26
TORSDOF 4
ENDMDL
MODEL 8
REMARK VINA RESULT:      -7.1      2.915      4.144
REMARK  4 active torsions:
REMARK  status: ('A' for Active; 'I' for Inactive)
REMARK    1  A    between atoms: C_8  and  N_9 
REMARK    2  A    between atoms: C_11  and  C_12 
REMARK    3  A    between atoms: C_13  and  O_14 
REMARK    4  A    between atoms: O_14  and  C_15 
ROOT
HETATM    1  C   UNL     1      -3.710  -2.147 -32.787  1.00  0.00     0.002 A 
HETATM    2  C   UNL     1      -4.644  -2.124 -33.829  1.00  0.00     0.034 A 
HETATM    3  C   UNL     1      -5.609  -1.109 -33.846  1.00  0.00     0.103 A 
HETATM    4  C   UNL     1      -5.615  -0.153 -32.835  1.00  0.00     0.083 A 
HETATM    5  N   UNL     1      -6.652   0.668 -33.187  1.00  0.00    -0.151 N 
HETATM    6  C   UNL     1      -7.264   0.185 -34.316  1.00  0.00     0.734 A 
HETATM    7  N   UNL     1      -8.360   0.760 -34.860  1.00  0.00    -0.033 NA
HETATM    8  C   UNL     1      -8.871   1.791 -34.290  1.00  0.00     0.193 A 
HETATM    9  N   UNL     1      -8.360   2.393 -33.138  1.00  0.00    -0.338 N 
HETATM   10  C   UNL     1      -7.153   1.851 -32.521  1.00  0.00     0.246 A 
HETATM   11  N   UNL     1      -6.621  -0.879 -34.743  1.00  0.00    -0.060 NA
HETATM   12  C   UNL     1      -4.694  -0.155 -31.781  1.00  0.00     0.033 A 
HETATM   13  C   UNL     1      -3.738  -1.177 -31.782  1.00  0.00     0.002 A 
HETATM   14  H   UNL     1      -8.842   3.165 -32.696  1.00  0.00     0.164 HD
ENDROOT
BRANCH  10  15
HETATM   15  C   UNL     1      -6.144   2.990 -32.466  1.00  0.00     0.020 A 
HETATM   16  C   UNL     1      -5.873   3.633 -31.243  1.00  0.00     0.085 A 
HETATM   17  C   UNL     1      -4.935   4.666 -31.155  1.00  0.00     0.039 A 
HETATM   18  C   UNL     1      -4.295   5.119 -32.306  1.00  0.00     0.022 A 
HETATM   19  C   UNL     1      -4.590   4.534 -33.535  1.00  0.00     0.011 A 
HETATM   20 BR   UNL     1      -3.731   5.156 -35.098  1.00  0.00    -0.051 Br
HETATM   21  C   UNL     1      -5.509   3.486 -33.622  1.00  0.00     0.033 A 
BRANCH  16  22
HETATM   22  O   UNL     1      -6.495   3.193 -30.103  1.00  0.00    -0.289 OA
BRANCH  22  23
HETATM   23  C   UNL     1      -7.589   4.042 -29.759  1.00  0.00     0.505 C 
HETATM   24  F   UNL     1      -8.706   3.262 -29.690  1.00  0.00    -0.184 F 
HETATM   25  F   UNL     1      -7.367   4.486 -28.501  1.00  0.00    -0.184 F 
ENDBRANCH  22  23
ENDBRANCH  16  22
ENDBRANCH  10  15
BRANCH   8  26
HETATM   26  N   UNL     1      -9.976   2.410 -34.750  1.00  0.00    -0.272 NA
HETATM   27  H   UNL     1     -10.589   2.691 -33.988  1.00  0.00     0.127 HD
HETATM   28  H   UNL     1     -10.486   1.953 -35.493  1.00  0.00     0.127 HD
ENDBRANCH   8  26
TORSDOF 4
ENDMDL
MODEL 9
REMARK VINA RESULT:      -7.1      3.483      4.851
REMARK  4 active torsions:
REMARK  status: ('A' for Active; 'I' for Inactive)
REMARK    1  A    between atoms: C_8  and  N_9 
REMARK    2  A    between atoms: C_11  and  C_12 
REMARK    3  A    between atoms: C_13  and  O_14 
REMARK    4  A    between atoms: O_14  and  C_15 
ROOT
HETATM    1  C   UNL     1      -9.877   1.447 -33.010  1.00  0.00     0.002 A 
HETATM    2  C   UNL     1      -9.211   0.472 -32.257  1.00  0.00     0.034 A 
HETATM    3  C   UNL     1      -7.827   0.591 -32.076  1.00  0.00     0.103 A 
HETATM    4  C   UNL     1      -7.153   1.669 -32.643  1.00  0.00     0.083 A 
HETATM    5  N   UNL     1      -5.858   1.470 -32.244  1.00  0.00    -0.151 N 
HETATM    6  C   UNL     1      -5.764   0.303 -31.530  1.00  0.00     0.734 A 
HETATM    7  N   UNL     1      -4.592  -0.178 -31.061  1.00  0.00    -0.033 NA
HETATM    8  C   UNL     1      -3.510   0.466 -31.308  1.00  0.00     0.193 A 
HETATM    9  N   UNL     1      -3.448   1.665 -32.022  1.00  0.00    -0.338 N 
HETATM   10  C   UNL     1      -4.682   2.266 -32.521  1.00  0.00     0.246 A 
HETATM   11  N   UNL     1      -6.961  -0.226 -31.395  1.00  0.00    -0.060 NA
HETATM   12  C   UNL     1      -7.794   2.654 -33.401  1.00  0.00     0.033 A 
HETATM   13  C   UNL     1      -9.177   2.517 -33.571  1.00  0.00     0.002 A 
HETATM   14  H   UNL     1      -2.559   2.096 -32.242  1.00  0.00     0.164 HD
ENDROOT
BRANCH  10  15
HETATM   15  C   UNL     1      -4.747   3.671 -31.938  1.00  0.00     0.020 A 
HETATM   16  C   UNL     1      -4.240   4.763 -32.670  1.00  0.00     0.085 A 
HETATM   17  C   UNL     1      -4.307   6.067 -32.172  1.00  0.00     0.039 A 
HETATM   18  C   UNL     1      -4.828   6.297 -30.901  1.00  0.00     0.022 A 
HETATM   19  C   UNL     1      -5.283   5.225 -30.138  1.00  0.00     0.011 A 
HETATM   20 BR   UNL     1      -5.979   5.535 -28.409  1.00  0.00    -0.051 Br
HETATM   21  C   UNL     1      -5.239   3.923 -30.642  1.00  0.00     0.033 A 
BRANCH  16  22
HETATM   22  O   UNL     1      -3.728   4.548 -33.923  1.00  0.00    -0.289 OA
BRANCH  22  23
HETATM   23  C   UNL     1      -2.399   5.057 -34.025  1.00  0.00     0.505 C 
HETATM   24  F   UNL     1      -1.620   4.343 -33.162  1.00  0.00    -0.184 F 
HETATM   25  F   UNL     1      -1.952   4.756 -35.266  1.00  0.00    -0.184 F 
ENDBRANCH  22  23
ENDBRANCH  16  22
ENDBRANCH  10  15
BRANCH   8  26
HETATM   26  N   UNL     1      -2.296   0.044 -30.901  1.00  0.00    -0.272 NA
HETATM   27  H   UNL     1      -1.578   0.738 -31.095  1.00  0.00     0.127 HD
HETATM   28  H   UNL     1      -2.011  -0.882 -31.185  1.00  0.00     0.127 HD
ENDBRANCH   8  26
TORSDOF 4
ENDMDL
MODEL 10
REMARK VINA RESULT:      -6.9     15.291     16.651
REMARK  4 active torsions:
REMARK  status: ('A' for Active; 'I' for Inactive)
REMARK    1  A    between atoms: C_8  and  N_9 
REMARK    2  A    between atoms: C_11  and  C_12 
REMARK    3  A    between atoms: C_13  and  O_14 
REMARK    4  A    between atoms: O_14  and  C_15 
ROOT
HETATM    1  C   UNL     1     -10.586 -13.970 -39.932  1.00  0.00     0.002 A 
HETATM    2  C   UNL     1      -9.831 -14.663 -40.885  1.00  0.00     0.034 A 
HETATM    3  C   UNL     1      -8.451 -14.432 -40.949  1.00  0.00     0.103 A 
HETATM    4  C   UNL     1      -7.867 -13.526 -40.068  1.00  0.00     0.083 A 
HETATM    5  N   UNL     1      -6.540 -13.579 -40.402  1.00  0.00    -0.151 N 
HETATM    6  C   UNL     1      -6.360 -14.427 -41.464  1.00  0.00     0.734 A 
HETATM    7  N   UNL     1      -5.158 -14.629 -42.048  1.00  0.00    -0.033 NA
HETATM    8  C   UNL     1      -4.137 -13.987 -41.610  1.00  0.00     0.193 A 
HETATM    9  N   UNL     1      -4.165 -13.091 -40.539  1.00  0.00    -0.338 N 
HETATM   10  C   UNL     1      -5.422 -12.857 -39.834  1.00  0.00     0.246 A 
HETATM   11  N   UNL     1      -7.511 -14.976 -41.788  1.00  0.00    -0.060 NA
HETATM   12  C   UNL     1      -8.598 -12.819 -39.109  1.00  0.00     0.033 A 
HETATM   13  C   UNL     1      -9.976 -13.063 -39.061  1.00  0.00     0.002 A 
HETATM   14  H   UNL     1      -3.342 -12.563 -40.278  1.00  0.00     0.164 HD
ENDROOT
BRANCH  10  15
HETATM   15  C   UNL     1      -5.167 -13.187 -38.369  1.00  0.00     0.020 A 
HETATM   16  C   UNL     1      -4.075 -12.606 -37.695  1.00  0.00     0.085 A 
HETATM   17  C   UNL     1      -3.829 -12.870 -36.345  1.00  0.00     0.039 A 
HETATM   18  C   UNL     1      -4.635 -13.774 -35.658  1.00  0.00     0.022 A 
HETATM   19  C   UNL     1      -5.686 -14.403 -36.321  1.00  0.00     0.011 A 
HETATM   20 BR   UNL     1      -6.773 -15.639 -35.394  1.00  0.00    -0.051 Br
HETATM   21  C   UNL     1      -5.949 -14.123 -37.664  1.00  0.00     0.033 A 
BRANCH  16  22
HETATM   22  O   UNL     1      -3.277 -11.712 -38.360  1.00  0.00    -0.289 OA
BRANCH  22  23
HETATM   23  C   UNL     1      -1.897 -12.005 -38.149  1.00  0.00     0.505 C 
HETATM   24  F   UNL     1      -1.502 -12.853 -39.142  1.00  0.00    -0.184 F 
HETATM   25  F   UNL     1      -1.212 -10.855 -38.347  1.00  0.00    -0.184 F 
ENDBRANCH  22  23
ENDBRANCH  16  22
ENDBRANCH  10  15
BRANCH   8  26
HETATM   26  N   UNL     1      -2.907 -14.108 -42.149  1.00  0.00    -0.272 NA
HETATM   27  H   UNL     1      -2.547 -15.054 -42.043  1.00  0.00     0.127 HD
HETATM   28  H   UNL     1      -2.221 -13.413 -41.891  1.00  0.00     0.127 HD
ENDBRANCH   8  26
TORSDOF 4
ENDMDL
