MODEL 1
REMARK VINA RESULT:      -7.9      0.000      0.000
REMARK  6 active torsions:
REMARK  status: ('A' for Active; 'I' for Inactive)
REMARK    1  A    between atoms: N_2  and  C_4 
REMARK    2  A    between atoms: N_2  and  C_16 
REMARK    3  A    between atoms: C_4  and  C_5 
REMARK       I    between atoms: C_5  and  N_6 
REMARK    4  A    between atoms: N_6  and  C_7 
REMARK    5  A    between atoms: C_16  and  C_17 
REMARK    6  A    between atoms: C_18  and  C_19 
ROOT
HETATM    1  C   UNL     1      -8.619   0.364 -34.310  1.00  0.00     0.270 C 
HETATM    2  N   UNL     1      -8.580   0.252 -32.812  1.00  0.00    -0.063 N 
HETATM    3  H   UNL     1      -9.192  -0.534 -32.558  1.00  0.00     0.280 HD
ENDROOT
BRANCH   2   4
HETATM    4  C   UNL     1      -7.183  -0.117 -32.287  1.00  0.00     0.337 C 
BRANCH   4   5
HETATM    5  C   UNL     1      -6.006   0.368 -33.130  1.00  0.00     0.248 C 
HETATM    6  N   UNL     1      -5.256  -0.481 -33.888  1.00  0.00    -0.326 N 
HETATM    7  H   UNL     1      -4.536   0.039 -34.388  1.00  0.00     0.169 HD
HETATM    8  O   UNL     1      -5.705   1.566 -33.145  1.00  0.00    -0.271 OA
BRANCH   6   9
HETATM    9  C   UNL     1      -5.268  -1.868 -34.132  1.00  0.00     0.040 A 
HETATM   10  C   UNL     1      -6.253  -2.574 -34.821  1.00  0.00     0.072 A 
HETATM   11  C   UNL     1      -6.130  -3.956 -35.002  1.00  0.00     0.121 A 
HETATM   12  F   UNL     1      -7.091  -4.604 -35.675  1.00  0.00    -0.206 F 
HETATM   13  C   UNL     1      -5.049  -4.665 -34.507  1.00  0.00     0.084 A 
HETATM   14  C   UNL     1      -4.078  -3.968 -33.813  1.00  0.00     0.121 A 
HETATM   15  F   UNL     1      -3.021  -4.622 -33.316  1.00  0.00    -0.206 F 
HETATM   16  C   UNL     1      -4.178  -2.589 -33.621  1.00  0.00     0.072 A 
ENDBRANCH   6   9
ENDBRANCH   4   5
ENDBRANCH   2   4
BRANCH   2  17
HETATM   17  C   UNL     1      -9.175   1.465 -32.124  1.00  0.00     0.277 C 
BRANCH  17  18
HETATM   18  C   UNL     1      -9.573   2.530 -33.084  1.00  0.00     0.016 A 
HETATM   19  C   UNL     1     -10.836   2.799 -33.694  1.00  0.00     0.103 A 
HETATM   20  N   UNL     1     -10.759   3.861 -34.507  1.00  0.00    -0.173 NA
HETATM   21  N   UNL     1      -9.504   4.300 -34.395  1.00  0.00    -0.288 N 
HETATM   22  H   UNL     1      -9.234   5.133 -34.916  1.00  0.00     0.188 HD
HETATM   23  C   UNL     1      -8.743   3.527 -33.572  1.00  0.00     0.120 A 
BRANCH  19  24
HETATM   24  C   UNL     1     -12.149   2.066 -33.559  1.00  0.00     0.035 A 
HETATM   25  S   UNL     1     -13.619   2.727 -32.993  1.00  0.00    -0.100 SA
HETATM   26  C   UNL     1     -14.457   1.254 -33.205  1.00  0.00     0.050 A 
HETATM   27  C   UNL     1     -13.632   0.264 -33.687  1.00  0.00     0.008 A 
HETATM   28  C   UNL     1     -12.301   0.732 -33.888  1.00  0.00     0.022 A 
ENDBRANCH  19  24
ENDBRANCH  17  18
ENDBRANCH   2  17
TORSDOF 6
ENDMDL
MODEL 2
REMARK VINA RESULT:      -7.9      5.186      7.525
REMARK  6 active torsions:
REMARK  status: ('A' for Active; 'I' for Inactive)
REMARK    1  A    between atoms: N_2  and  C_4 
REMARK    2  A    between atoms: N_2  and  C_16 
REMARK    3  A    between atoms: C_4  and  C_5 
REMARK       I    between atoms: C_5  and  N_6 
REMARK    4  A    between atoms: N_6  and  C_7 
REMARK    5  A    between atoms: C_16  and  C_17 
REMARK    6  A    between atoms: C_18  and  C_19 
ROOT
HETATM    1  C   UNL     1      -3.439  -0.767 -31.591  1.00  0.00     0.270 C 
HETATM    2  N   UNL     1      -4.612   0.120 -31.279  1.00  0.00    -0.063 N 
HETATM    3  H   UNL     1      -4.648   0.215 -30.257  1.00  0.00     0.280 HD
ENDROOT
BRANCH   2   4
HETATM    4  C   UNL     1      -4.432   1.544 -31.829  1.00  0.00     0.337 C 
BRANCH   4   5
HETATM    5  C   UNL     1      -4.564   2.672 -30.809  1.00  0.00     0.248 C 
HETATM    6  N   UNL     1      -3.883   3.847 -30.932  1.00  0.00    -0.326 N 
HETATM    7  H   UNL     1      -4.123   4.473 -30.164  1.00  0.00     0.169 HD
HETATM    8  O   UNL     1      -5.308   2.542 -29.832  1.00  0.00    -0.271 OA
BRANCH   6   9
HETATM    9  C   UNL     1      -2.964   4.370 -31.862  1.00  0.00     0.040 A 
HETATM   10  C   UNL     1      -3.125   4.405 -33.247  1.00  0.00     0.072 A 
HETATM   11  C   UNL     1      -2.132   4.969 -34.055  1.00  0.00     0.121 A 
HETATM   12  F   UNL     1      -2.321   4.994 -35.381  1.00  0.00    -0.206 F 
HETATM   13  C   UNL     1      -0.969   5.497 -33.523  1.00  0.00     0.084 A 
HETATM   14  C   UNL     1      -0.802   5.451 -32.151  1.00  0.00     0.121 A 
HETATM   15  F   UNL     1       0.312   5.948 -31.603  1.00  0.00    -0.206 F 
HETATM   16  C   UNL     1      -1.780   4.895 -31.324  1.00  0.00     0.072 A 
ENDBRANCH   6   9
ENDBRANCH   4   5
ENDBRANCH   2   4
BRANCH   2  17
HETATM   17  C   UNL     1      -5.935  -0.509 -31.673  1.00  0.00     0.277 C 
BRANCH  17  18
HETATM   18  C   UNL     1      -6.341  -0.166 -33.063  1.00  0.00     0.016 A 
HETATM   19  C   UNL     1      -6.377  -0.973 -34.241  1.00  0.00     0.103 A 
HETATM   20  N   UNL     1      -6.807  -0.266 -35.294  1.00  0.00    -0.173 NA
HETATM   21  N   UNL     1      -7.087   0.947 -34.812  1.00  0.00    -0.288 N 
HETATM   22  H   UNL     1      -7.465   1.646 -35.450  1.00  0.00     0.188 HD
HETATM   23  C   UNL     1      -6.807   1.068 -33.485  1.00  0.00     0.120 A 
BRANCH  19  24
HETATM   24  C   UNL     1      -5.993  -2.421 -34.432  1.00  0.00     0.035 A 
HETATM   25  S   UNL     1      -4.425  -3.078 -34.268  1.00  0.00    -0.100 SA
HETATM   26  C   UNL     1      -4.962  -4.659 -34.632  1.00  0.00     0.050 A 
HETATM   27  C   UNL     1      -6.313  -4.691 -34.889  1.00  0.00     0.008 A 
HETATM   28  C   UNL     1      -6.906  -3.400 -34.777  1.00  0.00     0.022 A 
ENDBRANCH  19  24
ENDBRANCH  17  18
ENDBRANCH   2  17
TORSDOF 6
ENDMDL
MODEL 3
REMARK VINA RESULT:      -7.9      2.871      4.367
REMARK  6 active torsions:
REMARK  status: ('A' for Active; 'I' for Inactive)
REMARK    1  A    between atoms: N_2  and  C_4 
REMARK    2  A    between atoms: N_2  and  C_16 
REMARK    3  A    between atoms: C_4  and  C_5 
REMARK       I    between atoms: C_5  and  N_6 
REMARK    4  A    between atoms: N_6  and  C_7 
REMARK    5  A    between atoms: C_16  and  C_17 
REMARK    6  A    between atoms: C_18  and  C_19 
ROOT
HETATM    1  C   UNL     1      -5.201   2.755 -30.321  1.00  0.00     0.270 C 
HETATM    2  N   UNL     1      -5.727   1.507 -30.972  1.00  0.00    -0.063 N 
HETATM    3  H   UNL     1      -5.629   1.637 -31.986  1.00  0.00     0.280 HD
ENDROOT
BRANCH   2   4
HETATM    4  C   UNL     1      -4.889   0.266 -30.624  1.00  0.00     0.337 C 
BRANCH   4   5
HETATM    5  C   UNL     1      -3.593   0.096 -31.413  1.00  0.00     0.248 C 
HETATM    6  N   UNL     1      -3.552  -0.544 -32.616  1.00  0.00    -0.326 N 
HETATM    7  H   UNL     1      -2.603  -0.533 -32.986  1.00  0.00     0.169 HD
HETATM    8  O   UNL     1      -2.532   0.547 -30.969  1.00  0.00    -0.271 OA
BRANCH   6   9
HETATM    9  C   UNL     1      -4.504  -1.183 -33.434  1.00  0.00     0.040 A 
HETATM   10  C   UNL     1      -5.608  -0.580 -34.036  1.00  0.00     0.072 A 
HETATM   11  C   UNL     1      -6.469  -1.336 -34.839  1.00  0.00     0.121 A 
HETATM   12  F   UNL     1      -7.517  -0.724 -35.408  1.00  0.00    -0.206 F 
HETATM   13  C   UNL     1      -6.268  -2.687 -35.057  1.00  0.00     0.084 A 
HETATM   14  C   UNL     1      -5.181  -3.289 -34.450  1.00  0.00     0.121 A 
HETATM   15  F   UNL     1      -4.958  -4.595 -34.636  1.00  0.00    -0.206 F 
HETATM   16  C   UNL     1      -4.307  -2.556 -33.647  1.00  0.00     0.072 A 
ENDBRANCH   6   9
ENDBRANCH   4   5
ENDBRANCH   2   4
BRANCH   2  17
HETATM   17  C   UNL     1      -7.212   1.310 -30.732  1.00  0.00     0.277 C 
BRANCH  17  18
HETATM   18  C   UNL     1      -8.003   1.324 -31.992  1.00  0.00     0.016 A 
HETATM   19  C   UNL     1      -7.965   2.228 -33.097  1.00  0.00     0.103 A 
HETATM   20  N   UNL     1      -8.856   1.878 -34.033  1.00  0.00    -0.173 NA
HETATM   21  N   UNL     1      -9.422   0.758 -33.580  1.00  0.00    -0.288 N 
HETATM   22  H   UNL     1     -10.120   0.298 -34.163  1.00  0.00     0.188 HD
HETATM   23  C   UNL     1      -8.964   0.392 -32.351  1.00  0.00     0.120 A 
BRANCH  19  24
HETATM   24  C   UNL     1      -7.116   3.459 -33.309  1.00  0.00     0.035 A 
HETATM   25  S   UNL     1      -7.374   4.995 -32.608  1.00  0.00    -0.100 SA
HETATM   26  C   UNL     1      -6.001   5.664 -33.371  1.00  0.00     0.050 A 
HETATM   27  C   UNL     1      -5.357   4.740 -34.161  1.00  0.00     0.008 A 
HETATM   28  C   UNL     1      -6.002   3.470 -34.128  1.00  0.00     0.022 A 
ENDBRANCH  19  24
ENDBRANCH  17  18
ENDBRANCH   2  17
TORSDOF 6
ENDMDL
MODEL 4
REMARK VINA RESULT:      -7.8      4.284      5.931
REMARK  6 active torsions:
REMARK  status: ('A' for Active; 'I' for Inactive)
REMARK    1  A    between atoms: N_2  and  C_4 
REMARK    2  A    between atoms: N_2  and  C_16 
REMARK    3  A    between atoms: C_4  and  C_5 
REMARK       I    between atoms: C_5  and  N_6 
REMARK    4  A    between atoms: N_6  and  C_7 
REMARK    5  A    between atoms: C_16  and  C_17 
REMARK    6  A    between atoms: C_18  and  C_19 
ROOT
HETATM    1  C   UNL     1      -5.064   3.343 -30.504  1.00  0.00     0.270 C 
HETATM    2  N   UNL     1      -3.666   3.328 -31.055  1.00  0.00    -0.063 N 
HETATM    3  H   UNL     1      -3.047   3.050 -30.283  1.00  0.00     0.280 HD
ENDROOT
BRANCH   2   4
HETATM    4  C   UNL     1      -3.478   2.265 -32.149  1.00  0.00     0.337 C 
BRANCH   4   5
HETATM    5  C   UNL     1      -3.513   0.813 -31.680  1.00  0.00     0.248 C 
HETATM    6  N   UNL     1      -4.570  -0.009 -31.934  1.00  0.00    -0.326 N 
HETATM    7  H   UNL     1      -4.390  -0.938 -31.557  1.00  0.00     0.169 HD
HETATM    8  O   UNL     1      -2.561   0.342 -31.048  1.00  0.00    -0.271 OA
BRANCH   6   9
HETATM    9  C   UNL     1      -5.806   0.139 -32.593  1.00  0.00     0.040 A 
HETATM   10  C   UNL     1      -6.000   0.207 -33.972  1.00  0.00     0.072 A 
HETATM   11  C   UNL     1      -7.292   0.341 -34.494  1.00  0.00     0.121 A 
HETATM   12  F   UNL     1      -7.444   0.397 -35.824  1.00  0.00    -0.206 F 
HETATM   13  C   UNL     1      -8.406   0.418 -33.677  1.00  0.00     0.084 A 
HETATM   14  C   UNL     1      -8.213   0.364 -32.309  1.00  0.00     0.121 A 
HETATM   15  F   UNL     1      -9.268   0.439 -31.488  1.00  0.00    -0.206 F 
HETATM   16  C   UNL     1      -6.935   0.228 -31.765  1.00  0.00     0.072 A 
ENDBRANCH   6   9
ENDBRANCH   4   5
ENDBRANCH   2   4
BRANCH   2  17
HETATM   17  C   UNL     1      -3.194   4.707 -31.475  1.00  0.00     0.277 C 
BRANCH  17  18
HETATM   18  C   UNL     1      -3.247   4.907 -32.948  1.00  0.00     0.016 A 
HETATM   19  C   UNL     1      -4.369   5.047 -33.822  1.00  0.00     0.103 A 
HETATM   20  N   UNL     1      -3.971   5.206 -35.091  1.00  0.00    -0.173 NA
HETATM   21  N   UNL     1      -2.637   5.217 -35.043  1.00  0.00    -0.288 N 
HETATM   22  H   UNL     1      -2.123   5.360 -35.911  1.00  0.00     0.188 HD
HETATM   23  C   UNL     1      -2.150   5.020 -33.787  1.00  0.00     0.120 A 
BRANCH  19  24
HETATM   24  C   UNL     1      -5.846   5.018 -33.509  1.00  0.00     0.035 A 
HETATM   25  S   UNL     1      -6.718   6.207 -32.648  1.00  0.00    -0.100 SA
HETATM   26  C   UNL     1      -8.192   5.361 -32.812  1.00  0.00     0.050 A 
HETATM   27  C   UNL     1      -8.029   4.182 -33.501  1.00  0.00     0.008 A 
HETATM   28  C   UNL     1      -6.675   3.983 -33.899  1.00  0.00     0.022 A 
ENDBRANCH  19  24
ENDBRANCH  17  18
ENDBRANCH   2  17
TORSDOF 6
ENDMDL
MODEL 5
REMARK VINA RESULT:      -7.8      5.549      7.523
REMARK  6 active torsions:
REMARK  status: ('A' for Active; 'I' for Inactive)
REMARK    1  A    between atoms: N_2  and  C_4 
REMARK    2  A    between atoms: N_2  and  C_16 
REMARK    3  A    between atoms: C_4  and  C_5 
REMARK       I    between atoms: C_5  and  N_6 
REMARK    4  A    between atoms: N_6  and  C_7 
REMARK    5  A    between atoms: C_16  and  C_17 
REMARK    6  A    between atoms: C_18  and  C_19 
ROOT
HETATM    1  C   UNL     1      -5.354   4.094 -34.486  1.00  0.00     0.270 C 
HETATM    2  N   UNL     1      -6.050   3.460 -33.315  1.00  0.00    -0.063 N 
HETATM    3  H   UNL     1      -5.685   2.503 -33.236  1.00  0.00     0.280 HD
ENDROOT
BRANCH   2   4
HETATM    4  C   UNL     1      -5.709   4.152 -31.985  1.00  0.00     0.337 C 
BRANCH   4   5
HETATM    5  C   UNL     1      -4.538   3.557 -31.207  1.00  0.00     0.248 C 
HETATM    6  N   UNL     1      -3.269   4.043 -31.318  1.00  0.00    -0.326 N 
HETATM    7  H   UNL     1      -2.641   3.525 -30.706  1.00  0.00     0.169 HD
HETATM    8  O   UNL     1      -4.720   2.605 -30.442  1.00  0.00    -0.271 OA
BRANCH   6   9
HETATM    9  C   UNL     1      -2.662   5.075 -32.059  1.00  0.00     0.040 A 
HETATM   10  C   UNL     1      -2.597   6.420 -31.696  1.00  0.00     0.072 A 
HETATM   11  C   UNL     1      -1.947   7.341 -32.526  1.00  0.00     0.121 A 
HETATM   12  F   UNL     1      -1.896   8.624 -32.144  1.00  0.00    -0.206 F 
HETATM   13  C   UNL     1      -1.363   6.963 -33.722  1.00  0.00     0.084 A 
HETATM   14  C   UNL     1      -1.439   5.632 -34.090  1.00  0.00     0.121 A 
HETATM   15  F   UNL     1      -0.889   5.231 -35.242  1.00  0.00    -0.206 F 
HETATM   16  C   UNL     1      -2.079   4.694 -33.278  1.00  0.00     0.072 A 
ENDBRANCH   6   9
ENDBRANCH   4   5
ENDBRANCH   2   4
BRANCH   2  17
HETATM   17  C   UNL     1      -7.542   3.306 -33.541  1.00  0.00     0.277 C 
BRANCH  17  18
HETATM   18  C   UNL     1      -8.175   2.368 -32.575  1.00  0.00     0.016 A 
HETATM   19  C   UNL     1      -7.960   0.971 -32.367  1.00  0.00     0.103 A 
HETATM   20  N   UNL     1      -8.748   0.506 -31.389  1.00  0.00    -0.173 NA
HETATM   21  N   UNL     1      -9.419   1.569 -30.941  1.00  0.00    -0.288 N 
HETATM   22  H   UNL     1     -10.063   1.442 -30.162  1.00  0.00     0.188 HD
HETATM   23  C   UNL     1      -9.130   2.707 -31.630  1.00  0.00     0.120 A 
BRANCH  19  24
HETATM   24  C   UNL     1      -7.032   0.020 -33.083  1.00  0.00     0.035 A 
HETATM   25  S   UNL     1      -5.401  -0.291 -32.682  1.00  0.00    -0.100 SA
HETATM   26  C   UNL     1      -5.220  -1.422 -33.950  1.00  0.00     0.050 A 
HETATM   27  C   UNL     1      -6.378  -1.556 -34.681  1.00  0.00     0.008 A 
HETATM   28  C   UNL     1      -7.421  -0.722 -34.184  1.00  0.00     0.022 A 
ENDBRANCH  19  24
ENDBRANCH  17  18
ENDBRANCH   2  17
TORSDOF 6
ENDMDL
MODEL 6
REMARK VINA RESULT:      -7.7      4.266      6.732
REMARK  6 active torsions:
REMARK  status: ('A' for Active; 'I' for Inactive)
REMARK    1  A    between atoms: N_2  and  C_4 
REMARK    2  A    between atoms: N_2  and  C_16 
REMARK    3  A    between atoms: C_4  and  C_5 
REMARK       I    between atoms: C_5  and  N_6 
REMARK    4  A    between atoms: N_6  and  C_7 
REMARK    5  A    between atoms: C_16  and  C_17 
REMARK    6  A    between atoms: C_18  and  C_19 
ROOT
HETATM    1  C   UNL     1      -8.059   3.980 -33.460  1.00  0.00     0.270 C 
HETATM    2  N   UNL     1      -7.003   2.910 -33.462  1.00  0.00    -0.063 N 
HETATM    3  H   UNL     1      -6.970   2.525 -32.510  1.00  0.00     0.280 HD
ENDROOT
BRANCH   2   4
HETATM    4  C   UNL     1      -7.363   1.732 -34.381  1.00  0.00     0.337 C 
BRANCH   4   5
HETATM    5  C   UNL     1      -8.320   0.698 -33.794  1.00  0.00     0.248 C 
HETATM    6  N   UNL     1      -7.946  -0.593 -33.565  1.00  0.00    -0.326 N 
HETATM    7  H   UNL     1      -8.719  -1.114 -33.153  1.00  0.00     0.169 HD
HETATM    8  O   UNL     1      -9.478   1.017 -33.504  1.00  0.00    -0.271 OA
BRANCH   6   9
HETATM    9  C   UNL     1      -6.763  -1.332 -33.755  1.00  0.00     0.040 A 
HETATM   10  C   UNL     1      -5.538  -1.099 -33.132  1.00  0.00     0.072 A 
HETATM   11  C   UNL     1      -4.442  -1.926 -33.406  1.00  0.00     0.121 A 
HETATM   12  F   UNL     1      -3.281  -1.679 -32.784  1.00  0.00    -0.206 F 
HETATM   13  C   UNL     1      -4.527  -2.981 -34.296  1.00  0.00     0.084 A 
HETATM   14  C   UNL     1      -5.738  -3.205 -34.925  1.00  0.00     0.121 A 
HETATM   15  F   UNL     1      -5.855  -4.215 -35.795  1.00  0.00    -0.206 F 
HETATM   16  C   UNL     1      -6.845  -2.396 -34.666  1.00  0.00     0.072 A 
ENDBRANCH   6   9
ENDBRANCH   4   5
ENDBRANCH   2   4
BRANCH   2  17
HETATM   17  C   UNL     1      -5.616   3.466 -33.721  1.00  0.00     0.277 C 
BRANCH  17  18
HETATM   18  C   UNL     1      -4.627   3.040 -32.694  1.00  0.00     0.016 A 
HETATM   19  C   UNL     1      -3.337   3.567 -32.380  1.00  0.00     0.103 A 
HETATM   20  N   UNL     1      -2.770   2.881 -31.379  1.00  0.00    -0.173 NA
HETATM   21  N   UNL     1      -3.676   1.969 -31.020  1.00  0.00    -0.288 N 
HETATM   22  H   UNL     1      -3.457   1.350 -30.241  1.00  0.00     0.188 HD
HETATM   23  C   UNL     1      -4.799   2.006 -31.789  1.00  0.00     0.120 A 
BRANCH  19  24
HETATM   24  C   UNL     1      -2.580   4.711 -33.012  1.00  0.00     0.035 A 
HETATM   25  S   UNL     1      -2.250   6.222 -32.289  1.00  0.00    -0.100 SA
HETATM   26  C   UNL     1      -1.404   6.785 -33.662  1.00  0.00     0.050 A 
HETATM   27  C   UNL     1      -1.380   5.845 -34.666  1.00  0.00     0.008 A 
HETATM   28  C   UNL     1      -2.062   4.651 -34.292  1.00  0.00     0.022 A 
ENDBRANCH  19  24
ENDBRANCH  17  18
ENDBRANCH   2  17
TORSDOF 6
ENDMDL
MODEL 7
REMARK VINA RESULT:      -7.7      4.899      7.901
REMARK  6 active torsions:
REMARK  status: ('A' for Active; 'I' for Inactive)
REMARK    1  A    between atoms: N_2  and  C_4 
REMARK    2  A    between atoms: N_2  and  C_16 
REMARK    3  A    between atoms: C_4  and  C_5 
REMARK       I    between atoms: C_5  and  N_6 
REMARK    4  A    between atoms: N_6  and  C_7 
REMARK    5  A    between atoms: C_16  and  C_17 
REMARK    6  A    between atoms: C_18  and  C_19 
ROOT
HETATM    1  C   UNL     1      -6.631   0.185 -34.598  1.00  0.00     0.270 C 
HETATM    2  N   UNL     1      -6.158   0.810 -33.316  1.00  0.00    -0.063 N 
HETATM    3  H   UNL     1      -5.221   1.189 -33.499  1.00  0.00     0.280 HD
ENDROOT
BRANCH   2   4
HETATM    4  C   UNL     1      -7.022   2.010 -32.894  1.00  0.00     0.337 C 
BRANCH   4   5
HETATM    5  C   UNL     1      -6.618   2.695 -31.591  1.00  0.00     0.248 C 
HETATM    6  N   UNL     1      -5.558   3.548 -31.516  1.00  0.00    -0.326 N 
HETATM    7  H   UNL     1      -5.469   3.913 -30.569  1.00  0.00     0.169 HD
HETATM    8  O   UNL     1      -7.260   2.487 -30.556  1.00  0.00    -0.271 OA
BRANCH   6   9
HETATM    9  C   UNL     1      -4.602   4.028 -32.433  1.00  0.00     0.040 A 
HETATM   10  C   UNL     1      -4.852   4.444 -33.740  1.00  0.00     0.072 A 
HETATM   11  C   UNL     1      -3.804   4.913 -34.540  1.00  0.00     0.121 A 
HETATM   12  F   UNL     1      -4.079   5.312 -35.789  1.00  0.00    -0.206 F 
HETATM   13  C   UNL     1      -2.502   4.974 -34.077  1.00  0.00     0.084 A 
HETATM   14  C   UNL     1      -2.250   4.549 -32.785  1.00  0.00     0.121 A 
HETATM   15  F   UNL     1      -1.002   4.590 -32.306  1.00  0.00    -0.206 F 
HETATM   16  C   UNL     1      -3.279   4.080 -31.967  1.00  0.00     0.072 A 
ENDBRANCH   6   9
ENDBRANCH   4   5
ENDBRANCH   2   4
BRANCH   2  17
HETATM   17  C   UNL     1      -5.972  -0.210 -32.209  1.00  0.00     0.277 C 
BRANCH  17  18
HETATM   18  C   UNL     1      -4.542  -0.414 -31.851  1.00  0.00     0.016 A 
HETATM   19  C   UNL     1      -3.651  -1.481 -32.178  1.00  0.00     0.103 A 
HETATM   20  N   UNL     1      -2.439  -1.273 -31.647  1.00  0.00    -0.173 NA
HETATM   21  N   UNL     1      -2.522  -0.090 -31.034  1.00  0.00    -0.288 N 
HETATM   22  H   UNL     1      -1.687   0.280 -30.582  1.00  0.00     0.188 HD
HETATM   23  C   UNL     1      -3.765   0.459 -31.107  1.00  0.00     0.120 A 
BRANCH  19  24
HETATM   24  C   UNL     1      -3.901  -2.737 -32.978  1.00  0.00     0.035 A 
HETATM   25  S   UNL     1      -4.834  -2.856 -34.403  1.00  0.00    -0.100 SA
HETATM   26  C   UNL     1      -4.535  -4.531 -34.556  1.00  0.00     0.050 A 
HETATM   27  C   UNL     1      -3.746  -5.002 -33.533  1.00  0.00     0.008 A 
HETATM   28  C   UNL     1      -3.384  -3.969 -32.621  1.00  0.00     0.022 A 
ENDBRANCH  19  24
ENDBRANCH  17  18
ENDBRANCH   2  17
TORSDOF 6
ENDMDL
MODEL 8
REMARK VINA RESULT:      -7.7      3.598      6.905
REMARK  6 active torsions:
REMARK  status: ('A' for Active; 'I' for Inactive)
REMARK    1  A    between atoms: N_2  and  C_4 
REMARK    2  A    between atoms: N_2  and  C_16 
REMARK    3  A    between atoms: C_4  and  C_5 
REMARK       I    between atoms: C_5  and  N_6 
REMARK    4  A    between atoms: N_6  and  C_7 
REMARK    5  A    between atoms: C_16  and  C_17 
REMARK    6  A    between atoms: C_18  and  C_19 
ROOT
HETATM    1  C   UNL     1      -7.661   5.369 -32.078  1.00  0.00     0.270 C 
HETATM    2  N   UNL     1      -8.591   4.188 -32.105  1.00  0.00    -0.063 N 
HETATM    3  H   UNL     1      -8.861   4.002 -31.131  1.00  0.00     0.280 HD
ENDROOT
BRANCH   2   4
HETATM    4  C   UNL     1      -9.900   4.489 -32.854  1.00  0.00     0.337 C 
BRANCH   4   5
HETATM    5  C   UNL     1      -9.852   4.323 -34.370  1.00  0.00     0.248 C 
HETATM    6  N   UNL     1     -10.546   3.345 -35.017  1.00  0.00    -0.326 N 
HETATM    7  H   UNL     1     -10.397   3.416 -36.023  1.00  0.00     0.169 HD
HETATM    8  O   UNL     1      -9.170   5.090 -35.058  1.00  0.00    -0.271 OA
BRANCH   6   9
HETATM    9  C   UNL     1     -11.403   2.302 -34.614  1.00  0.00     0.040 A 
HETATM   10  C   UNL     1     -12.767   2.207 -34.884  1.00  0.00     0.072 A 
HETATM   11  C   UNL     1     -13.498   1.103 -34.431  1.00  0.00     0.121 A 
HETATM   12  F   UNL     1     -14.806   1.039 -34.714  1.00  0.00    -0.206 F 
HETATM   13  C   UNL     1     -12.908   0.085 -33.702  1.00  0.00     0.084 A 
HETATM   14  C   UNL     1     -11.558   0.185 -33.422  1.00  0.00     0.121 A 
HETATM   15  F   UNL     1     -10.955  -0.780 -32.717  1.00  0.00    -0.206 F 
HETATM   16  C   UNL     1     -10.808   1.274 -33.866  1.00  0.00     0.072 A 
ENDBRANCH   6   9
ENDBRANCH   4   5
ENDBRANCH   2   4
BRANCH   2  17
HETATM   17  C   UNL     1      -7.907   2.922 -32.584  1.00  0.00     0.277 C 
BRANCH  17  18
HETATM   18  C   UNL     1      -7.293   2.146 -31.473  1.00  0.00     0.016 A 
HETATM   19  C   UNL     1      -6.680   0.856 -31.475  1.00  0.00     0.103 A 
HETATM   20  N   UNL     1      -6.257   0.524 -30.249  1.00  0.00    -0.173 NA
HETATM   21  N   UNL     1      -6.539   1.579 -29.482  1.00  0.00    -0.288 N 
HETATM   22  H   UNL     1      -6.268   1.550 -28.500  1.00  0.00     0.188 HD
HETATM   23  C   UNL     1      -7.179   2.571 -30.160  1.00  0.00     0.120 A 
BRANCH  19  24
HETATM   24  C   UNL     1      -6.487  -0.119 -32.612  1.00  0.00     0.035 A 
HETATM   25  S   UNL     1      -5.000  -0.771 -33.139  1.00  0.00    -0.100 SA
HETATM   26  C   UNL     1      -5.747  -1.702 -34.360  1.00  0.00     0.050 A 
HETATM   27  C   UNL     1      -7.110  -1.515 -34.381  1.00  0.00     0.008 A 
HETATM   28  C   UNL     1      -7.536  -0.599 -33.376  1.00  0.00     0.022 A 
ENDBRANCH  19  24
ENDBRANCH  17  18
ENDBRANCH   2  17
TORSDOF 6
ENDMDL
MODEL 9
REMARK VINA RESULT:      -7.7      4.097      5.866
REMARK  6 active torsions:
REMARK  status: ('A' for Active; 'I' for Inactive)
REMARK    1  A    between atoms: N_2  and  C_4 
REMARK    2  A    between atoms: N_2  and  C_16 
REMARK    3  A    between atoms: C_4  and  C_5 
REMARK       I    between atoms: C_5  and  N_6 
REMARK    4  A    between atoms: N_6  and  C_7 
REMARK    5  A    between atoms: C_16  and  C_17 
REMARK    6  A    between atoms: C_18  and  C_19 
ROOT
HETATM    1  C   UNL     1      -5.614   2.526 -30.375  1.00  0.00     0.270 C 
HETATM    2  N   UNL     1      -4.819   1.769 -31.402  1.00  0.00    -0.063 N 
HETATM    3  H   UNL     1      -3.897   2.219 -31.454  1.00  0.00     0.280 HD
ENDROOT
BRANCH   2   4
HETATM    4  C   UNL     1      -4.553   0.314 -30.982  1.00  0.00     0.337 C 
BRANCH   4   5
HETATM    5  C   UNL     1      -3.246  -0.296 -31.483  1.00  0.00     0.248 C 
HETATM    6  N   UNL     1      -3.211  -1.222 -32.481  1.00  0.00    -0.326 N 
HETATM    7  H   UNL     1      -2.247  -1.486 -32.680  1.00  0.00     0.169 HD
HETATM    8  O   UNL     1      -2.170   0.049 -30.983  1.00  0.00    -0.271 OA
BRANCH   6   9
HETATM    9  C   UNL     1      -4.181  -1.861 -33.278  1.00  0.00     0.040 A 
HETATM   10  C   UNL     1      -5.298  -1.259 -33.855  1.00  0.00     0.072 A 
HETATM   11  C   UNL     1      -6.177  -2.016 -34.639  1.00  0.00     0.121 A 
HETATM   12  F   UNL     1      -7.237  -1.405 -35.186  1.00  0.00    -0.206 F 
HETATM   13  C   UNL     1      -5.980  -3.367 -34.860  1.00  0.00     0.084 A 
HETATM   14  C   UNL     1      -4.880  -3.969 -34.277  1.00  0.00     0.121 A 
HETATM   15  F   UNL     1      -4.661  -5.275 -34.467  1.00  0.00    -0.206 F 
HETATM   16  C   UNL     1      -3.988  -3.235 -33.494  1.00  0.00     0.072 A 
ENDBRANCH   6   9
ENDBRANCH   4   5
ENDBRANCH   2   4
BRANCH   2  17
HETATM   17  C   UNL     1      -5.407   1.890 -32.795  1.00  0.00     0.277 C 
BRANCH  17  18
HETATM   18  C   UNL     1      -5.997   3.231 -33.053  1.00  0.00     0.016 A 
HETATM   19  C   UNL     1      -5.369   4.461 -33.417  1.00  0.00     0.103 A 
HETATM   20  N   UNL     1      -6.274   5.440 -33.550  1.00  0.00    -0.173 NA
HETATM   21  N   UNL     1      -7.456   4.860 -33.328  1.00  0.00    -0.288 N 
HETATM   22  H   UNL     1      -8.297   5.428 -33.411  1.00  0.00     0.188 HD
HETATM   23  C   UNL     1      -7.346   3.541 -33.005  1.00  0.00     0.120 A 
BRANCH  19  24
HETATM   24  C   UNL     1      -3.908   4.773 -33.633  1.00  0.00     0.035 A 
HETATM   25  S   UNL     1      -2.676   4.698 -32.453  1.00  0.00    -0.100 SA
HETATM   26  C   UNL     1      -1.469   5.172 -33.565  1.00  0.00     0.050 A 
HETATM   27  C   UNL     1      -1.992   5.398 -34.817  1.00  0.00     0.008 A 
HETATM   28  C   UNL     1      -3.398   5.173 -34.855  1.00  0.00     0.022 A 
ENDBRANCH  19  24
ENDBRANCH  17  18
ENDBRANCH   2  17
TORSDOF 6
ENDMDL
MODEL 10
REMARK VINA RESULT:      -7.6      1.537      2.017
REMARK  6 active torsions:
REMARK  status: ('A' for Active; 'I' for Inactive)
REMARK    1  A    between atoms: N_2  and  C_4 
REMARK    2  A    between atoms: N_2  and  C_16 
REMARK    3  A    between atoms: C_4  and  C_5 
REMARK       I    between atoms: C_5  and  N_6 
REMARK    4  A    between atoms: N_6  and  C_7 
REMARK    5  A    between atoms: C_16  and  C_17 
REMARK    6  A    between atoms: C_18  and  C_19 
ROOT
HETATM    1  C   UNL     1      -6.070   0.988 -29.670  1.00  0.00     0.270 C 
HETATM    2  N   UNL     1      -6.225   1.027 -31.165  1.00  0.00    -0.063 N 
HETATM    3  H   UNL     1      -5.630   1.793 -31.504  1.00  0.00     0.280 HD
ENDROOT
BRANCH   2   4
HETATM    4  C   UNL     1      -5.696  -0.248 -31.842  1.00  0.00     0.337 C 
BRANCH   4   5
HETATM    5  C   UNL     1      -4.500  -0.060 -32.772  1.00  0.00     0.248 C 
HETATM    6  N   UNL     1      -4.114  -1.017 -33.663  1.00  0.00    -0.326 N 
HETATM    7  H   UNL     1      -3.311  -0.692 -34.200  1.00  0.00     0.169 HD
HETATM    8  O   UNL     1      -3.845   0.987 -32.737  1.00  0.00    -0.271 OA
BRANCH   6   9
HETATM    9  C   UNL     1      -4.574  -2.305 -33.999  1.00  0.00     0.040 A 
HETATM   10  C   UNL     1      -5.707  -2.603 -34.754  1.00  0.00     0.072 A 
HETATM   11  C   UNL     1      -6.041  -3.935 -35.024  1.00  0.00     0.121 A 
HETATM   12  F   UNL     1      -7.132  -4.186 -35.760  1.00  0.00    -0.206 F 
HETATM   13  C   UNL     1      -5.279  -4.989 -34.554  1.00  0.00     0.084 A 
HETATM   14  C   UNL     1      -4.162  -4.696 -33.793  1.00  0.00     0.121 A 
HETATM   15  F   UNL     1      -3.404  -5.691 -33.318  1.00  0.00    -0.206 F 
HETATM   16  C   UNL     1      -3.807  -3.375 -33.513  1.00  0.00     0.072 A 
ENDBRANCH   6   9
ENDBRANCH   4   5
ENDBRANCH   2   4
BRANCH   2  17
HETATM   17  C   UNL     1      -7.634   1.389 -31.592  1.00  0.00     0.277 C 
BRANCH  17  18
HETATM   18  C   UNL     1      -7.671   2.550 -32.522  1.00  0.00     0.016 A 
HETATM   19  C   UNL     1      -8.747   3.078 -33.298  1.00  0.00     0.103 A 
HETATM   20  N   UNL     1      -8.349   4.140 -34.010  1.00  0.00    -0.173 NA
HETATM   21  N   UNL     1      -7.070   4.328 -33.676  1.00  0.00    -0.288 N 
HETATM   22  H   UNL     1      -6.574   5.117 -34.087  1.00  0.00     0.188 HD
HETATM   23  C   UNL     1      -6.607   3.391 -32.803  1.00  0.00     0.120 A 
BRANCH  19  24
HETATM   24  C   UNL     1     -10.175   2.602 -33.419  1.00  0.00     0.035 A 
HETATM   25  S   UNL     1     -11.547   3.342 -32.721  1.00  0.00    -0.100 SA
HETATM   26  C   UNL     1     -12.610   2.179 -33.380  1.00  0.00     0.050 A 
HETATM   27  C   UNL     1     -11.936   1.229 -34.112  1.00  0.00     0.008 A 
HETATM   28  C   UNL     1     -10.531   1.471 -34.131  1.00  0.00     0.022 A 
ENDBRANCH  19  24
ENDBRANCH  17  18
ENDBRANCH   2  17
TORSDOF 6
ENDMDL
