MODEL 1
REMARK VINA RESULT:      -9.4      0.000      0.000
REMARK  5 active torsions:
REMARK  status: ('A' for Active; 'I' for Inactive)
REMARK    1  A    between atoms: C_2  and  C_3 
REMARK    2  A    between atoms: N_4  and  C_6 
REMARK    3  A    between atoms: C_6  and  C_7 
REMARK    4  A    between atoms: N_14  and  C_16 
REMARK    5  A    between atoms: C_16  and  C_17 
ROOT
HETATM    1  C   UNL     1      -5.373   3.473 -32.020  1.00  0.00    -0.032 A 
HETATM    2  C   UNL     1      -5.798   2.140 -31.822  1.00  0.00     0.020 A 
HETATM    3  C   UNL     1      -7.162   1.783 -31.896  1.00  0.00     0.002 A 
HETATM    4  C   UNL     1      -8.094   2.788 -32.161  1.00  0.00     0.076 A 
HETATM    5  O   UNL     1      -9.432   2.518 -32.188  1.00  0.00    -0.349 OA
HETATM    6  C   UNL     1      -9.802   1.773 -33.355  1.00  0.00     0.203 C 
HETATM    7  C   UNL     1      -9.740   0.270 -33.084  1.00  0.00     0.262 C 
HETATM    8  N   UNL     1      -8.318  -0.252 -32.902  1.00  0.00    -0.061 N 
HETATM    9  H   UNL     1      -8.445  -1.244 -32.663  1.00  0.00     0.280 HD
HETATM   10  C   UNL     1      -7.622   0.361 -31.701  1.00  0.00     0.276 C 
HETATM   11  C   UNL     1      -7.698   4.107 -32.352  1.00  0.00     0.038 A 
HETATM   12  C   UNL     1      -6.344   4.442 -32.310  1.00  0.00     0.011 A 
ENDROOT
BRANCH   1  13
HETATM   13  C   UNL     1      -3.903   3.841 -31.977  1.00  0.00     0.274 C 
BRANCH  13  14
HETATM   14  N   UNL     1      -3.530   5.287 -32.227  1.00  0.00    -0.053 N 
HETATM   15  C   UNL     1      -2.285   5.524 -33.115  1.00  0.00     0.279 C 
HETATM   16  C   UNL     1      -1.871   7.016 -33.237  1.00  0.00     0.248 C 
HETATM   17  N   UNL     1      -2.298   7.881 -32.265  1.00  0.00    -0.358 N 
HETATM   18  O   UNL     1      -1.123   7.420 -34.120  1.00  0.00    -0.271 OA
HETATM   19  C   UNL     1      -3.370   7.603 -31.335  1.00  0.00     0.150 C 
HETATM   20  H   UNL     1      -2.014   8.849 -32.418  1.00  0.00     0.162 HD
HETATM   21  C   UNL     1      -3.439   6.122 -30.955  1.00  0.00     0.256 C 
HETATM   22  H   UNL     1      -4.318   5.692 -32.749  1.00  0.00     0.281 HD
BRANCH  15  23
HETATM   23  C   UNL     1      -2.475   4.916 -34.518  1.00  0.00     0.038 C 
HETATM   24  C   UNL     1      -3.775   5.307 -35.214  1.00  0.00     0.007 C 
ENDBRANCH  15  23
ENDBRANCH  13  14
ENDBRANCH   1  13
BRANCH   8  25
HETATM   25  C   UNL     1      -7.454  -0.245 -34.143  1.00  0.00     0.274 C 
BRANCH  25  26
HETATM   26  C   UNL     1      -6.451  -1.363 -34.217  1.00  0.00    -0.029 A 
HETATM   27  C   UNL     1      -6.817  -2.625 -34.711  1.00  0.00     0.054 A 
HETATM   28  C   UNL     1      -5.877  -3.655 -34.763  1.00  0.00     0.155 A 
HETATM   29  F   UNL     1      -6.253  -4.849 -35.238  1.00  0.00    -0.203 F 
HETATM   30  C   UNL     1      -4.576  -3.448 -34.328  1.00  0.00     0.154 A 
HETATM   31  F   UNL     1      -3.678  -4.439 -34.377  1.00  0.00    -0.203 F 
HETATM   32  C   UNL     1      -4.196  -2.205 -33.834  1.00  0.00     0.046 A 
HETATM   33  C   UNL     1      -5.128  -1.165 -33.777  1.00  0.00     0.012 A 
ENDBRANCH  25  26
ENDBRANCH   8  25
TORSDOF 5
ENDMDL
MODEL 2
REMARK VINA RESULT:      -9.4      1.308      1.546
REMARK  5 active torsions:
REMARK  status: ('A' for Active; 'I' for Inactive)
REMARK    1  A    between atoms: C_2  and  C_3 
REMARK    2  A    between atoms: N_4  and  C_6 
REMARK    3  A    between atoms: C_6  and  C_7 
REMARK    4  A    between atoms: N_14  and  C_16 
REMARK    5  A    between atoms: C_16  and  C_17 
ROOT
HETATM    1  C   UNL     1      -6.417   4.346 -33.588  1.00  0.00    -0.032 A 
HETATM    2  C   UNL     1      -6.402   3.079 -32.963  1.00  0.00     0.020 A 
HETATM    3  C   UNL     1      -7.598   2.409 -32.628  1.00  0.00     0.002 A 
HETATM    4  C   UNL     1      -8.811   3.037 -32.918  1.00  0.00     0.076 A 
HETATM    5  O   UNL     1     -10.001   2.467 -32.567  1.00  0.00    -0.349 OA
HETATM    6  C   UNL     1     -10.313   1.335 -33.388  1.00  0.00     0.203 C 
HETATM    7  C   UNL     1      -9.777   0.046 -32.764  1.00  0.00     0.262 C 
HETATM    8  N   UNL     1      -8.254  -0.048 -32.787  1.00  0.00    -0.061 N 
HETATM    9  H   UNL     1      -8.050  -0.919 -32.280  1.00  0.00     0.280 HD
HETATM   10  C   UNL     1      -7.591   1.050 -31.975  1.00  0.00     0.276 C 
HETATM   11  C   UNL     1      -8.848   4.287 -33.526  1.00  0.00     0.038 A 
HETATM   12  C   UNL     1      -7.660   4.924 -33.884  1.00  0.00     0.011 A 
ENDROOT
BRANCH   1  13
HETATM   13  C   UNL     1      -5.128   5.042 -33.979  1.00  0.00     0.274 C 
BRANCH  13  14
HETATM   14  N   UNL     1      -4.189   5.464 -32.869  1.00  0.00    -0.053 N 
HETATM   15  C   UNL     1      -2.970   4.543 -32.623  1.00  0.00     0.279 C 
HETATM   16  C   UNL     1      -2.110   4.948 -31.395  1.00  0.00     0.248 C 
HETATM   17  N   UNL     1      -2.696   5.721 -30.429  1.00  0.00    -0.358 N 
HETATM   18  O   UNL     1      -0.965   4.540 -31.231  1.00  0.00    -0.271 OA
HETATM   19  C   UNL     1      -3.920   6.470 -30.611  1.00  0.00     0.150 C 
HETATM   20  H   UNL     1      -2.070   5.972 -29.663  1.00  0.00     0.162 HD
HETATM   21  C   UNL     1      -4.898   5.765 -31.552  1.00  0.00     0.256 C 
HETATM   22  H   UNL     1      -3.794   6.366 -33.164  1.00  0.00     0.281 HD
BRANCH  15  23
HETATM   23  C   UNL     1      -2.080   4.447 -33.877  1.00  0.00     0.038 C 
HETATM   24  C   UNL     1      -1.561   5.783 -34.397  1.00  0.00     0.007 C 
ENDBRANCH  15  23
ENDBRANCH  13  14
ENDBRANCH   1  13
BRANCH   8  25
HETATM   25  C   UNL     1      -7.629  -0.222 -34.153  1.00  0.00     0.274 C 
BRANCH  25  26
HETATM   26  C   UNL     1      -6.556  -1.273 -34.225  1.00  0.00    -0.029 A 
HETATM   27  C   UNL     1      -6.842  -2.560 -34.708  1.00  0.00     0.054 A 
HETATM   28  C   UNL     1      -5.838  -3.528 -34.757  1.00  0.00     0.155 A 
HETATM   29  F   UNL     1      -6.137  -4.746 -35.223  1.00  0.00    -0.203 F 
HETATM   30  C   UNL     1      -4.550  -3.233 -34.330  1.00  0.00     0.154 A 
HETATM   31  F   UNL     1      -3.591  -4.164 -34.377  1.00  0.00    -0.203 F 
HETATM   32  C   UNL     1      -4.250  -1.965 -33.847  1.00  0.00     0.046 A 
HETATM   33  C   UNL     1      -5.247  -0.987 -33.793  1.00  0.00     0.012 A 
ENDBRANCH  25  26
ENDBRANCH   8  25
TORSDOF 5
ENDMDL
MODEL 3
REMARK VINA RESULT:      -9.3      1.384      2.079
REMARK  5 active torsions:
REMARK  status: ('A' for Active; 'I' for Inactive)
REMARK    1  A    between atoms: C_2  and  C_3 
REMARK    2  A    between atoms: N_4  and  C_6 
REMARK    3  A    between atoms: C_6  and  C_7 
REMARK    4  A    between atoms: N_14  and  C_16 
REMARK    5  A    between atoms: C_16  and  C_17 
ROOT
HETATM    1  C   UNL     1      -4.206   3.615 -31.113  1.00  0.00    -0.032 A 
HETATM    2  C   UNL     1      -4.723   2.307 -30.982  1.00  0.00     0.020 A 
HETATM    3  C   UNL     1      -6.105   2.073 -30.818  1.00  0.00     0.002 A 
HETATM    4  C   UNL     1      -6.961   3.176 -30.775  1.00  0.00     0.076 A 
HETATM    5  O   UNL     1      -8.300   3.021 -30.560  1.00  0.00    -0.349 OA
HETATM    6  C   UNL     1      -8.962   2.466 -31.704  1.00  0.00     0.203 C 
HETATM    7  C   UNL     1      -9.008   0.940 -31.619  1.00  0.00     0.262 C 
HETATM    8  N   UNL     1      -7.640   0.286 -31.788  1.00  0.00    -0.061 N 
HETATM    9  H   UNL     1      -7.822  -0.715 -31.640  1.00  0.00     0.280 HD
HETATM   10  C   UNL     1      -6.667   0.680 -30.692  1.00  0.00     0.276 C 
HETATM   11  C   UNL     1      -6.472   4.472 -30.895  1.00  0.00     0.038 A 
HETATM   12  C   UNL     1      -5.108   4.688 -31.091  1.00  0.00     0.011 A 
ENDROOT
BRANCH   1  13
HETATM   13  C   UNL     1      -2.725   3.854 -31.328  1.00  0.00     0.274 C 
BRANCH  13  14
HETATM   14  N   UNL     1      -2.313   4.743 -32.482  1.00  0.00    -0.053 N 
HETATM   15  C   UNL     1      -2.281   6.262 -32.193  1.00  0.00     0.279 C 
HETATM   16  C   UNL     1      -1.978   7.137 -33.441  1.00  0.00     0.248 C 
HETATM   17  N   UNL     1      -2.213   6.594 -34.676  1.00  0.00    -0.358 N 
HETATM   18  O   UNL     1      -1.613   8.304 -33.353  1.00  0.00    -0.271 OA
HETATM   19  C   UNL     1      -2.389   5.181 -34.929  1.00  0.00     0.150 C 
HETATM   20  H   UNL     1      -1.969   7.209 -35.452  1.00  0.00     0.162 HD
HETATM   21  C   UNL     1      -3.084   4.465 -33.769  1.00  0.00     0.256 C 
HETATM   22  H   UNL     1      -1.342   4.486 -32.701  1.00  0.00     0.281 HD
BRANCH  15  23
HETATM   23  C   UNL     1      -1.286   6.596 -31.065  1.00  0.00     0.038 C 
HETATM   24  C   UNL     1       0.148   6.147 -31.324  1.00  0.00     0.007 C 
ENDBRANCH  15  23
ENDBRANCH  13  14
ENDBRANCH   1  13
BRANCH   8  25
HETATM   25  C   UNL     1      -7.032   0.384 -33.169  1.00  0.00     0.274 C 
BRANCH  25  26
HETATM   26  C   UNL     1      -6.293  -0.847 -33.620  1.00  0.00    -0.029 A 
HETATM   27  C   UNL     1      -6.964  -1.882 -34.290  1.00  0.00     0.054 A 
HETATM   28  C   UNL     1      -6.266  -3.022 -34.692  1.00  0.00     0.155 A 
HETATM   29  F   UNL     1      -6.929  -3.994 -35.328  1.00  0.00    -0.203 F 
HETATM   30  C   UNL     1      -4.907  -3.146 -34.435  1.00  0.00     0.154 A 
HETATM   31  F   UNL     1      -4.242  -4.242 -34.819  1.00  0.00    -0.203 F 
HETATM   32  C   UNL     1      -4.228  -2.132 -33.771  1.00  0.00     0.046 A 
HETATM   33  C   UNL     1      -4.916  -0.985 -33.364  1.00  0.00     0.012 A 
ENDBRANCH  25  26
ENDBRANCH   8  25
TORSDOF 5
ENDMDL
MODEL 4
REMARK VINA RESULT:      -8.6      2.159      3.097
REMARK  5 active torsions:
REMARK  status: ('A' for Active; 'I' for Inactive)
REMARK    1  A    between atoms: C_2  and  C_3 
REMARK    2  A    between atoms: N_4  and  C_6 
REMARK    3  A    between atoms: C_6  and  C_7 
REMARK    4  A    between atoms: N_14  and  C_16 
REMARK    5  A    between atoms: C_16  and  C_17 
ROOT
HETATM    1  C   UNL     1      -3.448   4.224 -31.663  1.00  0.00    -0.032 A 
HETATM    2  C   UNL     1      -3.643   2.908 -31.187  1.00  0.00     0.020 A 
HETATM    3  C   UNL     1      -4.936   2.369 -31.017  1.00  0.00     0.002 A 
HETATM    4  C   UNL     1      -6.034   3.178 -31.320  1.00  0.00     0.076 A 
HETATM    5  O   UNL     1      -7.311   2.737 -31.122  1.00  0.00    -0.349 OA
HETATM    6  C   UNL     1      -7.688   1.747 -32.087  1.00  0.00     0.203 C 
HETATM    7  C   UNL     1      -7.370   0.341 -31.577  1.00  0.00     0.262 C 
HETATM    8  N   UNL     1      -5.874   0.051 -31.502  1.00  0.00    -0.061 N 
HETATM    9  H   UNL     1      -5.823  -0.888 -31.084  1.00  0.00     0.280 HD
HETATM   10  C   UNL     1      -5.153   0.961 -30.525  1.00  0.00     0.276 C 
HETATM   11  C   UNL     1      -5.865   4.479 -31.782  1.00  0.00     0.038 A 
HETATM   12  C   UNL     1      -4.581   4.988 -31.979  1.00  0.00     0.011 A 
ENDROOT
BRANCH   1  13
HETATM   13  C   UNL     1      -2.055   4.781 -31.879  1.00  0.00     0.274 C 
BRANCH  13  14
HETATM   14  N   UNL     1      -1.324   5.339 -30.677  1.00  0.00    -0.053 N 
HETATM   15  C   UNL     1      -1.378   6.875 -30.500  1.00  0.00     0.279 C 
HETATM   16  C   UNL     1      -0.509   7.408 -29.328  1.00  0.00     0.248 C 
HETATM   17  N   UNL     1       0.517   6.618 -28.881  1.00  0.00    -0.358 N 
HETATM   18  O   UNL     1      -0.664   8.527 -28.851  1.00  0.00    -0.271 OA
HETATM   19  C   UNL     1       0.648   5.206 -29.167  1.00  0.00     0.150 C 
HETATM   20  H   UNL     1       1.031   7.014 -28.094  1.00  0.00     0.162 HD
HETATM   21  C   UNL     1       0.113   4.843 -30.554  1.00  0.00     0.256 C 
HETATM   22  H   UNL     1      -1.804   4.953 -29.854  1.00  0.00     0.281 HD
BRANCH  15  23
HETATM   23  C   UNL     1      -2.829   7.369 -30.344  1.00  0.00     0.038 C 
HETATM   24  C   UNL     1      -3.273   8.387 -31.390  1.00  0.00     0.007 C 
ENDBRANCH  15  23
ENDBRANCH  13  14
ENDBRANCH   1  13
BRANCH   8  25
HETATM   25  C   UNL     1      -5.161  -0.061 -32.830  1.00  0.00     0.274 C 
BRANCH  25  26
HETATM   26  C   UNL     1      -5.319  -1.388 -33.520  1.00  0.00    -0.029 A 
HETATM   27  C   UNL     1      -4.250  -2.295 -33.588  1.00  0.00     0.054 A 
HETATM   28  C   UNL     1      -4.410  -3.517 -34.242  1.00  0.00     0.155 A 
HETATM   29  F   UNL     1      -3.374  -4.364 -34.292  1.00  0.00    -0.203 F 
HETATM   30  C   UNL     1      -5.621  -3.851 -34.831  1.00  0.00     0.154 A 
HETATM   31  F   UNL     1      -5.770  -5.022 -35.460  1.00  0.00    -0.203 F 
HETATM   32  C   UNL     1      -6.690  -2.964 -34.776  1.00  0.00     0.046 A 
HETATM   33  C   UNL     1      -6.542  -1.736 -34.123  1.00  0.00     0.012 A 
ENDBRANCH  25  26
ENDBRANCH   8  25
TORSDOF 5
ENDMDL
MODEL 5
REMARK VINA RESULT:      -8.5      3.105      6.865
REMARK  5 active torsions:
REMARK  status: ('A' for Active; 'I' for Inactive)
REMARK    1  A    between atoms: C_2  and  C_3 
REMARK    2  A    between atoms: N_4  and  C_6 
REMARK    3  A    between atoms: C_6  and  C_7 
REMARK    4  A    between atoms: N_14  and  C_16 
REMARK    5  A    between atoms: C_16  and  C_17 
ROOT
HETATM    1  C   UNL     1      -9.568   4.290 -32.723  1.00  0.00    -0.032 A 
HETATM    2  C   UNL     1      -8.419   3.683 -33.276  1.00  0.00     0.020 A 
HETATM    3  C   UNL     1      -7.190   3.661 -32.581  1.00  0.00     0.002 A 
HETATM    4  C   UNL     1      -7.130   4.271 -31.327  1.00  0.00     0.076 A 
HETATM    5  O   UNL     1      -5.958   4.335 -30.629  1.00  0.00    -0.349 OA
HETATM    6  C   UNL     1      -5.581   3.056 -30.102  1.00  0.00     0.203 C 
HETATM    7  C   UNL     1      -4.686   2.303 -31.086  1.00  0.00     0.262 C 
HETATM    8  N   UNL     1      -5.423   1.842 -32.340  1.00  0.00    -0.061 N 
HETATM    9  H   UNL     1      -4.686   1.422 -32.922  1.00  0.00     0.280 HD
HETATM   10  C   UNL     1      -5.963   3.001 -33.157  1.00  0.00     0.276 C 
HETATM   11  C   UNL     1      -8.247   4.881 -30.768  1.00  0.00     0.038 A 
HETATM   12  C   UNL     1      -9.465   4.866 -31.449  1.00  0.00     0.011 A 
ENDROOT
BRANCH   1  13
HETATM   13  C   UNL     1     -10.893   4.276 -33.459  1.00  0.00     0.274 C 
BRANCH  13  14
HETATM   14  N   UNL     1     -11.956   3.312 -32.979  1.00  0.00    -0.053 N 
HETATM   15  C   UNL     1     -12.341   2.179 -33.960  1.00  0.00     0.279 C 
HETATM   16  C   UNL     1     -13.523   1.296 -33.474  1.00  0.00     0.248 C 
HETATM   17  N   UNL     1     -14.371   1.821 -32.535  1.00  0.00    -0.358 N 
HETATM   18  O   UNL     1     -13.760   0.193 -33.954  1.00  0.00    -0.271 OA
HETATM   19  C   UNL     1     -14.071   2.973 -31.714  1.00  0.00     0.150 C 
HETATM   20  H   UNL     1     -15.109   1.181 -32.240  1.00  0.00     0.162 HD
HETATM   21  C   UNL     1     -13.210   4.002 -32.450  1.00  0.00     0.256 C 
HETATM   22  H   UNL     1     -11.555   2.838 -32.160  1.00  0.00     0.281 HD
BRANCH  15  23
HETATM   23  C   UNL     1     -11.127   1.292 -34.294  1.00  0.00     0.038 C 
HETATM   24  C   UNL     1     -10.479   0.616 -33.091  1.00  0.00     0.007 C 
ENDBRANCH  15  23
ENDBRANCH  13  14
ENDBRANCH   1  13
BRANCH   8  25
HETATM   25  C   UNL     1      -6.445   0.747 -32.134  1.00  0.00     0.274 C 
BRANCH  25  26
HETATM   26  C   UNL     1      -6.257  -0.462 -33.008  1.00  0.00    -0.029 A 
HETATM   27  C   UNL     1      -5.049  -1.178 -32.995  1.00  0.00     0.054 A 
HETATM   28  C   UNL     1      -4.887  -2.291 -33.820  1.00  0.00     0.155 A 
HETATM   29  F   UNL     1      -3.726  -2.956 -33.788  1.00  0.00    -0.203 F 
HETATM   30  C   UNL     1      -5.911  -2.702 -34.662  1.00  0.00     0.154 A 
HETATM   31  F   UNL     1      -5.750  -3.768 -35.455  1.00  0.00    -0.203 F 
HETATM   32  C   UNL     1      -7.112  -2.004 -34.691  1.00  0.00     0.046 A 
HETATM   33  C   UNL     1      -7.287  -0.888 -33.868  1.00  0.00     0.012 A 
ENDBRANCH  25  26
ENDBRANCH   8  25
TORSDOF 5
ENDMDL
MODEL 6
REMARK VINA RESULT:      -8.5      4.945      9.701
REMARK  5 active torsions:
REMARK  status: ('A' for Active; 'I' for Inactive)
REMARK    1  A    between atoms: C_2  and  C_3 
REMARK    2  A    between atoms: N_4  and  C_6 
REMARK    3  A    between atoms: C_6  and  C_7 
REMARK    4  A    between atoms: N_14  and  C_16 
REMARK    5  A    between atoms: C_16  and  C_17 
ROOT
HETATM    1  C   UNL     1      -4.551   3.187 -32.759  1.00  0.00    -0.032 A 
HETATM    2  C   UNL     1      -3.179   3.410 -32.505  1.00  0.00     0.020 A 
HETATM    3  C   UNL     1      -2.527   4.577 -32.958  1.00  0.00     0.002 A 
HETATM    4  C   UNL     1      -3.271   5.511 -33.683  1.00  0.00     0.076 A 
HETATM    5  O   UNL     1      -2.686   6.632 -34.198  1.00  0.00    -0.349 OA
HETATM    6  C   UNL     1      -2.360   7.581 -33.176  1.00  0.00     0.203 C 
HETATM    7  C   UNL     1      -0.939   7.359 -32.658  1.00  0.00     0.262 C 
HETATM    8  N   UNL     1      -0.785   6.072 -31.853  1.00  0.00    -0.061 N 
HETATM    9  H   UNL     1       0.219   6.030 -31.638  1.00  0.00     0.280 HD
HETATM   10  C   UNL     1      -1.067   4.831 -32.679  1.00  0.00     0.276 C 
HETATM   11  C   UNL     1      -4.620   5.307 -33.949  1.00  0.00     0.038 A 
HETATM   12  C   UNL     1      -5.262   4.167 -33.466  1.00  0.00     0.011 A 
ENDROOT
BRANCH   1  13
HETATM   13  C   UNL     1      -5.253   1.949 -32.235  1.00  0.00     0.274 C 
BRANCH  13  14
HETATM   14  N   UNL     1      -4.828   0.608 -32.794  1.00  0.00    -0.053 N 
HETATM   15  C   UNL     1      -5.930  -0.212 -33.506  1.00  0.00     0.279 C 
HETATM   16  C   UNL     1      -5.476  -1.631 -33.947  1.00  0.00     0.248 C 
HETATM   17  N   UNL     1      -4.394  -2.183 -33.314  1.00  0.00    -0.358 N 
HETATM   18  O   UNL     1      -6.094  -2.290 -34.777  1.00  0.00    -0.271 OA
HETATM   19  C   UNL     1      -3.440  -1.438 -32.524  1.00  0.00     0.150 C 
HETATM   20  H   UNL     1      -4.134  -3.104 -33.668  1.00  0.00     0.162 HD
HETATM   21  C   UNL     1      -4.088  -0.265 -31.786  1.00  0.00     0.256 C 
HETATM   22  H   UNL     1      -4.131   0.815 -33.520  1.00  0.00     0.281 HD
BRANCH  15  23
HETATM   23  C   UNL     1      -6.505   0.553 -34.713  1.00  0.00     0.038 C 
HETATM   24  C   UNL     1      -8.028   0.617 -34.763  1.00  0.00     0.007 C 
ENDBRANCH  15  23
ENDBRANCH  13  14
ENDBRANCH   1  13
BRANCH   8  25
HETATM   25  C   UNL     1      -1.484   6.050 -30.512  1.00  0.00     0.274 C 
BRANCH  25  26
HETATM   26  C   UNL     1      -1.062   7.139 -29.564  1.00  0.00    -0.029 A 
HETATM   27  C   UNL     1       0.283   7.287 -29.192  1.00  0.00     0.054 A 
HETATM   28  C   UNL     1       0.656   8.295 -28.303  1.00  0.00     0.155 A 
HETATM   29  F   UNL     1       1.946   8.414 -27.965  1.00  0.00    -0.203 F 
HETATM   30  C   UNL     1      -0.293   9.161 -27.777  1.00  0.00     0.154 A 
HETATM   31  F   UNL     1       0.068  10.125 -26.923  1.00  0.00    -0.203 F 
HETATM   32  C   UNL     1      -1.630   9.028 -28.133  1.00  0.00     0.046 A 
HETATM   33  C   UNL     1      -2.016   8.022 -29.023  1.00  0.00     0.012 A 
ENDBRANCH  25  26
ENDBRANCH   8  25
TORSDOF 5
ENDMDL
MODEL 7
REMARK VINA RESULT:      -8.4      4.833      9.515
REMARK  5 active torsions:
REMARK  status: ('A' for Active; 'I' for Inactive)
REMARK    1  A    between atoms: C_2  and  C_3 
REMARK    2  A    between atoms: N_4  and  C_6 
REMARK    3  A    between atoms: C_6  and  C_7 
REMARK    4  A    between atoms: N_14  and  C_16 
REMARK    5  A    between atoms: C_16  and  C_17 
ROOT
HETATM    1  C   UNL     1      -4.919   3.460 -32.887  1.00  0.00    -0.032 A 
HETATM    2  C   UNL     1      -3.634   3.621 -32.322  1.00  0.00     0.020 A 
HETATM    3  C   UNL     1      -2.699   4.529 -32.864  1.00  0.00     0.002 A 
HETATM    4  C   UNL     1      -3.070   5.263 -33.993  1.00  0.00     0.076 A 
HETATM    5  O   UNL     1      -2.191   6.115 -34.600  1.00  0.00    -0.349 OA
HETATM    6  C   UNL     1      -1.969   7.296 -33.820  1.00  0.00     0.203 C 
HETATM    7  C   UNL     1      -0.780   7.111 -32.877  1.00  0.00     0.262 C 
HETATM    8  N   UNL     1      -1.053   6.121 -31.748  1.00  0.00    -0.061 N 
HETATM    9  H   UNL     1      -0.155   6.054 -31.252  1.00  0.00     0.280 HD
HETATM   10  C   UNL     1      -1.332   4.719 -32.258  1.00  0.00     0.276 C 
HETATM   11  C   UNL     1      -4.326   5.114 -34.569  1.00  0.00     0.038 A 
HETATM   12  C   UNL     1      -5.254   4.239 -34.004  1.00  0.00     0.011 A 
ENDROOT
BRANCH   1  13
HETATM   13  C   UNL     1      -5.930   2.511 -32.275  1.00  0.00     0.274 C 
BRANCH  13  14
HETATM   14  N   UNL     1      -6.213   1.215 -33.005  1.00  0.00    -0.053 N 
HETATM   15  C   UNL     1      -5.065   0.177 -33.018  1.00  0.00     0.279 C 
HETATM   16  C   UNL     1      -5.358  -1.078 -33.885  1.00  0.00     0.248 C 
HETATM   17  N   UNL     1      -6.311  -0.974 -34.862  1.00  0.00    -0.358 N 
HETATM   18  O   UNL     1      -4.718  -2.118 -33.771  1.00  0.00    -0.271 OA
HETATM   19  C   UNL     1      -7.298   0.081 -34.934  1.00  0.00     0.150 C 
HETATM   20  H   UNL     1      -6.473  -1.839 -35.377  1.00  0.00     0.162 HD
HETATM   21  C   UNL     1      -6.760   1.416 -34.414  1.00  0.00     0.256 C 
HETATM   22  H   UNL     1      -6.980   0.765 -32.489  1.00  0.00     0.281 HD
BRANCH  15  23
HETATM   23  C   UNL     1      -4.681  -0.250 -31.589  1.00  0.00     0.038 C 
HETATM   24  C   UNL     1      -3.247   0.080 -31.187  1.00  0.00     0.007 C 
ENDBRANCH  15  23
ENDBRANCH  13  14
ENDBRANCH   1  13
BRANCH   8  25
HETATM   25  C   UNL     1      -2.053   6.573 -30.708  1.00  0.00     0.274 C 
BRANCH  25  26
HETATM   26  C   UNL     1      -1.445   7.140 -29.455  1.00  0.00    -0.029 A 
HETATM   27  C   UNL     1      -0.094   7.519 -29.419  1.00  0.00     0.054 A 
HETATM   28  C   UNL     1       0.458   8.032 -28.245  1.00  0.00     0.155 A 
HETATM   29  F   UNL     1       1.748   8.386 -28.238  1.00  0.00    -0.203 F 
HETATM   30  C   UNL     1      -0.317   8.173 -27.102  1.00  0.00     0.154 A 
HETATM   31  F   UNL     1       0.215   8.663 -25.977  1.00  0.00    -0.203 F 
HETATM   32  C   UNL     1      -1.657   7.800 -27.118  1.00  0.00     0.046 A 
HETATM   33  C   UNL     1      -2.221   7.285 -28.289  1.00  0.00     0.012 A 
ENDBRANCH  25  26
ENDBRANCH   8  25
TORSDOF 5
ENDMDL
MODEL 8
REMARK VINA RESULT:      -8.3      3.874      7.814
REMARK  5 active torsions:
REMARK  status: ('A' for Active; 'I' for Inactive)
REMARK    1  A    between atoms: C_2  and  C_3 
REMARK    2  A    between atoms: N_4  and  C_6 
REMARK    3  A    between atoms: C_6  and  C_7 
REMARK    4  A    between atoms: N_14  and  C_16 
REMARK    5  A    between atoms: C_16  and  C_17 
ROOT
HETATM    1  C   UNL     1      -8.504  -0.086 -32.810  1.00  0.00    -0.032 A 
HETATM    2  C   UNL     1      -7.769   0.460 -31.735  1.00  0.00     0.020 A 
HETATM    3  C   UNL     1      -6.404   0.154 -31.545  1.00  0.00     0.002 A 
HETATM    4  C   UNL     1      -5.791  -0.722 -32.444  1.00  0.00     0.076 A 
HETATM    5  O   UNL     1      -4.491  -1.103 -32.281  1.00  0.00    -0.349 OA
HETATM    6  C   UNL     1      -3.581  -0.040 -32.591  1.00  0.00     0.203 C 
HETATM    7  C   UNL     1      -3.254   0.778 -31.341  1.00  0.00     0.262 C 
HETATM    8  N   UNL     1      -4.433   1.605 -30.837  1.00  0.00    -0.061 N 
HETATM    9  H   UNL     1      -4.084   2.036 -29.971  1.00  0.00     0.280 HD
HETATM   10  C   UNL     1      -5.608   0.745 -30.409  1.00  0.00     0.276 C 
HETATM   11  C   UNL     1      -6.499  -1.276 -33.504  1.00  0.00     0.038 A 
HETATM   12  C   UNL     1      -7.838  -0.939 -33.703  1.00  0.00     0.011 A 
ENDROOT
BRANCH   1  13
HETATM   13  C   UNL     1      -9.959   0.278 -33.030  1.00  0.00     0.274 C 
BRANCH  13  14
HETATM   14  N   UNL     1     -10.272   1.685 -33.491  1.00  0.00    -0.053 N 
HETATM   15  C   UNL     1     -11.564   1.856 -34.325  1.00  0.00     0.279 C 
HETATM   16  C   UNL     1     -11.772   3.292 -34.881  1.00  0.00     0.248 C 
HETATM   17  N   UNL     1     -10.674   4.102 -34.990  1.00  0.00    -0.358 N 
HETATM   18  O   UNL     1     -12.859   3.687 -35.288  1.00  0.00    -0.271 OA
HETATM   19  C   UNL     1      -9.412   3.865 -34.324  1.00  0.00     0.150 C 
HETATM   20  H   UNL     1     -10.883   5.038 -35.337  1.00  0.00     0.162 HD
HETATM   21  C   UNL     1      -9.101   2.374 -34.184  1.00  0.00     0.256 C 
HETATM   22  H   UNL     1     -10.426   2.233 -32.635  1.00  0.00     0.281 HD
BRANCH  15  23
HETATM   23  C   UNL     1     -12.806   1.417 -33.528  1.00  0.00     0.038 C 
HETATM   24  C   UNL     1     -13.547   0.216 -34.107  1.00  0.00     0.007 C 
ENDBRANCH  15  23
ENDBRANCH  13  14
ENDBRANCH   1  13
BRANCH   8  25
HETATM   25  C   UNL     1      -4.849   2.760 -31.720  1.00  0.00     0.274 C 
BRANCH  25  26
HETATM   26  C   UNL     1      -3.732   3.692 -32.104  1.00  0.00    -0.029 A 
HETATM   27  C   UNL     1      -3.296   3.781 -33.436  1.00  0.00     0.054 A 
HETATM   28  C   UNL     1      -2.252   4.642 -33.774  1.00  0.00     0.155 A 
HETATM   29  F   UNL     1      -1.856   4.708 -35.050  1.00  0.00    -0.203 F 
HETATM   30  C   UNL     1      -1.632   5.417 -32.803  1.00  0.00     0.154 A 
HETATM   31  F   UNL     1      -0.629   6.240 -33.130  1.00  0.00    -0.203 F 
HETATM   32  C   UNL     1      -2.049   5.340 -31.479  1.00  0.00     0.046 A 
HETATM   33  C   UNL     1      -3.095   4.482 -31.128  1.00  0.00     0.012 A 
ENDBRANCH  25  26
ENDBRANCH   8  25
TORSDOF 5
ENDMDL
MODEL 9
REMARK VINA RESULT:      -8.3      4.217      7.675
REMARK  5 active torsions:
REMARK  status: ('A' for Active; 'I' for Inactive)
REMARK    1  A    between atoms: C_2  and  C_3 
REMARK    2  A    between atoms: N_4  and  C_6 
REMARK    3  A    between atoms: C_6  and  C_7 
REMARK    4  A    between atoms: N_14  and  C_16 
REMARK    5  A    between atoms: C_16  and  C_17 
ROOT
HETATM    1  C   UNL     1      -8.468   0.345 -32.546  1.00  0.00    -0.032 A 
HETATM    2  C   UNL     1      -7.431   0.745 -31.674  1.00  0.00     0.020 A 
HETATM    3  C   UNL     1      -6.144   0.170 -31.747  1.00  0.00     0.002 A 
HETATM    4  C   UNL     1      -5.918  -0.824 -32.701  1.00  0.00     0.076 A 
HETATM    5  O   UNL     1      -4.712  -1.461 -32.784  1.00  0.00    -0.349 OA
HETATM    6  C   UNL     1      -3.697  -0.610 -33.330  1.00  0.00     0.203 C 
HETATM    7  C   UNL     1      -2.962   0.143 -32.220  1.00  0.00     0.262 C 
HETATM    8  N   UNL     1      -3.823   1.199 -31.535  1.00  0.00    -0.061 N 
HETATM    9  H   UNL     1      -3.223   1.562 -30.783  1.00  0.00     0.280 HD
HETATM   10  C   UNL     1      -5.027   0.602 -30.830  1.00  0.00     0.276 C 
HETATM   11  C   UNL     1      -6.926  -1.238 -33.563  1.00  0.00     0.038 A 
HETATM   12  C   UNL     1      -8.184  -0.638 -33.505  1.00  0.00     0.011 A 
ENDROOT
BRANCH   1  13
HETATM   13  C   UNL     1      -9.836   0.995 -32.487  1.00  0.00     0.274 C 
BRANCH  13  14
HETATM   14  N   UNL     1     -10.368   1.636 -33.750  1.00  0.00    -0.053 N 
HETATM   15  C   UNL     1     -10.112   3.155 -33.902  1.00  0.00     0.279 C 
HETATM   16  C   UNL     1     -10.786   3.788 -35.150  1.00  0.00     0.248 C 
HETATM   17  N   UNL     1     -11.848   3.127 -35.709  1.00  0.00    -0.358 N 
HETATM   18  O   UNL     1     -10.451   4.880 -35.596  1.00  0.00    -0.271 OA
HETATM   19  C   UNL     1     -12.175   1.741 -35.456  1.00  0.00     0.150 C 
HETATM   20  H   UNL     1     -12.227   3.582 -36.540  1.00  0.00     0.162 HD
HETATM   21  C   UNL     1     -11.833   1.317 -34.026  1.00  0.00     0.256 C 
HETATM   22  H   UNL     1      -9.856   1.195 -34.525  1.00  0.00     0.281 HD
BRANCH  15  23
HETATM   23  C   UNL     1      -8.605   3.471 -33.903  1.00  0.00     0.038 C 
HETATM   24  C   UNL     1      -8.122   4.290 -32.711  1.00  0.00     0.007 C 
ENDBRANCH  15  23
ENDBRANCH  13  14
ENDBRANCH   1  13
BRANCH   8  25
HETATM   25  C   UNL     1      -4.179   2.402 -32.379  1.00  0.00     0.274 C 
BRANCH  25  26
HETATM   26  C   UNL     1      -3.124   3.474 -32.425  1.00  0.00    -0.029 A 
HETATM   27  C   UNL     1      -2.500   3.919 -31.249  1.00  0.00     0.054 A 
HETATM   28  C   UNL     1      -1.532   4.921 -31.308  1.00  0.00     0.155 A 
HETATM   29  F   UNL     1      -0.952   5.327 -30.172  1.00  0.00    -0.203 F 
HETATM   30  C   UNL     1      -1.175   5.490 -32.523  1.00  0.00     0.154 A 
HETATM   31  F   UNL     1      -0.248   6.453 -32.576  1.00  0.00    -0.203 F 
HETATM   32  C   UNL     1      -1.785   5.063 -33.697  1.00  0.00     0.046 A 
HETATM   33  C   UNL     1      -2.756   4.059 -33.651  1.00  0.00     0.012 A 
ENDBRANCH  25  26
ENDBRANCH   8  25
TORSDOF 5
ENDMDL
MODEL 10
REMARK VINA RESULT:      -8.1      3.784      5.665
REMARK  5 active torsions:
REMARK  status: ('A' for Active; 'I' for Inactive)
REMARK    1  A    between atoms: C_2  and  C_3 
REMARK    2  A    between atoms: N_4  and  C_6 
REMARK    3  A    between atoms: C_6  and  C_7 
REMARK    4  A    between atoms: N_14  and  C_16 
REMARK    5  A    between atoms: C_16  and  C_17 
ROOT
HETATM    1  C   UNL     1      -3.863   2.626 -32.181  1.00  0.00    -0.032 A 
HETATM    2  C   UNL     1      -5.175   2.997 -32.550  1.00  0.00     0.020 A 
HETATM    3  C   UNL     1      -6.061   2.074 -33.146  1.00  0.00     0.002 A 
HETATM    4  C   UNL     1      -5.605   0.775 -33.378  1.00  0.00     0.076 A 
HETATM    5  O   UNL     1      -6.393  -0.148 -34.004  1.00  0.00    -0.349 OA
HETATM    6  C   UNL     1      -7.458  -0.600 -33.158  1.00  0.00     0.203 C 
HETATM    7  C   UNL     1      -8.709   0.257 -33.351  1.00  0.00     0.262 C 
HETATM    8  N   UNL     1      -8.556   1.677 -32.813  1.00  0.00    -0.061 N 
HETATM    9  H   UNL     1      -9.436   2.139 -33.075  1.00  0.00     0.280 HD
HETATM   10  C   UNL     1      -7.468   2.457 -33.529  1.00  0.00     0.276 C 
HETATM   11  C   UNL     1      -4.315   0.391 -33.030  1.00  0.00     0.038 A 
HETATM   12  C   UNL     1      -3.459   1.302 -32.410  1.00  0.00     0.011 A 
ENDROOT
BRANCH   1  13
HETATM   13  C   UNL     1      -2.930   3.612 -31.506  1.00  0.00     0.274 C 
BRANCH  13  14
HETATM   14  N   UNL     1      -3.076   5.077 -31.861  1.00  0.00    -0.053 N 
HETATM   15  C   UNL     1      -1.981   5.666 -32.782  1.00  0.00     0.279 C 
HETATM   16  C   UNL     1      -2.104   7.198 -33.011  1.00  0.00     0.248 C 
HETATM   17  N   UNL     1      -2.813   7.928 -32.094  1.00  0.00    -0.358 N 
HETATM   18  O   UNL     1      -1.533   7.772 -33.931  1.00  0.00    -0.271 OA
HETATM   19  C   UNL     1      -3.732   7.362 -31.131  1.00  0.00     0.150 C 
HETATM   20  H   UNL     1      -2.878   8.921 -32.317  1.00  0.00     0.162 HD
HETATM   21  C   UNL     1      -3.290   5.978 -30.650  1.00  0.00     0.256 C 
HETATM   22  H   UNL     1      -3.950   5.149 -32.397  1.00  0.00     0.281 HD
BRANCH  15  23
HETATM   23  C   UNL     1      -1.935   4.935 -34.136  1.00  0.00     0.038 C 
HETATM   24  C   UNL     1      -3.186   5.100 -34.994  1.00  0.00     0.007 C 
ENDBRANCH  15  23
ENDBRANCH  13  14
ENDBRANCH   1  13
BRANCH   8  25
HETATM   25  C   UNL     1      -8.468   1.801 -31.309  1.00  0.00     0.274 C 
BRANCH  25  26
HETATM   26  C   UNL     1      -8.718   3.186 -30.776  1.00  0.00    -0.029 A 
HETATM   27  C   UNL     1      -7.773   3.822 -29.957  1.00  0.00     0.054 A 
HETATM   28  C   UNL     1      -8.025   5.102 -29.462  1.00  0.00     0.155 A 
HETATM   29  F   UNL     1      -7.106   5.686 -28.683  1.00  0.00    -0.203 F 
HETATM   30  C   UNL     1      -9.209   5.759 -29.769  1.00  0.00     0.154 A 
HETATM   31  F   UNL     1      -9.449   6.985 -29.290  1.00  0.00    -0.203 F 
HETATM   32  C   UNL     1     -10.158   5.143 -30.577  1.00  0.00     0.046 A 
HETATM   33  C   UNL     1      -9.916   3.861 -31.080  1.00  0.00     0.012 A 
ENDBRANCH  25  26
ENDBRANCH   8  25
TORSDOF 5
ENDMDL
