MODEL 1
REMARK VINA RESULT:      -7.4      0.000      0.000
REMARK  5 active torsions:
REMARK  status: ('A' for Active; 'I' for Inactive)
REMARK    1  A    between atoms: C_2  and  O_3 
REMARK    2  A    between atoms: O_3  and  C_4 
REMARK    3  A    between atoms: C_9  and  C_10 
REMARK       I    between atoms: C_10  and  N_11 
REMARK    4  A    between atoms: N_11  and  C_12 
REMARK    5  A    between atoms: C_12  and  C_13 
ROOT
HETATM    1  C   UNL     1      -6.446  -0.840 -34.287  1.00  0.00     0.256 C 
HETATM    2  N   UNL     1      -6.472  -0.230 -33.057  1.00  0.00    -0.348 N 
HETATM    3  O   UNL     1      -6.813  -0.270 -35.310  1.00  0.00    -0.267 OA
HETATM    4  H   UNL     1      -6.152  -0.750 -32.246  1.00  0.00     0.163 HD
ENDROOT
BRANCH   1   5
HETATM    5  C   UNL     1      -5.945  -2.244 -34.359  1.00  0.00     0.084 A 
HETATM    6  C   UNL     1      -4.681  -2.672 -33.947  1.00  0.00     0.180 A 
HETATM    7  N   UNL     1      -4.261  -3.961 -34.030  1.00  0.00    -0.236 NA
HETATM    8  C   UNL     1      -5.123  -4.861 -34.549  1.00  0.00     0.119 A 
HETATM    9  C   UNL     1      -6.393  -4.541 -34.990  1.00  0.00     0.020 A 
HETATM   10  C   UNL     1      -6.806  -3.215 -34.892  1.00  0.00     0.023 A 
BRANCH   6  11
HETATM   11  O   UNL     1      -3.807  -1.746 -33.408  1.00  0.00    -0.334 OA
BRANCH  11  12
HETATM   12  C   UNL     1      -3.351  -2.066 -32.092  1.00  0.00     0.173 C 
HETATM   13  C   UNL     1      -2.273  -1.061 -31.724  1.00  0.00     0.034 C 
ENDBRANCH  11  12
ENDBRANCH   6  11
ENDBRANCH   1   5
BRANCH   2  14
HETATM   14  C   UNL     1      -6.921   1.135 -32.856  1.00  0.00     0.114 C 
HETATM   15  C   UNL     1      -7.831   1.251 -31.630  1.00  0.00     0.037 C 
BRANCH  14  16
HETATM   16  C   UNL     1      -5.708   2.049 -32.778  1.00  0.00    -0.036 A 
HETATM   17  C   UNL     1      -4.540   1.674 -32.092  1.00  0.00     0.010 A 
HETATM   18  C   UNL     1      -3.424   2.514 -32.068  1.00  0.00     0.019 A 
HETATM   19  C   UNL     1      -3.463   3.733 -32.739  1.00  0.00     0.011 A 
HETATM   20 BR   UNL     1      -1.950   4.867 -32.713  1.00  0.00    -0.051 Br
HETATM   21  C   UNL     1      -4.604   4.119 -33.435  1.00  0.00     0.019 A 
HETATM   22  C   UNL     1      -5.719   3.278 -33.458  1.00  0.00     0.010 A 
ENDBRANCH  14  16
ENDBRANCH   2  14
TORSDOF 5
ENDMDL
MODEL 2
REMARK VINA RESULT:      -7.3      3.131      4.203
REMARK  5 active torsions:
REMARK  status: ('A' for Active; 'I' for Inactive)
REMARK    1  A    between atoms: C_2  and  O_3 
REMARK    2  A    between atoms: O_3  and  C_4 
REMARK    3  A    between atoms: C_9  and  C_10 
REMARK       I    between atoms: C_10  and  N_11 
REMARK    4  A    between atoms: N_11  and  C_12 
REMARK    5  A    between atoms: C_12  and  C_13 
ROOT
HETATM    1  C   UNL     1      -6.484  -0.852 -34.245  1.00  0.00     0.256 C 
HETATM    2  N   UNL     1      -6.679  -0.309 -32.999  1.00  0.00    -0.348 N 
HETATM    3  O   UNL     1      -6.742  -0.238 -35.276  1.00  0.00    -0.267 OA
HETATM    4  H   UNL     1      -6.444  -0.863 -32.182  1.00  0.00     0.163 HD
ENDROOT
BRANCH   1   5
HETATM    5  C   UNL     1      -5.936  -2.238 -34.324  1.00  0.00     0.084 A 
HETATM    6  C   UNL     1      -4.644  -2.617 -33.955  1.00  0.00     0.180 A 
HETATM    7  N   UNL     1      -4.180  -3.890 -34.043  1.00  0.00    -0.236 NA
HETATM    8  C   UNL     1      -5.027  -4.826 -34.524  1.00  0.00     0.119 A 
HETATM    9  C   UNL     1      -6.323  -4.555 -34.921  1.00  0.00     0.020 A 
HETATM   10  C   UNL     1      -6.780  -3.244 -34.818  1.00  0.00     0.023 A 
BRANCH   6  11
HETATM   11  O   UNL     1      -3.785  -1.655 -33.456  1.00  0.00    -0.334 OA
BRANCH  11  12
HETATM   12  C   UNL     1      -3.407  -1.857 -32.092  1.00  0.00     0.173 C 
HETATM   13  C   UNL     1      -3.403  -0.499 -31.412  1.00  0.00     0.034 C 
ENDBRANCH  11  12
ENDBRANCH   6  11
ENDBRANCH   1   5
BRANCH   2  14
HETATM   14  C   UNL     1      -7.190   1.033 -32.788  1.00  0.00     0.114 C 
HETATM   15  C   UNL     1      -6.322   2.080 -33.493  1.00  0.00     0.037 C 
BRANCH  14  16
HETATM   16  C   UNL     1      -8.645   1.083 -33.224  1.00  0.00    -0.036 A 
HETATM   17  C   UNL     1      -9.588   0.143 -32.774  1.00  0.00     0.010 A 
HETATM   18  C   UNL     1     -10.927   0.233 -33.157  1.00  0.00     0.019 A 
HETATM   19  C   UNL     1     -11.340   1.272 -33.988  1.00  0.00     0.011 A 
HETATM   20 BR   UNL     1     -13.154   1.399 -34.501  1.00  0.00    -0.051 Br
HETATM   21  C   UNL     1     -10.426   2.221 -34.436  1.00  0.00     0.019 A 
HETATM   22  C   UNL     1      -9.086   2.129 -34.052  1.00  0.00     0.010 A 
ENDBRANCH  14  16
ENDBRANCH   2  14
TORSDOF 5
ENDMDL
MODEL 3
REMARK VINA RESULT:      -7.2      3.475      6.977
REMARK  5 active torsions:
REMARK  status: ('A' for Active; 'I' for Inactive)
REMARK    1  A    between atoms: C_2  and  O_3 
REMARK    2  A    between atoms: O_3  and  C_4 
REMARK    3  A    between atoms: C_9  and  C_10 
REMARK       I    between atoms: C_10  and  N_11 
REMARK    4  A    between atoms: N_11  and  C_12 
REMARK    5  A    between atoms: C_12  and  C_13 
ROOT
HETATM    1  C   UNL     1      -4.549   2.988 -32.248  1.00  0.00     0.256 C 
HETATM    2  N   UNL     1      -5.371   2.053 -32.826  1.00  0.00    -0.348 N 
HETATM    3  O   UNL     1      -4.372   3.046 -31.034  1.00  0.00    -0.267 OA
HETATM    4  H   UNL     1      -5.476   2.051 -33.836  1.00  0.00     0.163 HD
ENDROOT
BRANCH   1   5
HETATM    5  C   UNL     1      -3.853   3.956 -33.146  1.00  0.00     0.084 A 
HETATM    6  C   UNL     1      -4.461   4.687 -34.169  1.00  0.00     0.180 A 
HETATM    7  N   UNL     1      -3.792   5.558 -34.969  1.00  0.00    -0.236 NA
HETATM    8  C   UNL     1      -2.468   5.706 -34.753  1.00  0.00     0.119 A 
HETATM    9  C   UNL     1      -1.771   5.027 -33.771  1.00  0.00     0.020 A 
HETATM   10  C   UNL     1      -2.475   4.142 -32.960  1.00  0.00     0.023 A 
BRANCH   6  11
HETATM   11  O   UNL     1      -5.819   4.536 -34.379  1.00  0.00    -0.334 OA
BRANCH  11  12
HETATM   12  C   UNL     1      -6.635   5.383 -33.567  1.00  0.00     0.173 C 
HETATM   13  C   UNL     1      -8.034   4.792 -33.552  1.00  0.00     0.034 C 
ENDBRANCH  11  12
ENDBRANCH   6  11
ENDBRANCH   1   5
BRANCH   2  14
HETATM   14  C   UNL     1      -6.091   1.048 -32.065  1.00  0.00     0.114 C 
HETATM   15  C   UNL     1      -7.498   1.528 -31.696  1.00  0.00     0.037 C 
BRANCH  14  16
HETATM   16  C   UNL     1      -6.099  -0.255 -32.848  1.00  0.00    -0.036 A 
HETATM   17  C   UNL     1      -7.275  -0.768 -33.422  1.00  0.00     0.010 A 
HETATM   18  C   UNL     1      -7.248  -1.947 -34.170  1.00  0.00     0.019 A 
HETATM   19  C   UNL     1      -6.044  -2.618 -34.360  1.00  0.00     0.011 A 
HETATM   20 BR   UNL     1      -6.007  -4.210 -35.380  1.00  0.00    -0.051 Br
HETATM   21  C   UNL     1      -4.865  -2.121 -33.812  1.00  0.00     0.019 A 
HETATM   22  C   UNL     1      -4.893  -0.942 -33.063  1.00  0.00     0.010 A 
ENDBRANCH  14  16
ENDBRANCH   2  14
TORSDOF 5
ENDMDL
MODEL 4
REMARK VINA RESULT:      -7.1      1.582      2.072
REMARK  5 active torsions:
REMARK  status: ('A' for Active; 'I' for Inactive)
REMARK    1  A    between atoms: C_2  and  O_3 
REMARK    2  A    between atoms: O_3  and  C_4 
REMARK    3  A    between atoms: C_9  and  C_10 
REMARK       I    between atoms: C_10  and  N_11 
REMARK    4  A    between atoms: N_11  and  C_12 
REMARK    5  A    between atoms: C_12  and  C_13 
ROOT
HETATM    1  C   UNL     1      -6.919  -1.040 -34.535  1.00  0.00     0.256 C 
HETATM    2  N   UNL     1      -7.786  -0.773 -33.505  1.00  0.00    -0.348 N 
HETATM    3  O   UNL     1      -6.767  -0.272 -35.481  1.00  0.00    -0.267 OA
HETATM    4  H   UNL     1      -7.867  -1.444 -32.747  1.00  0.00     0.163 HD
ENDROOT
BRANCH   1   5
HETATM    5  C   UNL     1      -6.142  -2.313 -34.480  1.00  0.00     0.084 A 
HETATM    6  C   UNL     1      -4.806  -2.426 -34.087  1.00  0.00     0.180 A 
HETATM    7  N   UNL     1      -4.131  -3.604 -34.053  1.00  0.00    -0.236 NA
HETATM    8  C   UNL     1      -4.801  -4.714 -34.429  1.00  0.00     0.119 A 
HETATM    9  C   UNL     1      -6.121  -4.710 -34.839  1.00  0.00     0.020 A 
HETATM   10  C   UNL     1      -6.797  -3.492 -34.864  1.00  0.00     0.023 A 
BRANCH   6  11
HETATM   11  O   UNL     1      -4.129  -1.287 -33.695  1.00  0.00    -0.334 OA
BRANCH  11  12
HETATM   12  C   UNL     1      -3.913  -1.188 -32.285  1.00  0.00     0.173 C 
HETATM   13  C   UNL     1      -4.301   0.217 -31.860  1.00  0.00     0.034 C 
ENDBRANCH  11  12
ENDBRANCH   6  11
ENDBRANCH   1   5
BRANCH   2  14
HETATM   14  C   UNL     1      -8.587   0.435 -33.432  1.00  0.00     0.114 C 
HETATM   15  C   UNL     1      -9.989   0.147 -32.887  1.00  0.00     0.037 C 
BRANCH  14  16
HETATM   16  C   UNL     1      -7.839   1.476 -32.614  1.00  0.00    -0.036 A 
HETATM   17  C   UNL     1      -7.791   1.422 -31.211  1.00  0.00     0.010 A 
HETATM   18  C   UNL     1      -7.065   2.367 -30.483  1.00  0.00     0.019 A 
HETATM   19  C   UNL     1      -6.371   3.371 -31.154  1.00  0.00     0.011 A 
HETATM   20 BR   UNL     1      -5.381   4.646 -30.170  1.00  0.00    -0.051 Br
HETATM   21  C   UNL     1      -6.394   3.437 -32.544  1.00  0.00     0.019 A 
HETATM   22  C   UNL     1      -7.122   2.490 -33.270  1.00  0.00     0.010 A 
ENDBRANCH  14  16
ENDBRANCH   2  14
TORSDOF 5
ENDMDL
MODEL 5
REMARK VINA RESULT:      -6.7      3.263      6.190
REMARK  5 active torsions:
REMARK  status: ('A' for Active; 'I' for Inactive)
REMARK    1  A    between atoms: C_2  and  O_3 
REMARK    2  A    between atoms: O_3  and  C_4 
REMARK    3  A    between atoms: C_9  and  C_10 
REMARK       I    between atoms: C_10  and  N_11 
REMARK    4  A    between atoms: N_11  and  C_12 
REMARK    5  A    between atoms: C_12  and  C_13 
ROOT
HETATM    1  C   UNL     1      -7.892   1.092 -32.017  1.00  0.00     0.256 C 
HETATM    2  N   UNL     1      -7.166   0.637 -33.090  1.00  0.00    -0.348 N 
HETATM    3  O   UNL     1      -9.010   0.660 -31.750  1.00  0.00    -0.267 OA
HETATM    4  H   UNL     1      -6.245   1.029 -33.259  1.00  0.00     0.163 HD
ENDROOT
BRANCH   1   5
HETATM    5  C   UNL     1      -7.280   2.148 -31.158  1.00  0.00     0.084 A 
HETATM    6  C   UNL     1      -5.917   2.273 -30.881  1.00  0.00     0.180 A 
HETATM    7  N   UNL     1      -5.398   3.248 -30.091  1.00  0.00    -0.236 NA
HETATM    8  C   UNL     1      -6.262   4.131 -29.547  1.00  0.00     0.119 A 
HETATM    9  C   UNL     1      -7.628   4.093 -29.754  1.00  0.00     0.020 A 
HETATM   10  C   UNL     1      -8.140   3.088 -30.570  1.00  0.00     0.023 A 
BRANCH   6  11
HETATM   11  O   UNL     1      -5.037   1.370 -31.448  1.00  0.00    -0.334 OA
BRANCH  11  12
HETATM   12  C   UNL     1      -4.405   0.498 -30.508  1.00  0.00     0.173 C 
HETATM   13  C   UNL     1      -3.045   0.126 -31.072  1.00  0.00     0.034 C 
ENDBRANCH  11  12
ENDBRANCH   6  11
ENDBRANCH   1   5
BRANCH   2  14
HETATM   14  C   UNL     1      -7.642  -0.397 -33.991  1.00  0.00     0.114 C 
HETATM   15  C   UNL     1      -7.935   0.167 -35.384  1.00  0.00     0.037 C 
BRANCH  14  16
HETATM   16  C   UNL     1      -6.634  -1.535 -34.016  1.00  0.00    -0.036 A 
HETATM   17  C   UNL     1      -6.943  -2.788 -34.571  1.00  0.00     0.010 A 
HETATM   18  C   UNL     1      -5.987  -3.805 -34.618  1.00  0.00     0.019 A 
HETATM   19  C   UNL     1      -4.708  -3.574 -34.119  1.00  0.00     0.011 A 
HETATM   20 BR   UNL     1      -3.411  -4.947 -34.190  1.00  0.00    -0.051 Br
HETATM   21  C   UNL     1      -4.375  -2.336 -33.577  1.00  0.00     0.019 A 
HETATM   22  C   UNL     1      -5.333  -1.320 -33.530  1.00  0.00     0.010 A 
ENDBRANCH  14  16
ENDBRANCH   2  14
TORSDOF 5
ENDMDL
MODEL 6
REMARK VINA RESULT:      -6.6      4.270      7.222
REMARK  5 active torsions:
REMARK  status: ('A' for Active; 'I' for Inactive)
REMARK    1  A    between atoms: C_2  and  O_3 
REMARK    2  A    between atoms: O_3  and  C_4 
REMARK    3  A    between atoms: C_9  and  C_10 
REMARK       I    between atoms: C_10  and  N_11 
REMARK    4  A    between atoms: N_11  and  C_12 
REMARK    5  A    between atoms: C_12  and  C_13 
ROOT
HETATM    1  C   UNL     1      -3.056   3.494 -31.648  1.00  0.00     0.256 C 
HETATM    2  N   UNL     1      -4.410   3.650 -31.485  1.00  0.00    -0.348 N 
HETATM    3  O   UNL     1      -2.443   2.540 -31.177  1.00  0.00    -0.267 OA
HETATM    4  H   UNL     1      -4.863   4.458 -31.901  1.00  0.00     0.163 HD
ENDROOT
BRANCH   1   5
HETATM    5  C   UNL     1      -2.323   4.533 -32.430  1.00  0.00     0.084 A 
HETATM    6  C   UNL     1      -1.480   5.506 -31.888  1.00  0.00     0.180 A 
HETATM    7  N   UNL     1      -0.832   6.437 -32.635  1.00  0.00    -0.236 NA
HETATM    8  C   UNL     1      -1.030   6.409 -33.970  1.00  0.00     0.119 A 
HETATM    9  C   UNL     1      -1.846   5.492 -34.604  1.00  0.00     0.020 A 
HETATM   10  C   UNL     1      -2.499   4.543 -33.822  1.00  0.00     0.023 A 
BRANCH   6  11
HETATM   11  O   UNL     1      -1.276   5.523 -30.521  1.00  0.00    -0.334 OA
BRANCH  11  12
HETATM   12  C   UNL     1       0.056   5.188 -30.124  1.00  0.00     0.173 C 
HETATM   13  C   UNL     1       0.416   6.069 -28.941  1.00  0.00     0.034 C 
ENDBRANCH  11  12
ENDBRANCH   6  11
ENDBRANCH   1   5
BRANCH   2  14
HETATM   14  C   UNL     1      -5.238   2.704 -30.760  1.00  0.00     0.114 C 
HETATM   15  C   UNL     1      -6.453   3.391 -30.131  1.00  0.00     0.037 C 
BRANCH  14  16
HETATM   16  C   UNL     1      -5.621   1.566 -31.692  1.00  0.00    -0.036 A 
HETATM   17  C   UNL     1      -5.986   1.794 -33.030  1.00  0.00     0.010 A 
HETATM   18  C   UNL     1      -6.296   0.728 -33.878  1.00  0.00     0.019 A 
HETATM   19  C   UNL     1      -6.233  -0.578 -33.398  1.00  0.00     0.011 A 
HETATM   20 BR   UNL     1      -6.645  -2.021 -34.548  1.00  0.00    -0.051 Br
HETATM   21  C   UNL     1      -5.862  -0.828 -32.081  1.00  0.00     0.019 A 
HETATM   22  C   UNL     1      -5.553   0.240 -31.234  1.00  0.00     0.010 A 
ENDBRANCH  14  16
ENDBRANCH   2  14
TORSDOF 5
ENDMDL
MODEL 7
REMARK VINA RESULT:      -6.6      3.548      6.971
REMARK  5 active torsions:
REMARK  status: ('A' for Active; 'I' for Inactive)
REMARK    1  A    between atoms: C_2  and  O_3 
REMARK    2  A    between atoms: O_3  and  C_4 
REMARK    3  A    between atoms: C_9  and  C_10 
REMARK       I    between atoms: C_10  and  N_11 
REMARK    4  A    between atoms: N_11  and  C_12 
REMARK    5  A    between atoms: C_12  and  C_13 
ROOT
HETATM    1  C   UNL     1      -6.034   2.462 -31.640  1.00  0.00     0.256 C 
HETATM    2  N   UNL     1      -5.958   1.095 -31.743  1.00  0.00    -0.348 N 
HETATM    3  O   UNL     1      -5.091   3.196 -31.921  1.00  0.00    -0.267 OA
HETATM    4  H   UNL     1      -6.772   0.540 -31.500  1.00  0.00     0.163 HD
ENDROOT
BRANCH   1   5
HETATM    5  C   UNL     1      -7.320   3.055 -31.170  1.00  0.00     0.084 A 
HETATM    6  C   UNL     1      -8.579   2.465 -31.308  1.00  0.00     0.180 A 
HETATM    7  N   UNL     1      -9.729   3.038 -30.868  1.00  0.00    -0.236 NA
HETATM    8  C   UNL     1      -9.632   4.247 -30.275  1.00  0.00     0.119 A 
HETATM    9  C   UNL     1      -8.437   4.917 -30.094  1.00  0.00     0.020 A 
HETATM   10  C   UNL     1      -7.269   4.311 -30.548  1.00  0.00     0.023 A 
BRANCH   6  11
HETATM   11  O   UNL     1      -8.669   1.223 -31.909  1.00  0.00    -0.334 OA
BRANCH  11  12
HETATM   12  C   UNL     1      -9.784   1.079 -32.792  1.00  0.00     0.173 C 
HETATM   13  C   UNL     1      -9.284   1.328 -34.204  1.00  0.00     0.034 C 
ENDBRANCH  11  12
ENDBRANCH   6  11
ENDBRANCH   1   5
BRANCH   2  14
HETATM   14  C   UNL     1      -4.770   0.398 -32.203  1.00  0.00     0.114 C 
HETATM   15  C   UNL     1      -3.836   0.057 -31.038  1.00  0.00     0.037 C 
BRANCH  14  16
HETATM   16  C   UNL     1      -5.191  -0.827 -32.998  1.00  0.00    -0.036 A 
HETATM   17  C   UNL     1      -6.520  -1.019 -33.416  1.00  0.00     0.010 A 
HETATM   18  C   UNL     1      -6.874  -2.133 -34.180  1.00  0.00     0.019 A 
HETATM   19  C   UNL     1      -5.901  -3.060 -34.543  1.00  0.00     0.011 A 
HETATM   20 BR   UNL     1      -6.379  -4.564 -35.585  1.00  0.00    -0.051 Br
HETATM   21  C   UNL     1      -4.577  -2.883 -34.152  1.00  0.00     0.019 A 
HETATM   22  C   UNL     1      -4.224  -1.768 -33.387  1.00  0.00     0.010 A 
ENDBRANCH  14  16
ENDBRANCH   2  14
TORSDOF 5
ENDMDL
MODEL 8
REMARK VINA RESULT:      -6.6      3.722      5.605
REMARK  5 active torsions:
REMARK  status: ('A' for Active; 'I' for Inactive)
REMARK    1  A    between atoms: C_2  and  O_3 
REMARK    2  A    between atoms: O_3  and  C_4 
REMARK    3  A    between atoms: C_9  and  C_10 
REMARK       I    between atoms: C_10  and  N_11 
REMARK    4  A    between atoms: N_11  and  C_12 
REMARK    5  A    between atoms: C_12  and  C_13 
ROOT
HETATM    1  C   UNL     1      -6.258   0.969 -31.152  1.00  0.00     0.256 C 
HETATM    2  N   UNL     1      -7.140   1.542 -32.035  1.00  0.00    -0.348 N 
HETATM    3  O   UNL     1      -6.255   1.243 -29.955  1.00  0.00    -0.267 OA
HETATM    4  H   UNL     1      -7.097   1.274 -33.013  1.00  0.00     0.163 HD
ENDROOT
BRANCH   1   5
HETATM    5  C   UNL     1      -5.279  -0.022 -31.689  1.00  0.00     0.084 A 
HETATM    6  C   UNL     1      -5.548  -0.966 -32.682  1.00  0.00     0.180 A 
HETATM    7  N   UNL     1      -4.630  -1.854 -33.143  1.00  0.00    -0.236 NA
HETATM    8  C   UNL     1      -3.397  -1.811 -32.595  1.00  0.00     0.119 A 
HETATM    9  C   UNL     1      -3.029  -0.920 -31.605  1.00  0.00     0.020 A 
HETATM   10  C   UNL     1      -3.984  -0.015 -31.148  1.00  0.00     0.023 A 
BRANCH   6  11
HETATM   11  O   UNL     1      -6.811  -0.998 -33.245  1.00  0.00    -0.334 OA
BRANCH  11  12
HETATM   12  C   UNL     1      -6.816  -1.181 -34.662  1.00  0.00     0.173 C 
HETATM   13  C   UNL     1      -7.147   0.160 -35.295  1.00  0.00     0.034 C 
ENDBRANCH  11  12
ENDBRANCH   6  11
ENDBRANCH   1   5
BRANCH   2  14
HETATM   14  C   UNL     1      -8.149   2.505 -31.637  1.00  0.00     0.114 C 
HETATM   15  C   UNL     1      -7.711   3.939 -31.954  1.00  0.00     0.037 C 
BRANCH  14  16
HETATM   16  C   UNL     1      -9.472   2.135 -32.288  1.00  0.00    -0.036 A 
HETATM   17  C   UNL     1     -10.447   3.102 -32.588  1.00  0.00     0.010 A 
HETATM   18  C   UNL     1     -11.638   2.742 -33.223  1.00  0.00     0.019 A 
HETATM   19  C   UNL     1     -11.860   1.413 -33.575  1.00  0.00     0.011 A 
HETATM   20 BR   UNL     1     -13.468   0.928 -34.442  1.00  0.00    -0.051 Br
HETATM   21  C   UNL     1     -10.903   0.442 -33.299  1.00  0.00     0.019 A 
HETATM   22  C   UNL     1      -9.712   0.803 -32.663  1.00  0.00     0.010 A 
ENDBRANCH  14  16
ENDBRANCH   2  14
TORSDOF 5
ENDMDL
MODEL 9
REMARK VINA RESULT:      -6.4      4.830      7.496
REMARK  5 active torsions:
REMARK  status: ('A' for Active; 'I' for Inactive)
REMARK    1  A    between atoms: C_2  and  O_3 
REMARK    2  A    between atoms: O_3  and  C_4 
REMARK    3  A    between atoms: C_9  and  C_10 
REMARK       I    between atoms: C_10  and  N_11 
REMARK    4  A    between atoms: N_11  and  C_12 
REMARK    5  A    between atoms: C_12  and  C_13 
ROOT
HETATM    1  C   UNL     1     -10.547   2.142 -33.565  1.00  0.00     0.256 C 
HETATM    2  N   UNL     1      -9.722   1.580 -32.623  1.00  0.00    -0.348 N 
HETATM    3  O   UNL     1     -10.128   2.891 -34.443  1.00  0.00    -0.267 OA
HETATM    4  H   UNL     1     -10.126   0.966 -31.923  1.00  0.00     0.163 HD
ENDROOT
BRANCH   1   5
HETATM    5  C   UNL     1     -12.002   1.816 -33.502  1.00  0.00     0.084 A 
HETATM    6  C   UNL     1     -13.002   2.673 -33.037  1.00  0.00     0.180 A 
HETATM    7  N   UNL     1     -14.318   2.338 -32.993  1.00  0.00    -0.236 NA
HETATM    8  C   UNL     1     -14.657   1.102 -33.418  1.00  0.00     0.119 A 
HETATM    9  C   UNL     1     -13.746   0.178 -33.892  1.00  0.00     0.020 A 
HETATM   10  C   UNL     1     -12.403   0.542 -33.933  1.00  0.00     0.023 A 
BRANCH   6  11
HETATM   11  O   UNL     1     -12.648   3.940 -32.611  1.00  0.00    -0.334 OA
BRANCH  11  12
HETATM   12  C   UNL     1     -12.714   4.121 -31.194  1.00  0.00     0.173 C 
HETATM   13  C   UNL     1     -11.294   4.310 -30.691  1.00  0.00     0.034 C 
ENDBRANCH  11  12
ENDBRANCH   6  11
ENDBRANCH   1   5
BRANCH   2  14
HETATM   14  C   UNL     1      -8.289   1.806 -32.586  1.00  0.00     0.114 C 
HETATM   15  C   UNL     1      -7.816   2.174 -31.176  1.00  0.00     0.037 C 
BRANCH  14  16
HETATM   16  C   UNL     1      -7.580   0.583 -33.145  1.00  0.00    -0.036 A 
HETATM   17  C   UNL     1      -7.820   0.118 -34.449  1.00  0.00     0.010 A 
HETATM   18  C   UNL     1      -7.127  -0.984 -34.954  1.00  0.00     0.019 A 
HETATM   19  C   UNL     1      -6.179  -1.626 -34.162  1.00  0.00     0.011 A 
HETATM   20 BR   UNL     1      -5.235  -3.114 -34.847  1.00  0.00    -0.051 Br
HETATM   21  C   UNL     1      -5.916  -1.175 -32.872  1.00  0.00     0.019 A 
HETATM   22  C   UNL     1      -6.610  -0.073 -32.368  1.00  0.00     0.010 A 
ENDBRANCH  14  16
ENDBRANCH   2  14
TORSDOF 5
ENDMDL
MODEL 10
REMARK VINA RESULT:      -6.1     13.822     14.972
REMARK  5 active torsions:
REMARK  status: ('A' for Active; 'I' for Inactive)
REMARK    1  A    between atoms: C_2  and  O_3 
REMARK    2  A    between atoms: O_3  and  C_4 
REMARK    3  A    between atoms: C_9  and  C_10 
REMARK       I    between atoms: C_10  and  N_11 
REMARK    4  A    between atoms: N_11  and  C_12 
REMARK    5  A    between atoms: C_12  and  C_13 
ROOT
HETATM    1  C   UNL     1      -5.991 -13.709 -37.580  1.00  0.00     0.256 C 
HETATM    2  N   UNL     1      -5.236 -12.727 -36.988  1.00  0.00    -0.348 N 
HETATM    3  O   UNL     1      -5.812 -14.902 -37.353  1.00  0.00    -0.267 OA
HETATM    4  H   UNL     1      -5.432 -11.756 -37.212  1.00  0.00     0.163 HD
ENDROOT
BRANCH   1   5
HETATM    5  C   UNL     1      -7.064 -13.287 -38.527  1.00  0.00     0.084 A 
HETATM    6  C   UNL     1      -6.854 -12.653 -39.754  1.00  0.00     0.180 A 
HETATM    7  N   UNL     1      -7.859 -12.282 -40.589  1.00  0.00    -0.236 NA
HETATM    8  C   UNL     1      -9.123 -12.542 -40.192  1.00  0.00     0.119 A 
HETATM    9  C   UNL     1      -9.439 -13.161 -38.997  1.00  0.00     0.020 A 
HETATM   10  C   UNL     1      -8.394 -13.536 -38.157  1.00  0.00     0.023 A 
BRANCH   6  11
HETATM   11  O   UNL     1      -5.557 -12.397 -40.157  1.00  0.00    -0.334 OA
BRANCH  11  12
HETATM   12  C   UNL     1      -5.121 -13.188 -41.265  1.00  0.00     0.173 C 
HETATM   13  C   UNL     1      -4.040 -14.127 -40.759  1.00  0.00     0.034 C 
ENDBRANCH  11  12
ENDBRANCH   6  11
ENDBRANCH   1   5
BRANCH   2  14
HETATM   14  C   UNL     1      -4.174 -13.005 -36.038  1.00  0.00     0.114 C 
HETATM   15  C   UNL     1      -4.606 -14.052 -35.007  1.00  0.00     0.037 C 
BRANCH  14  16
HETATM   16  C   UNL     1      -2.921 -13.408 -36.800  1.00  0.00    -0.036 A 
HETATM   17  C   UNL     1      -2.414 -12.634 -37.857  1.00  0.00     0.010 A 
HETATM   18  C   UNL     1      -1.239 -13.005 -38.515  1.00  0.00     0.019 A 
HETATM   19  C   UNL     1      -0.555 -14.149 -38.114  1.00  0.00     0.011 A 
HETATM   20 BR   UNL     1       1.040 -14.647 -39.000  1.00  0.00    -0.051 Br
HETATM   21  C   UNL     1      -1.032 -14.924 -37.062  1.00  0.00     0.019 A 
HETATM   22  C   UNL     1      -2.207 -14.552 -36.405  1.00  0.00     0.010 A 
ENDBRANCH  14  16
ENDBRANCH   2  14
TORSDOF 5
ENDMDL
