MODEL 1
REMARK VINA RESULT:      -8.2      0.000      0.000
REMARK  7 active torsions:
REMARK  status: ('A' for Active; 'I' for Inactive)
REMARK    1  A    between atoms: C_5  and  N_6 
REMARK    2  A    between atoms: N_6  and  C_9 
REMARK    3  A    between atoms: C_9  and  C_10 
REMARK    4  A    between atoms: C_10  and  C_11 
REMARK    5  A    between atoms: C_10  and  C_13 
REMARK    6  A    between atoms: C_11  and  O_12 
REMARK    7  A    between atoms: C_13  and  C_14 
ROOT
HETATM    1  N   UNL     1      -5.597   2.656 -33.105  1.00  0.00    -0.066 N 
HETATM    2  H   UNL     1      -4.801   2.267 -33.642  1.00  0.00     0.278 HD
HETATM    3  H   UNL     1      -6.240   3.041 -33.823  1.00  0.00     0.278 HD
ENDROOT
BRANCH   1   4
HETATM    4  C   UNL     1      -6.173   1.494 -32.397  1.00  0.00     0.220 C 
HETATM    5  C   UNL     1      -5.358   0.260 -32.642  1.00  0.00    -0.021 A 
HETATM    6  C   UNL     1      -6.022  -0.638 -33.495  1.00  0.00    -0.040 A 
HETATM    7  C   UNL     1      -4.082  -0.012 -32.165  1.00  0.00     0.010 A 
HETATM    8  C   UNL     1      -5.438  -1.853 -33.850  1.00  0.00    -0.055 A 
HETATM    9  C   UNL     1      -7.355  -0.088 -33.923  1.00  0.00     0.018 C 
HETATM   10  C   UNL     1      -6.117  -2.844 -34.748  1.00  0.00     0.049 C 
HETATM   11  C   UNL     1      -4.146  -2.118 -33.371  1.00  0.00     0.007 A 
HETATM   12  C   UNL     1      -3.476  -1.208 -32.540  1.00  0.00     0.001 A 
HETATM   13  C   UNL     1      -7.554   1.069 -32.920  1.00  0.00     0.047 C 
HETATM   14  C   UNL     1      -7.363   0.391 -35.370  1.00  0.00     0.015 C 
ENDBRANCH   1   4
BRANCH   1  15
HETATM   15  C   UNL     1      -5.038   3.776 -32.305  1.00  0.00     0.240 C 
BRANCH  15  16
HETATM   16  C   UNL     1      -4.087   4.645 -33.156  1.00  0.00     0.040 C 
BRANCH  16  17
HETATM   17  C   UNL     1      -4.643   4.805 -34.579  1.00  0.00     0.170 C 
BRANCH  17  18
HETATM   18  O   UNL     1      -3.740   5.592 -35.356  1.00  0.00    -0.400 OA
HETATM   19  H   UNL     1      -4.160   6.471 -35.462  1.00  0.00     0.209 HD
ENDBRANCH  17  18
ENDBRANCH  16  17
BRANCH  16  20
HETATM   20  C   UNL     1      -2.632   4.127 -33.232  1.00  0.00     0.067 C 
BRANCH  20  21
HETATM   21  C   UNL     1      -1.659   4.963 -32.446  1.00  0.00     0.034 A 
HETATM   22  N   UNL     1      -1.255   4.441 -31.252  1.00  0.00    -0.266 NA
HETATM   23  C   UNL     1      -0.379   5.186 -30.534  1.00  0.00     0.117 A 
HETATM   24  C   UNL     1       0.084   6.431 -30.925  1.00  0.00     0.019 A 
HETATM   25  C   UNL     1      -0.363   6.948 -32.135  1.00  0.00     0.003 A 
HETATM   26  C   UNL     1      -1.247   6.207 -32.911  1.00  0.00     0.027 A 
ENDBRANCH  20  21
ENDBRANCH  16  20
ENDBRANCH  15  16
ENDBRANCH   1  15
TORSDOF 7
ENDMDL
MODEL 2
REMARK VINA RESULT:      -8.2      2.773      4.420
REMARK  7 active torsions:
REMARK  status: ('A' for Active; 'I' for Inactive)
REMARK    1  A    between atoms: C_5  and  N_6 
REMARK    2  A    between atoms: N_6  and  C_9 
REMARK    3  A    between atoms: C_9  and  C_10 
REMARK    4  A    between atoms: C_10  and  C_11 
REMARK    5  A    between atoms: C_10  and  C_13 
REMARK    6  A    between atoms: C_11  and  O_12 
REMARK    7  A    between atoms: C_13  and  C_14 
ROOT
HETATM    1  N   UNL     1      -6.577  -0.329 -32.543  1.00  0.00    -0.066 N 
HETATM    2  H   UNL     1      -6.843  -1.270 -32.202  1.00  0.00     0.278 HD
HETATM    3  H   UNL     1      -6.020   0.085 -31.773  1.00  0.00     0.278 HD
ENDROOT
BRANCH   1   4
HETATM    4  C   UNL     1      -5.766  -0.586 -33.752  1.00  0.00     0.220 C 
HETATM    5  C   UNL     1      -5.852  -2.026 -34.158  1.00  0.00    -0.021 A 
HETATM    6  C   UNL     1      -4.656  -2.712 -33.890  1.00  0.00    -0.040 A 
HETATM    7  C   UNL     1      -6.954  -2.683 -34.691  1.00  0.00     0.010 A 
HETATM    8  C   UNL     1      -4.523  -4.066 -34.195  1.00  0.00    -0.055 A 
HETATM    9  C   UNL     1      -3.641  -1.798 -33.259  1.00  0.00     0.018 C 
HETATM   10  C   UNL     1      -3.260  -4.833 -33.935  1.00  0.00     0.049 C 
HETATM   11  C   UNL     1      -5.642  -4.725 -34.726  1.00  0.00     0.007 A 
HETATM   12  C   UNL     1      -6.843  -4.043 -34.970  1.00  0.00     0.001 A 
HETATM   13  C   UNL     1      -4.255  -0.409 -33.535  1.00  0.00     0.047 C 
HETATM   14  C   UNL     1      -3.450  -2.062 -31.770  1.00  0.00     0.015 C 
ENDBRANCH   1   4
BRANCH   1  15
HETATM   15  C   UNL     1      -7.849   0.427 -32.682  1.00  0.00     0.240 C 
BRANCH  15  16
HETATM   16  C   UNL     1      -7.712   1.854 -32.110  1.00  0.00     0.040 C 
BRANCH  16  17
HETATM   17  C   UNL     1      -9.096   2.424 -31.765  1.00  0.00     0.170 C 
BRANCH  17  18
HETATM   18  O   UNL     1      -9.550   1.857 -30.536  1.00  0.00    -0.400 OA
HETATM   19  H   UNL     1      -9.202   2.431 -29.821  1.00  0.00     0.209 HD
ENDBRANCH  17  18
ENDBRANCH  16  17
BRANCH  16  20
HETATM   20  C   UNL     1      -6.966   2.849 -33.030  1.00  0.00     0.067 C 
BRANCH  20  21
HETATM   21  C   UNL     1      -5.528   3.059 -32.639  1.00  0.00     0.034 A 
HETATM   22  N   UNL     1      -5.110   2.393 -31.526  1.00  0.00    -0.266 NA
HETATM   23  C   UNL     1      -3.816   2.576 -31.162  1.00  0.00     0.117 A 
HETATM   24  C   UNL     1      -2.935   3.411 -31.828  1.00  0.00     0.019 A 
HETATM   25  C   UNL     1      -3.395   4.095 -32.946  1.00  0.00     0.003 A 
HETATM   26  C   UNL     1      -4.710   3.921 -33.363  1.00  0.00     0.027 A 
ENDBRANCH  20  21
ENDBRANCH  16  20
ENDBRANCH  15  16
ENDBRANCH   1  15
TORSDOF 7
ENDMDL
MODEL 3
REMARK VINA RESULT:      -8.1      2.697      4.253
REMARK  7 active torsions:
REMARK  status: ('A' for Active; 'I' for Inactive)
REMARK    1  A    between atoms: C_5  and  N_6 
REMARK    2  A    between atoms: N_6  and  C_9 
REMARK    3  A    between atoms: C_9  and  C_10 
REMARK    4  A    between atoms: C_10  and  C_11 
REMARK    5  A    between atoms: C_10  and  C_13 
REMARK    6  A    between atoms: C_11  and  O_12 
REMARK    7  A    between atoms: C_13  and  C_14 
ROOT
HETATM    1  N   UNL     1      -6.283  -0.234 -32.233  1.00  0.00    -0.066 N 
HETATM    2  H   UNL     1      -6.939  -1.034 -32.169  1.00  0.00     0.278 HD
HETATM    3  H   UNL     1      -5.677  -0.320 -31.395  1.00  0.00     0.278 HD
ENDROOT
BRANCH   1   4
HETATM    4  C   UNL     1      -5.540  -0.462 -33.491  1.00  0.00     0.220 C 
HETATM    5  C   UNL     1      -5.737  -1.864 -33.982  1.00  0.00    -0.021 A 
HETATM    6  C   UNL     1      -4.578  -2.641 -33.812  1.00  0.00    -0.040 A 
HETATM    7  C   UNL     1      -6.900  -2.415 -34.505  1.00  0.00     0.010 A 
HETATM    8  C   UNL     1      -4.546  -3.977 -34.207  1.00  0.00    -0.055 A 
HETATM    9  C   UNL     1      -3.481  -1.835 -33.170  1.00  0.00     0.018 C 
HETATM   10  C   UNL     1      -3.327  -4.837 -34.052  1.00  0.00     0.049 C 
HETATM   11  C   UNL     1      -5.726  -4.529 -34.727  1.00  0.00     0.007 A 
HETATM   12  C   UNL     1      -6.889  -3.758 -34.873  1.00  0.00     0.001 A 
HETATM   13  C   UNL     1      -4.013  -0.395 -33.332  1.00  0.00     0.047 C 
HETATM   14  C   UNL     1      -3.246  -2.207 -31.711  1.00  0.00     0.015 C 
ENDBRANCH   1   4
BRANCH   1  15
HETATM   15  C   UNL     1      -7.118   0.988 -32.106  1.00  0.00     0.240 C 
BRANCH  15  16
HETATM   16  C   UNL     1      -6.255   2.213 -31.739  1.00  0.00     0.040 C 
BRANCH  16  17
HETATM   17  C   UNL     1      -6.535   2.647 -30.292  1.00  0.00     0.170 C 
BRANCH  17  18
HETATM   18  O   UNL     1      -6.504   1.503 -29.439  1.00  0.00    -0.400 OA
HETATM   19  H   UNL     1      -5.565   1.228 -29.379  1.00  0.00     0.209 HD
ENDBRANCH  17  18
ENDBRANCH  16  17
BRANCH  16  20
HETATM   20  C   UNL     1      -6.429   3.431 -32.678  1.00  0.00     0.067 C 
BRANCH  20  21
HETATM   21  C   UNL     1      -5.127   3.961 -33.215  1.00  0.00     0.034 A 
HETATM   22  N   UNL     1      -5.220   4.776 -34.303  1.00  0.00    -0.266 NA
HETATM   23  C   UNL     1      -4.052   5.259 -34.797  1.00  0.00     0.117 A 
HETATM   24  C   UNL     1      -2.804   4.944 -34.285  1.00  0.00     0.019 A 
HETATM   25  C   UNL     1      -2.739   4.092 -33.190  1.00  0.00     0.003 A 
HETATM   26  C   UNL     1      -3.914   3.590 -32.642  1.00  0.00     0.027 A 
ENDBRANCH  20  21
ENDBRANCH  16  20
ENDBRANCH  15  16
ENDBRANCH   1  15
TORSDOF 7
ENDMDL
MODEL 4
REMARK VINA RESULT:      -8.0      1.745      2.269
REMARK  7 active torsions:
REMARK  status: ('A' for Active; 'I' for Inactive)
REMARK    1  A    between atoms: C_5  and  N_6 
REMARK    2  A    between atoms: N_6  and  C_9 
REMARK    3  A    between atoms: C_9  and  C_10 
REMARK    4  A    between atoms: C_10  and  C_11 
REMARK    5  A    between atoms: C_10  and  C_13 
REMARK    6  A    between atoms: C_11  and  O_12 
REMARK    7  A    between atoms: C_13  and  C_14 
ROOT
HETATM    1  N   UNL     1      -6.231   1.993 -32.345  1.00  0.00    -0.066 N 
HETATM    2  H   UNL     1      -5.802   2.345 -31.470  1.00  0.00     0.278 HD
HETATM    3  H   UNL     1      -5.455   1.973 -33.032  1.00  0.00     0.278 HD
ENDROOT
BRANCH   1   4
HETATM    4  C   UNL     1      -6.716   0.639 -32.004  1.00  0.00     0.220 C 
HETATM    5  C   UNL     1      -5.695  -0.400 -32.356  1.00  0.00    -0.021 A 
HETATM    6  C   UNL     1      -6.086  -1.151 -33.478  1.00  0.00    -0.040 A 
HETATM    7  C   UNL     1      -4.474  -0.622 -31.733  1.00  0.00     0.010 A 
HETATM    8  C   UNL     1      -5.278  -2.174 -33.972  1.00  0.00    -0.055 A 
HETATM    9  C   UNL     1      -7.414  -0.679 -34.005  1.00  0.00     0.018 C 
HETATM   10  C   UNL     1      -5.663  -3.006 -35.159  1.00  0.00     0.049 C 
HETATM   11  C   UNL     1      -4.042  -2.387 -33.344  1.00  0.00     0.007 A 
HETATM   12  C   UNL     1      -3.644  -1.620 -32.239  1.00  0.00     0.001 A 
HETATM   13  C   UNL     1      -7.928   0.185 -32.834  1.00  0.00     0.047 C 
HETATM   14  C   UNL     1      -7.290   0.115 -35.300  1.00  0.00     0.015 C 
ENDBRANCH   1   4
BRANCH   1  15
HETATM   15  C   UNL     1      -7.219   3.024 -32.756  1.00  0.00     0.240 C 
BRANCH  15  16
HETATM   16  C   UNL     1      -6.530   4.382 -33.006  1.00  0.00     0.040 C 
BRANCH  16  17
HETATM   17  C   UNL     1      -7.574   5.509 -33.047  1.00  0.00     0.170 C 
BRANCH  17  18
HETATM   18  O   UNL     1      -8.147   5.578 -34.353  1.00  0.00    -0.400 OA
HETATM   19  H   UNL     1      -9.025   5.147 -34.292  1.00  0.00     0.209 HD
ENDBRANCH  17  18
ENDBRANCH  16  17
BRANCH  16  20
HETATM   20  C   UNL     1      -5.666   4.442 -34.288  1.00  0.00     0.067 C 
BRANCH  20  21
HETATM   21  C   UNL     1      -4.200   4.643 -34.010  1.00  0.00     0.034 A 
HETATM   22  N   UNL     1      -3.750   4.164 -32.815  1.00  0.00    -0.266 NA
HETATM   23  C   UNL     1      -2.431   4.341 -32.553  1.00  0.00     0.117 A 
HETATM   24  C   UNL     1      -1.553   4.996 -33.400  1.00  0.00     0.019 A 
HETATM   25  C   UNL     1      -2.045   5.494 -34.599  1.00  0.00     0.003 A 
HETATM   26  C   UNL     1      -3.387   5.317 -34.915  1.00  0.00     0.027 A 
ENDBRANCH  20  21
ENDBRANCH  16  20
ENDBRANCH  15  16
ENDBRANCH   1  15
TORSDOF 7
ENDMDL
MODEL 5
REMARK VINA RESULT:      -7.9      4.161      8.172
REMARK  7 active torsions:
REMARK  status: ('A' for Active; 'I' for Inactive)
REMARK    1  A    between atoms: C_5  and  N_6 
REMARK    2  A    between atoms: N_6  and  C_9 
REMARK    3  A    between atoms: C_9  and  C_10 
REMARK    4  A    between atoms: C_10  and  C_11 
REMARK    5  A    between atoms: C_10  and  C_13 
REMARK    6  A    between atoms: C_11  and  O_12 
REMARK    7  A    between atoms: C_13  and  C_14 
ROOT
HETATM    1  N   UNL     1      -7.648   2.009 -32.788  1.00  0.00    -0.066 N 
HETATM    2  H   UNL     1      -7.893   1.051 -32.476  1.00  0.00     0.278 HD
HETATM    3  H   UNL     1      -7.526   2.550 -31.912  1.00  0.00     0.278 HD
ENDROOT
BRANCH   1   4
HETATM    4  C   UNL     1      -6.382   1.846 -33.532  1.00  0.00     0.220 C 
HETATM    5  C   UNL     1      -6.147   0.408 -33.881  1.00  0.00    -0.021 A 
HETATM    6  C   UNL     1      -5.115  -0.151 -33.108  1.00  0.00    -0.040 A 
HETATM    7  C   UNL     1      -6.850  -0.358 -34.802  1.00  0.00     0.010 A 
HETATM    8  C   UNL     1      -4.733  -1.481 -33.277  1.00  0.00    -0.055 A 
HETATM    9  C   UNL     1      -4.557   0.861 -32.144  1.00  0.00     0.018 C 
HETATM   10  C   UNL     1      -3.630  -2.112 -32.480  1.00  0.00     0.049 C 
HETATM   11  C   UNL     1      -5.452  -2.251 -34.202  1.00  0.00     0.007 A 
HETATM   12  C   UNL     1      -6.498  -1.697 -34.955  1.00  0.00     0.001 A 
HETATM   13  C   UNL     1      -5.129   2.180 -32.707  1.00  0.00     0.047 C 
HETATM   14  C   UNL     1      -4.988   0.609 -30.704  1.00  0.00     0.015 C 
ENDBRANCH   1   4
BRANCH   1  15
HETATM   15  C   UNL     1      -8.843   2.517 -33.510  1.00  0.00     0.240 C 
BRANCH  15  16
HETATM   16  C   UNL     1     -10.098   1.692 -33.157  1.00  0.00     0.040 C 
BRANCH  16  17
HETATM   17  C   UNL     1      -9.693   0.331 -32.570  1.00  0.00     0.170 C 
BRANCH  17  18
HETATM   18  O   UNL     1      -9.471   0.466 -31.167  1.00  0.00    -0.400 OA
HETATM   19  H   UNL     1      -8.526   0.705 -31.059  1.00  0.00     0.209 HD
ENDBRANCH  17  18
ENDBRANCH  16  17
BRANCH  16  20
HETATM   20  C   UNL     1     -11.077   1.468 -34.333  1.00  0.00     0.067 C 
BRANCH  20  21
HETATM   21  C   UNL     1     -12.524   1.515 -33.922  1.00  0.00     0.034 A 
HETATM   22  N   UNL     1     -12.856   2.483 -33.021  1.00  0.00    -0.266 NA
HETATM   23  C   UNL     1     -14.157   2.535 -32.642  1.00  0.00     0.117 A 
HETATM   24  C   UNL     1     -15.130   1.654 -33.085  1.00  0.00     0.019 A 
HETATM   25  C   UNL     1     -14.758   0.663 -33.985  1.00  0.00     0.003 A 
HETATM   26  C   UNL     1     -13.437   0.588 -34.414  1.00  0.00     0.027 A 
ENDBRANCH  20  21
ENDBRANCH  16  20
ENDBRANCH  15  16
ENDBRANCH   1  15
TORSDOF 7
ENDMDL
MODEL 6
REMARK VINA RESULT:      -7.8      2.382      3.041
REMARK  7 active torsions:
REMARK  status: ('A' for Active; 'I' for Inactive)
REMARK    1  A    between atoms: C_5  and  N_6 
REMARK    2  A    between atoms: N_6  and  C_9 
REMARK    3  A    between atoms: C_9  and  C_10 
REMARK    4  A    between atoms: C_10  and  C_11 
REMARK    5  A    between atoms: C_10  and  C_13 
REMARK    6  A    between atoms: C_11  and  O_12 
REMARK    7  A    between atoms: C_13  and  C_14 
ROOT
HETATM    1  N   UNL     1      -6.641   1.863 -32.224  1.00  0.00    -0.066 N 
HETATM    2  H   UNL     1      -5.617   1.823 -32.380  1.00  0.00     0.278 HD
HETATM    3  H   UNL     1      -7.031   2.231 -33.111  1.00  0.00     0.278 HD
ENDROOT
BRANCH   1   4
HETATM    4  C   UNL     1      -7.033   0.460 -31.974  1.00  0.00     0.220 C 
HETATM    5  C   UNL     1      -5.910  -0.477 -32.304  1.00  0.00    -0.021 A 
HETATM    6  C   UNL     1      -6.167  -1.201 -33.480  1.00  0.00    -0.040 A 
HETATM    7  C   UNL     1      -4.716  -0.631 -31.611  1.00  0.00     0.010 A 
HETATM    8  C   UNL     1      -5.249  -2.132 -33.964  1.00  0.00    -0.055 A 
HETATM    9  C   UNL     1      -7.494  -0.810 -34.073  1.00  0.00     0.018 C 
HETATM   10  C   UNL     1      -5.490  -2.932 -35.209  1.00  0.00     0.049 C 
HETATM   11  C   UNL     1      -4.041  -2.276 -33.265  1.00  0.00     0.007 A 
HETATM   12  C   UNL     1      -3.777  -1.535 -32.104  1.00  0.00     0.001 A 
HETATM   13  C   UNL     1      -8.149  -0.048 -32.901  1.00  0.00     0.047 C 
HETATM   14  C   UNL     1      -7.355   0.053 -35.321  1.00  0.00     0.015 C 
ENDBRANCH   1   4
BRANCH   1  15
HETATM   15  C   UNL     1      -6.848   2.866 -31.148  1.00  0.00     0.240 C 
BRANCH  15  16
HETATM   16  C   UNL     1      -5.756   3.955 -31.187  1.00  0.00     0.040 C 
BRANCH  16  17
HETATM   17  C   UNL     1      -5.781   4.781 -29.892  1.00  0.00     0.170 C 
BRANCH  17  18
HETATM   18  O   UNL     1      -5.313   3.978 -28.808  1.00  0.00    -0.400 OA
HETATM   19  H   UNL     1      -5.651   3.072 -28.970  1.00  0.00     0.209 HD
ENDBRANCH  17  18
ENDBRANCH  16  17
BRANCH  16  20
HETATM   20  C   UNL     1      -5.839   4.910 -32.402  1.00  0.00     0.067 C 
BRANCH  20  21
HETATM   21  C   UNL     1      -4.580   4.937 -33.226  1.00  0.00     0.034 A 
HETATM   22  N   UNL     1      -4.730   5.307 -34.530  1.00  0.00    -0.266 NA
HETATM   23  C   UNL     1      -3.603   5.333 -35.284  1.00  0.00     0.117 A 
HETATM   24  C   UNL     1      -2.348   4.977 -34.816  1.00  0.00     0.019 A 
HETATM   25  C   UNL     1      -2.230   4.582 -33.490  1.00  0.00     0.003 A 
HETATM   26  C   UNL     1      -3.358   4.560 -32.678  1.00  0.00     0.027 A 
ENDBRANCH  20  21
ENDBRANCH  16  20
ENDBRANCH  15  16
ENDBRANCH   1  15
TORSDOF 7
ENDMDL
MODEL 7
REMARK VINA RESULT:      -7.5      1.723      2.046
REMARK  7 active torsions:
REMARK  status: ('A' for Active; 'I' for Inactive)
REMARK    1  A    between atoms: C_5  and  N_6 
REMARK    2  A    between atoms: N_6  and  C_9 
REMARK    3  A    between atoms: C_9  and  C_10 
REMARK    4  A    between atoms: C_10  and  C_11 
REMARK    5  A    between atoms: C_10  and  C_13 
REMARK    6  A    between atoms: C_11  and  O_12 
REMARK    7  A    between atoms: C_13  and  C_14 
ROOT
HETATM    1  N   UNL     1      -5.840   1.845 -32.706  1.00  0.00    -0.066 N 
HETATM    2  H   UNL     1      -4.901   1.591 -33.066  1.00  0.00     0.278 HD
HETATM    3  H   UNL     1      -6.362   2.177 -33.538  1.00  0.00     0.278 HD
ENDROOT
BRANCH   1   4
HETATM    4  C   UNL     1      -6.384   0.582 -32.165  1.00  0.00     0.220 C 
HETATM    5  C   UNL     1      -5.570  -0.591 -32.620  1.00  0.00    -0.021 A 
HETATM    6  C   UNL     1      -6.254  -1.358 -33.577  1.00  0.00    -0.040 A 
HETATM    7  C   UNL     1      -4.277  -0.918 -32.228  1.00  0.00     0.010 A 
HETATM    8  C   UNL     1      -5.674  -2.498 -34.131  1.00  0.00    -0.055 A 
HETATM    9  C   UNL     1      -7.604  -0.765 -33.876  1.00  0.00     0.018 C 
HETATM   10  C   UNL     1      -6.375  -3.350 -35.147  1.00  0.00     0.049 C 
HETATM   11  C   UNL     1      -4.366  -2.818 -33.738  1.00  0.00     0.007 A 
HETATM   12  C   UNL     1      -3.675  -2.036 -32.799  1.00  0.00     0.001 A 
HETATM   13  C   UNL     1      -7.779   0.225 -32.704  1.00  0.00     0.047 C 
HETATM   14  C   UNL     1      -7.662  -0.073 -35.233  1.00  0.00     0.015 C 
ENDBRANCH   1   4
BRANCH   1  15
HETATM   15  C   UNL     1      -5.625   2.986 -31.780  1.00  0.00     0.240 C 
BRANCH  15  16
HETATM   16  C   UNL     1      -4.390   3.813 -32.196  1.00  0.00     0.040 C 
BRANCH  16  17
HETATM   17  C   UNL     1      -3.178   2.893 -32.406  1.00  0.00     0.170 C 
BRANCH  17  18
HETATM   18  O   UNL     1      -2.941   2.142 -31.216  1.00  0.00    -0.400 OA
HETATM   19  H   UNL     1      -3.536   1.364 -31.257  1.00  0.00     0.209 HD
ENDBRANCH  17  18
ENDBRANCH  16  17
BRANCH  16  20
HETATM   20  C   UNL     1      -4.007   4.943 -31.212  1.00  0.00     0.067 C 
BRANCH  20  21
HETATM   21  C   UNL     1      -2.909   5.835 -31.725  1.00  0.00     0.034 A 
HETATM   22  N   UNL     1      -3.105   6.368 -32.964  1.00  0.00    -0.266 NA
HETATM   23  C   UNL     1      -2.121   7.172 -33.438  1.00  0.00     0.117 A 
HETATM   24  C   UNL     1      -0.944   7.441 -32.758  1.00  0.00     0.019 A 
HETATM   25  C   UNL     1      -0.761   6.865 -31.508  1.00  0.00     0.003 A 
HETATM   26  C   UNL     1      -1.755   6.049 -30.978  1.00  0.00     0.027 A 
ENDBRANCH  20  21
ENDBRANCH  16  20
ENDBRANCH  15  16
ENDBRANCH   1  15
TORSDOF 7
ENDMDL
MODEL 8
REMARK VINA RESULT:      -7.4      4.080      6.619
REMARK  7 active torsions:
REMARK  status: ('A' for Active; 'I' for Inactive)
REMARK    1  A    between atoms: C_5  and  N_6 
REMARK    2  A    between atoms: N_6  and  C_9 
REMARK    3  A    between atoms: C_9  and  C_10 
REMARK    4  A    between atoms: C_10  and  C_11 
REMARK    5  A    between atoms: C_10  and  C_13 
REMARK    6  A    between atoms: C_11  and  O_12 
REMARK    7  A    between atoms: C_13  and  C_14 
ROOT
HETATM    1  N   UNL     1      -5.452   0.405 -31.868  1.00  0.00    -0.066 N 
HETATM    2  H   UNL     1      -6.422   0.045 -31.927  1.00  0.00     0.278 HD
HETATM    3  H   UNL     1      -5.013  -0.137 -31.101  1.00  0.00     0.278 HD
ENDROOT
BRANCH   1   4
HETATM    4  C   UNL     1      -4.860   0.098 -33.187  1.00  0.00     0.220 C 
HETATM    5  C   UNL     1      -5.491  -1.123 -33.785  1.00  0.00    -0.021 A 
HETATM    6  C   UNL     1      -4.617  -2.223 -33.761  1.00  0.00    -0.040 A 
HETATM    7  C   UNL     1      -6.785  -1.244 -34.277  1.00  0.00     0.010 A 
HETATM    8  C   UNL     1      -5.007  -3.460 -34.273  1.00  0.00    -0.055 A 
HETATM    9  C   UNL     1      -3.304  -1.852 -33.126  1.00  0.00     0.018 C 
HETATM   10  C   UNL     1      -4.100  -4.655 -34.275  1.00  0.00     0.049 C 
HETATM   11  C   UNL     1      -6.317  -3.578 -34.760  1.00  0.00     0.007 A 
HETATM   12  C   UNL     1      -7.195  -2.484 -34.760  1.00  0.00     0.001 A 
HETATM   13  C   UNL     1      -3.380  -0.310 -33.125  1.00  0.00     0.047 C 
HETATM   14  C   UNL     1      -3.140  -2.426 -31.723  1.00  0.00     0.015 C 
ENDBRANCH   1   4
BRANCH   1  15
HETATM   15  C   UNL     1      -5.572   1.826 -31.451  1.00  0.00     0.240 C 
BRANCH  15  16
HETATM   16  C   UNL     1      -7.046   2.283 -31.453  1.00  0.00     0.040 C 
BRANCH  16  17
HETATM   17  C   UNL     1      -7.278   3.339 -30.362  1.00  0.00     0.170 C 
BRANCH  17  18
HETATM   18  O   UNL     1      -7.209   2.719 -29.078  1.00  0.00    -0.400 OA
HETATM   19  H   UNL     1      -6.331   2.949 -28.707  1.00  0.00     0.209 HD
ENDBRANCH  17  18
ENDBRANCH  16  17
BRANCH  16  20
HETATM   20  C   UNL     1      -8.076   1.141 -31.283  1.00  0.00     0.067 C 
BRANCH  20  21
HETATM   21  C   UNL     1      -9.306   1.316 -32.132  1.00  0.00     0.034 A 
HETATM   22  N   UNL     1      -9.802   2.584 -32.207  1.00  0.00    -0.266 NA
HETATM   23  C   UNL     1     -10.911   2.755 -32.968  1.00  0.00     0.117 A 
HETATM   24  C   UNL     1     -11.567   1.727 -33.625  1.00  0.00     0.019 A 
HETATM   25  C   UNL     1     -11.052   0.441 -33.512  1.00  0.00     0.003 A 
HETATM   26  C   UNL     1      -9.905   0.227 -32.756  1.00  0.00     0.027 A 
ENDBRANCH  20  21
ENDBRANCH  16  20
ENDBRANCH  15  16
ENDBRANCH   1  15
TORSDOF 7
ENDMDL
MODEL 9
REMARK VINA RESULT:      -7.3      3.471      6.442
REMARK  7 active torsions:
REMARK  status: ('A' for Active; 'I' for Inactive)
REMARK    1  A    between atoms: C_5  and  N_6 
REMARK    2  A    between atoms: N_6  and  C_9 
REMARK    3  A    between atoms: C_9  and  C_10 
REMARK    4  A    between atoms: C_10  and  C_11 
REMARK    5  A    between atoms: C_10  and  C_13 
REMARK    6  A    between atoms: C_11  and  O_12 
REMARK    7  A    between atoms: C_13  and  C_14 
ROOT
HETATM    1  N   UNL     1      -7.482   3.750 -33.302  1.00  0.00    -0.066 N 
HETATM    2  H   UNL     1      -7.918   4.304 -34.062  1.00  0.00     0.278 HD
HETATM    3  H   UNL     1      -8.181   3.020 -33.072  1.00  0.00     0.278 HD
ENDROOT
BRANCH   1   4
HETATM    4  C   UNL     1      -6.257   3.188 -33.908  1.00  0.00     0.220 C 
HETATM    5  C   UNL     1      -6.408   1.718 -34.155  1.00  0.00    -0.021 A 
HETATM    6  C   UNL     1      -5.640   0.959 -33.256  1.00  0.00    -0.040 A 
HETATM    7  C   UNL     1      -7.221   1.105 -35.100  1.00  0.00     0.010 A 
HETATM    8  C   UNL     1      -5.635  -0.434 -33.315  1.00  0.00    -0.055 A 
HETATM    9  C   UNL     1      -4.899   1.851 -32.296  1.00  0.00     0.018 C 
HETATM   10  C   UNL     1      -4.821  -1.279 -32.381  1.00  0.00     0.049 C 
HETATM   11  C   UNL     1      -6.465  -1.046 -34.266  1.00  0.00     0.007 A 
HETATM   12  C   UNL     1      -7.249  -0.287 -35.147  1.00  0.00     0.001 A 
HETATM   13  C   UNL     1      -5.031   3.228 -32.981  1.00  0.00     0.047 C 
HETATM   14  C   UNL     1      -5.498   1.841 -30.894  1.00  0.00     0.015 C 
ENDBRANCH   1   4
BRANCH   1  15
HETATM   15  C   UNL     1      -7.350   4.677 -32.149  1.00  0.00     0.240 C 
BRANCH  15  16
HETATM   16  C   UNL     1      -8.539   4.526 -31.176  1.00  0.00     0.040 C 
BRANCH  16  17
HETATM   17  C   UNL     1      -8.400   5.512 -30.007  1.00  0.00     0.170 C 
BRANCH  17  18
HETATM   18  O   UNL     1      -7.143   5.309 -29.361  1.00  0.00    -0.400 OA
HETATM   19  H   UNL     1      -7.034   6.051 -28.729  1.00  0.00     0.209 HD
ENDBRANCH  17  18
ENDBRANCH  16  17
BRANCH  16  20
HETATM   20  C   UNL     1      -8.737   3.097 -30.616  1.00  0.00     0.067 C 
BRANCH  20  21
HETATM   21  C   UNL     1      -9.381   2.156 -31.599  1.00  0.00     0.034 A 
HETATM   22  N   UNL     1     -10.340   2.698 -32.401  1.00  0.00    -0.266 NA
HETATM   23  C   UNL     1     -10.929   1.859 -33.290  1.00  0.00     0.117 A 
HETATM   24  C   UNL     1     -10.636   0.509 -33.393  1.00  0.00     0.019 A 
HETATM   25  C   UNL     1      -9.671  -0.020 -32.546  1.00  0.00     0.003 A 
HETATM   26  C   UNL     1      -9.030   0.810 -31.634  1.00  0.00     0.027 A 
ENDBRANCH  20  21
ENDBRANCH  16  20
ENDBRANCH  15  16
ENDBRANCH   1  15
TORSDOF 7
ENDMDL
MODEL 10
REMARK VINA RESULT:      -7.2      2.130      3.366
REMARK  7 active torsions:
REMARK  status: ('A' for Active; 'I' for Inactive)
REMARK    1  A    between atoms: C_5  and  N_6 
REMARK    2  A    between atoms: N_6  and  C_9 
REMARK    3  A    between atoms: C_9  and  C_10 
REMARK    4  A    between atoms: C_10  and  C_11 
REMARK    5  A    between atoms: C_10  and  C_13 
REMARK    6  A    between atoms: C_11  and  O_12 
REMARK    7  A    between atoms: C_13  and  C_14 
ROOT
HETATM    1  N   UNL     1      -4.604   0.607 -31.522  1.00  0.00    -0.066 N 
HETATM    2  H   UNL     1      -3.749   0.039 -31.381  1.00  0.00     0.278 HD
HETATM    3  H   UNL     1      -4.465   1.076 -32.436  1.00  0.00     0.278 HD
ENDROOT
BRANCH   1   4
HETATM    4  C   UNL     1      -5.704  -0.381 -31.557  1.00  0.00     0.220 C 
HETATM    5  C   UNL     1      -6.378  -0.384 -32.895  1.00  0.00    -0.021 A 
HETATM    6  C   UNL     1      -7.654   0.202 -32.834  1.00  0.00    -0.040 A 
HETATM    7  C   UNL     1      -5.856  -0.843 -34.097  1.00  0.00     0.010 A 
HETATM    8  C   UNL     1      -8.454   0.297 -33.971  1.00  0.00    -0.055 A 
HETATM    9  C   UNL     1      -7.963   0.674 -31.438  1.00  0.00     0.018 C 
HETATM   10  C   UNL     1      -9.825   0.905 -33.946  1.00  0.00     0.049 C 
HETATM   11  C   UNL     1      -7.917  -0.160 -35.183  1.00  0.00     0.007 A 
HETATM   12  C   UNL     1      -6.633  -0.722 -35.246  1.00  0.00     0.001 A 
HETATM   13  C   UNL     1      -6.872  -0.044 -30.615  1.00  0.00     0.047 C 
HETATM   14  C   UNL     1      -7.895   2.190 -31.296  1.00  0.00     0.015 C 
ENDBRANCH   1   4
BRANCH   1  15
HETATM   15  C   UNL     1      -4.595   1.629 -30.444  1.00  0.00     0.240 C 
BRANCH  15  16
HETATM   16  C   UNL     1      -4.117   2.995 -30.980  1.00  0.00     0.040 C 
BRANCH  16  17
HETATM   17  C   UNL     1      -5.021   4.120 -30.452  1.00  0.00     0.170 C 
BRANCH  17  18
HETATM   18  O   UNL     1      -5.377   3.847 -29.098  1.00  0.00    -0.400 OA
HETATM   19  H   UNL     1      -6.356   3.879 -29.058  1.00  0.00     0.209 HD
ENDBRANCH  17  18
ENDBRANCH  16  17
BRANCH  16  20
HETATM   20  C   UNL     1      -4.032   3.091 -32.522  1.00  0.00     0.067 C 
BRANCH  20  21
HETATM   21  C   UNL     1      -3.076   4.149 -33.002  1.00  0.00     0.034 A 
HETATM   22  N   UNL     1      -1.919   4.272 -32.291  1.00  0.00    -0.266 NA
HETATM   23  C   UNL     1      -1.049   5.224 -32.713  1.00  0.00     0.117 A 
HETATM   24  C   UNL     1      -1.289   6.075 -33.779  1.00  0.00     0.019 A 
HETATM   25  C   UNL     1      -2.486   5.942 -34.470  1.00  0.00     0.003 A 
HETATM   26  C   UNL     1      -3.397   4.966 -34.081  1.00  0.00     0.027 A 
ENDBRANCH  20  21
ENDBRANCH  16  20
ENDBRANCH  15  16
ENDBRANCH   1  15
TORSDOF 7
ENDMDL
