MODEL 1
REMARK VINA RESULT:      -8.4      0.000      0.000
REMARK  3 active torsions:
REMARK  status: ('A' for Active; 'I' for Inactive)
REMARK    1  A    between atoms: C_2  and  N_3 
REMARK    2  A    between atoms: C_2  and  C_10 
REMARK    3  A    between atoms: C_13  and  C_14 
ROOT
HETATM    1  C   UNL     1      -9.736   1.652 -33.321  1.00  0.00    -0.028 A 
HETATM    2  C   UNL     1      -8.986   1.588 -34.506  1.00  0.00     0.010 A 
HETATM    3  C   UNL     1      -7.928   0.680 -34.637  1.00  0.00     0.014 A 
HETATM    4  C   UNL     1      -7.575  -0.193 -33.595  1.00  0.00    -0.006 A 
HETATM    5  C   UNL     1      -8.304  -0.094 -32.401  1.00  0.00     0.014 A 
HETATM    6  C   UNL     1      -9.369   0.806 -32.266  1.00  0.00     0.010 A 
ENDROOT
BRANCH   4   7
HETATM    7  C   UNL     1      -6.475  -1.148 -33.767  1.00  0.00     0.082 A 
HETATM    8  N   UNL     1      -6.626  -2.111 -34.716  1.00  0.00    -0.240 NA
HETATM    9  C   UNL     1      -5.626  -2.999 -34.888  1.00  0.00     0.236 A 
HETATM   10  N   UNL     1      -4.462  -3.070 -34.225  1.00  0.00    -0.224 NA
HETATM   11  C   UNL     1      -4.367  -2.117 -33.288  1.00  0.00     0.141 A 
HETATM   12  C   UNL     1      -5.304  -1.137 -32.990  1.00  0.00     0.041 A 
HETATM   13  N   UNL     1      -3.297  -1.961 -32.450  1.00  0.00    -0.350 N 
HETATM   14  C   UNL     1      -4.765  -0.388 -31.902  1.00  0.00     0.034 A 
HETATM   15  C   UNL     1      -3.526  -0.912 -31.599  1.00  0.00     0.091 A 
HETATM   16  H   UNL     1      -2.479  -2.554 -32.468  1.00  0.00     0.166 HD
ENDBRANCH   4   7
BRANCH   1  17
HETATM   17  C   UNL     1     -10.886   2.639 -33.223  1.00  0.00     0.217 C 
HETATM   18  C   UNL     1     -10.902   3.713 -34.316  1.00  0.00     0.045 C 
BRANCH  17  19
HETATM   19  N   UNL     1     -12.239   1.932 -33.105  1.00  0.00    -0.063 N 
HETATM   20  H   UNL     1     -12.147   1.370 -32.247  1.00  0.00     0.280 HD
HETATM   21  C   UNL     1     -13.383   2.892 -32.865  1.00  0.00     0.235 C 
HETATM   22  C   UNL     1     -14.642   2.113 -32.509  1.00  0.00     0.028 C 
HETATM   23  C   UNL     1     -14.988   1.087 -33.581  1.00  0.00     0.003 C 
HETATM   24  C   UNL     1     -13.808   0.162 -33.852  1.00  0.00     0.028 C 
HETATM   25  C   UNL     1     -12.548   0.943 -34.206  1.00  0.00     0.235 C 
ENDBRANCH  17  19
ENDBRANCH   1  17
TORSDOF 3
ENDMDL
MODEL 2
REMARK VINA RESULT:      -8.4      0.949      1.939
REMARK  3 active torsions:
REMARK  status: ('A' for Active; 'I' for Inactive)
REMARK    1  A    between atoms: C_2  and  N_3 
REMARK    2  A    between atoms: C_2  and  C_10 
REMARK    3  A    between atoms: C_13  and  C_14 
ROOT
HETATM    1  C   UNL     1      -9.716   1.948 -33.092  1.00  0.00    -0.028 A 
HETATM    2  C   UNL     1      -8.920   1.989 -34.249  1.00  0.00     0.010 A 
HETATM    3  C   UNL     1      -7.766   1.204 -34.354  1.00  0.00     0.014 A 
HETATM    4  C   UNL     1      -7.358   0.353 -33.314  1.00  0.00    -0.006 A 
HETATM    5  C   UNL     1      -8.136   0.348 -32.146  1.00  0.00     0.014 A 
HETATM    6  C   UNL     1      -9.297   1.125 -32.038  1.00  0.00     0.010 A 
ENDROOT
BRANCH   4   7
HETATM    7  C   UNL     1      -6.155  -0.474 -33.459  1.00  0.00     0.082 A 
HETATM    8  N   UNL     1      -4.970   0.074 -33.077  1.00  0.00    -0.240 NA
HETATM    9  C   UNL     1      -3.853  -0.669 -33.202  1.00  0.00     0.236 A 
HETATM   10  N   UNL     1      -3.743  -1.920 -33.676  1.00  0.00    -0.224 NA
HETATM   11  C   UNL     1      -4.929  -2.410 -34.060  1.00  0.00     0.141 A 
HETATM   12  C   UNL     1      -6.161  -1.773 -33.995  1.00  0.00     0.041 A 
HETATM   13  N   UNL     1      -5.114  -3.655 -34.597  1.00  0.00    -0.350 N 
HETATM   14  C   UNL     1      -7.110  -2.683 -34.549  1.00  0.00     0.034 A 
HETATM   15  C   UNL     1      -6.438  -3.835 -34.900  1.00  0.00     0.091 A 
HETATM   16  H   UNL     1      -4.366  -4.318 -34.748  1.00  0.00     0.166 HD
ENDBRANCH   4   7
BRANCH   1  17
HETATM   17  C   UNL     1     -10.969   2.802 -33.021  1.00  0.00     0.217 C 
HETATM   18  C   UNL     1     -11.033   3.929 -34.058  1.00  0.00     0.045 C 
BRANCH  17  19
HETATM   19  N   UNL     1     -12.243   1.952 -33.030  1.00  0.00    -0.063 N 
HETATM   20  H   UNL     1     -12.213   1.458 -32.127  1.00  0.00     0.280 HD
HETATM   21  C   UNL     1     -13.504   2.786 -33.018  1.00  0.00     0.235 C 
HETATM   22  C   UNL     1     -14.711   1.891 -32.774  1.00  0.00     0.028 C 
HETATM   23  C   UNL     1     -14.792   0.768 -33.800  1.00  0.00     0.003 C 
HETATM   24  C   UNL     1     -13.495  -0.029 -33.841  1.00  0.00     0.028 C 
HETATM   25  C   UNL     1     -12.288   0.869 -34.084  1.00  0.00     0.235 C 
ENDBRANCH  17  19
ENDBRANCH   1  17
TORSDOF 3
ENDMDL
MODEL 3
REMARK VINA RESULT:      -8.3      1.280      7.863
REMARK  3 active torsions:
REMARK  status: ('A' for Active; 'I' for Inactive)
REMARK    1  A    between atoms: C_2  and  N_3 
REMARK    2  A    between atoms: C_2  and  C_10 
REMARK    3  A    between atoms: C_13  and  C_14 
ROOT
HETATM    1  C   UNL     1      -6.933  -0.085 -33.682  1.00  0.00    -0.028 A 
HETATM    2  C   UNL     1      -7.540   0.453 -34.829  1.00  0.00     0.010 A 
HETATM    3  C   UNL     1      -8.803   1.053 -34.756  1.00  0.00     0.014 A 
HETATM    4  C   UNL     1      -9.510   1.137 -33.546  1.00  0.00    -0.006 A 
HETATM    5  C   UNL     1      -8.914   0.560 -32.414  1.00  0.00     0.014 A 
HETATM    6  C   UNL     1      -7.647  -0.034 -32.477  1.00  0.00     0.010 A 
ENDROOT
BRANCH   4   7
HETATM    7  C   UNL     1     -10.823   1.789 -33.496  1.00  0.00     0.082 A 
HETATM    8  N   UNL     1     -10.843   3.144 -33.383  1.00  0.00    -0.240 NA
HETATM    9  C   UNL     1     -12.040   3.762 -33.335  1.00  0.00     0.236 A 
HETATM   10  N   UNL     1     -13.260   3.204 -33.379  1.00  0.00    -0.224 NA
HETATM   11  C   UNL     1     -13.190   1.869 -33.468  1.00  0.00     0.141 A 
HETATM   12  C   UNL     1     -12.042   1.091 -33.526  1.00  0.00     0.041 A 
HETATM   13  N   UNL     1     -14.277   1.040 -33.512  1.00  0.00    -0.350 N 
HETATM   14  C   UNL     1     -12.482  -0.265 -33.579  1.00  0.00     0.034 A 
HETATM   15  C   UNL     1     -13.861  -0.264 -33.579  1.00  0.00     0.091 A 
HETATM   16  H   UNL     1     -15.234   1.366 -33.484  1.00  0.00     0.166 HD
ENDBRANCH   4   7
BRANCH   1  17
HETATM   17  C   UNL     1      -5.556  -0.714 -33.797  1.00  0.00     0.217 C 
HETATM   18  C   UNL     1      -4.560  -0.270 -32.719  1.00  0.00     0.045 C 
BRANCH  17  19
HETATM   19  N   UNL     1      -5.629  -2.239 -33.905  1.00  0.00    -0.063 N 
HETATM   20  H   UNL     1      -5.985  -2.533 -32.984  1.00  0.00     0.280 HD
HETATM   21  C   UNL     1      -6.645  -2.706 -34.924  1.00  0.00     0.235 C 
HETATM   22  C   UNL     1      -6.844  -4.211 -34.800  1.00  0.00     0.028 C 
HETATM   23  C   UNL     1      -5.527  -4.963 -34.937  1.00  0.00     0.003 C 
HETATM   24  C   UNL     1      -4.495  -4.445 -33.942  1.00  0.00     0.028 C 
HETATM   25  C   UNL     1      -4.298  -2.939 -34.067  1.00  0.00     0.235 C 
ENDBRANCH  17  19
ENDBRANCH   1  17
TORSDOF 3
ENDMDL
MODEL 4
REMARK VINA RESULT:      -8.3      1.361      7.945
REMARK  3 active torsions:
REMARK  status: ('A' for Active; 'I' for Inactive)
REMARK    1  A    between atoms: C_2  and  N_3 
REMARK    2  A    between atoms: C_2  and  C_10 
REMARK    3  A    between atoms: C_13  and  C_14 
ROOT
HETATM    1  C   UNL     1      -7.042  -0.121 -33.629  1.00  0.00    -0.028 A 
HETATM    2  C   UNL     1      -7.876  -0.044 -32.501  1.00  0.00     0.010 A 
HETATM    3  C   UNL     1      -9.198   0.402 -32.616  1.00  0.00     0.014 A 
HETATM    4  C   UNL     1      -9.739   0.791 -33.851  1.00  0.00    -0.006 A 
HETATM    5  C   UNL     1      -8.887   0.750 -34.966  1.00  0.00     0.014 A 
HETATM    6  C   UNL     1      -7.566   0.297 -34.860  1.00  0.00     0.010 A 
ENDROOT
BRANCH   4   7
HETATM    7  C   UNL     1     -11.134   1.236 -33.945  1.00  0.00     0.082 A 
HETATM    8  N   UNL     1     -12.096   0.365 -33.539  1.00  0.00    -0.240 NA
HETATM    9  C   UNL     1     -13.384   0.755 -33.617  1.00  0.00     0.236 A 
HETATM   10  N   UNL     1     -13.866   1.925 -34.063  1.00  0.00    -0.224 NA
HETATM   11  C   UNL     1     -12.886   2.741 -34.472  1.00  0.00     0.141 A 
HETATM   12  C   UNL     1     -11.521   2.487 -34.456  1.00  0.00     0.041 A 
HETATM   13  N   UNL     1     -13.087   3.991 -34.990  1.00  0.00    -0.350 N 
HETATM   14  C   UNL     1     -10.894   3.638 -35.020  1.00  0.00     0.034 A 
HETATM   15  C   UNL     1     -11.882   4.549 -35.329  1.00  0.00     0.091 A 
HETATM   16  H   UNL     1     -13.999   4.411 -35.107  1.00  0.00     0.166 HD
ENDBRANCH   4   7
BRANCH   1  17
HETATM   17  C   UNL     1      -5.619  -0.625 -33.468  1.00  0.00     0.217 C 
HETATM   18  C   UNL     1      -5.091  -0.599 -32.029  1.00  0.00     0.045 C 
BRANCH  17  19
HETATM   19  N   UNL     1      -5.420  -1.995 -34.120  1.00  0.00    -0.063 N 
HETATM   20  H   UNL     1      -5.117  -1.769 -35.078  1.00  0.00     0.280 HD
HETATM   21  C   UNL     1      -4.293  -2.784 -33.493  1.00  0.00     0.235 C 
HETATM   22  C   UNL     1      -3.988  -4.011 -34.341  1.00  0.00     0.028 C 
HETATM   23  C   UNL     1      -5.228  -4.872 -34.546  1.00  0.00     0.003 C 
HETATM   24  C   UNL     1      -6.373  -4.052 -35.127  1.00  0.00     0.028 C 
HETATM   25  C   UNL     1      -6.675  -2.824 -34.277  1.00  0.00     0.235 C 
ENDBRANCH  17  19
ENDBRANCH   1  17
TORSDOF 3
ENDMDL
MODEL 5
REMARK VINA RESULT:      -8.1      1.433      7.962
REMARK  3 active torsions:
REMARK  status: ('A' for Active; 'I' for Inactive)
REMARK    1  A    between atoms: C_2  and  N_3 
REMARK    2  A    between atoms: C_2  and  C_10 
REMARK    3  A    between atoms: C_13  and  C_14 
ROOT
HETATM    1  C   UNL     1      -7.658   0.520 -33.597  1.00  0.00    -0.028 A 
HETATM    2  C   UNL     1      -8.335   1.241 -34.594  1.00  0.00     0.010 A 
HETATM    3  C   UNL     1      -9.725   1.396 -34.547  1.00  0.00     0.014 A 
HETATM    4  C   UNL     1     -10.494   0.839 -33.512  1.00  0.00    -0.006 A 
HETATM    5  C   UNL     1      -9.813   0.087 -32.542  1.00  0.00     0.014 A 
HETATM    6  C   UNL     1      -8.421  -0.066 -32.578  1.00  0.00     0.010 A 
ENDROOT
BRANCH   4   7
HETATM    7  C   UNL     1     -11.947   1.034 -33.477  1.00  0.00     0.082 A 
HETATM    8  N   UNL     1     -12.729  -0.067 -33.639  1.00  0.00    -0.240 NA
HETATM    9  C   UNL     1     -14.068   0.091 -33.611  1.00  0.00     0.236 A 
HETATM   10  N   UNL     1     -14.761   1.229 -33.444  1.00  0.00    -0.224 NA
HETATM   11  C   UNL     1     -13.950   2.287 -33.311  1.00  0.00     0.141 A 
HETATM   12  C   UNL     1     -12.562   2.288 -33.319  1.00  0.00     0.041 A 
HETATM   13  N   UNL     1     -14.383   3.574 -33.144  1.00  0.00    -0.350 N 
HETATM   14  C   UNL     1     -12.163   3.650 -33.177  1.00  0.00     0.034 A 
HETATM   15  C   UNL     1     -13.304   4.416 -33.062  1.00  0.00     0.091 A 
HETATM   16  H   UNL     1     -15.357   3.839 -33.104  1.00  0.00     0.166 HD
ENDBRANCH   4   7
BRANCH   1  17
HETATM   17  C   UNL     1      -6.147   0.387 -33.673  1.00  0.00     0.217 C 
HETATM   18  C   UNL     1      -5.380   1.203 -32.626  1.00  0.00     0.045 C 
BRANCH  17  19
HETATM   19  N   UNL     1      -5.701  -1.077 -33.686  1.00  0.00    -0.063 N 
HETATM   20  H   UNL     1      -6.154  -1.478 -32.853  1.00  0.00     0.280 HD
HETATM   21  C   UNL     1      -6.238  -1.843 -34.875  1.00  0.00     0.235 C 
HETATM   22  C   UNL     1      -5.970  -3.331 -34.692  1.00  0.00     0.028 C 
HETATM   23  C   UNL     1      -4.489  -3.610 -34.470  1.00  0.00     0.003 C 
HETATM   24  C   UNL     1      -3.948  -2.791 -33.305  1.00  0.00     0.028 C 
HETATM   25  C   UNL     1      -4.219  -1.302 -33.489  1.00  0.00     0.235 C 
ENDBRANCH  17  19
ENDBRANCH   1  17
TORSDOF 3
ENDMDL
MODEL 6
REMARK VINA RESULT:      -8.1      1.788      3.116
REMARK  3 active torsions:
REMARK  status: ('A' for Active; 'I' for Inactive)
REMARK    1  A    between atoms: C_2  and  N_3 
REMARK    2  A    between atoms: C_2  and  C_10 
REMARK    3  A    between atoms: C_13  and  C_14 
ROOT
HETATM    1  C   UNL     1      -8.005   1.700 -33.559  1.00  0.00    -0.028 A 
HETATM    2  C   UNL     1      -7.740   1.011 -32.364  1.00  0.00     0.010 A 
HETATM    3  C   UNL     1      -6.898  -0.108 -32.354  1.00  0.00     0.014 A 
HETATM    4  C   UNL     1      -6.294  -0.585 -33.529  1.00  0.00    -0.006 A 
HETATM    5  C   UNL     1      -6.597   0.085 -34.723  1.00  0.00     0.014 A 
HETATM    6  C   UNL     1      -7.431   1.210 -34.740  1.00  0.00     0.010 A 
ENDROOT
BRANCH   4   7
HETATM    7  C   UNL     1      -5.401  -1.748 -33.485  1.00  0.00     0.082 A 
HETATM    8  N   UNL     1      -4.257  -1.631 -32.758  1.00  0.00    -0.240 NA
HETATM    9  C   UNL     1      -3.423  -2.689 -32.706  1.00  0.00     0.236 A 
HETATM   10  N   UNL     1      -3.568  -3.884 -33.300  1.00  0.00    -0.224 NA
HETATM   11  C   UNL     1      -4.695  -3.945 -34.021  1.00  0.00     0.141 A 
HETATM   12  C   UNL     1      -5.649  -2.948 -34.173  1.00  0.00     0.041 A 
HETATM   13  N   UNL     1      -5.090  -5.036 -34.745  1.00  0.00    -0.350 N 
HETATM   14  C   UNL     1      -6.639  -3.475 -35.056  1.00  0.00     0.034 A 
HETATM   15  C   UNL     1      -6.272  -4.764 -35.382  1.00  0.00     0.091 A 
HETATM   16  H   UNL     1      -4.562  -5.897 -34.797  1.00  0.00     0.166 HD
ENDBRANCH   4   7
BRANCH   1  17
HETATM   17  C   UNL     1      -8.910   2.919 -33.528  1.00  0.00     0.217 C 
HETATM   18  C   UNL     1      -8.215   4.240 -33.877  1.00  0.00     0.045 C 
BRANCH  17  19
HETATM   19  N   UNL     1     -10.180   2.711 -34.357  1.00  0.00    -0.063 N 
HETATM   20  H   UNL     1      -9.843   2.231 -35.204  1.00  0.00     0.280 HD
HETATM   21  C   UNL     1     -11.164   1.772 -33.697  1.00  0.00     0.235 C 
HETATM   22  C   UNL     1     -12.274   1.416 -34.678  1.00  0.00     0.028 C 
HETATM   23  C   UNL     1     -12.965   2.662 -35.217  1.00  0.00     0.003 C 
HETATM   24  C   UNL     1     -11.955   3.624 -35.830  1.00  0.00     0.028 C 
HETATM   25  C   UNL     1     -10.845   3.978 -34.847  1.00  0.00     0.235 C 
ENDBRANCH  17  19
ENDBRANCH   1  17
TORSDOF 3
ENDMDL
MODEL 7
REMARK VINA RESULT:      -8.0      2.039      7.814
REMARK  3 active torsions:
REMARK  status: ('A' for Active; 'I' for Inactive)
REMARK    1  A    between atoms: C_2  and  N_3 
REMARK    2  A    between atoms: C_2  and  C_10 
REMARK    3  A    between atoms: C_13  and  C_14 
ROOT
HETATM    1  C   UNL     1      -5.566  -0.188 -32.990  1.00  0.00    -0.028 A 
HETATM    2  C   UNL     1      -6.319  -0.445 -31.833  1.00  0.00     0.010 A 
HETATM    3  C   UNL     1      -7.336   0.429 -31.431  1.00  0.00     0.014 A 
HETATM    4  C   UNL     1      -7.639   1.591 -32.159  1.00  0.00    -0.006 A 
HETATM    5  C   UNL     1      -6.855   1.861 -33.290  1.00  0.00     0.014 A 
HETATM    6  C   UNL     1      -5.841   0.987 -33.704  1.00  0.00     0.010 A 
ENDROOT
BRANCH   4   7
HETATM    7  C   UNL     1      -8.723   2.478 -31.724  1.00  0.00     0.082 A 
HETATM    8  N   UNL     1      -8.462   3.324 -30.692  1.00  0.00    -0.240 NA
HETATM    9  C   UNL     1      -9.445   4.148 -30.278  1.00  0.00     0.236 A 
HETATM   10  N   UNL     1     -10.695   4.248 -30.757  1.00  0.00    -0.224 NA
HETATM   11  C   UNL     1     -10.912   3.382 -31.756  1.00  0.00     0.141 A 
HETATM   12  C   UNL     1     -10.009   2.476 -32.292  1.00  0.00     0.041 A 
HETATM   13  N   UNL     1     -12.101   3.253 -32.420  1.00  0.00    -0.350 N 
HETATM   14  C   UNL     1     -10.715   1.759 -33.304  1.00  0.00     0.034 A 
HETATM   15  C   UNL     1     -11.996   2.267 -33.366  1.00  0.00     0.091 A 
HETATM   16  H   UNL     1     -12.923   3.805 -32.215  1.00  0.00     0.166 HD
ENDBRANCH   4   7
BRANCH   1  17
HETATM   17  C   UNL     1      -4.482  -1.167 -33.405  1.00  0.00     0.217 C 
HETATM   18  C   UNL     1      -3.312  -1.278 -32.421  1.00  0.00     0.045 C 
BRANCH  17  19
HETATM   19  N   UNL     1      -5.056  -2.541 -33.759  1.00  0.00    -0.063 N 
HETATM   20  H   UNL     1      -5.463  -2.872 -32.873  1.00  0.00     0.280 HD
HETATM   21  C   UNL     1      -6.196  -2.462 -34.749  1.00  0.00     0.235 C 
HETATM   22  C   UNL     1      -6.876  -3.820 -34.860  1.00  0.00     0.028 C 
HETATM   23  C   UNL     1      -5.884  -4.914 -35.235  1.00  0.00     0.003 C 
HETATM   24  C   UNL     1      -4.713  -4.946 -34.261  1.00  0.00     0.028 C 
HETATM   25  C   UNL     1      -4.035  -3.585 -34.150  1.00  0.00     0.235 C 
ENDBRANCH  17  19
ENDBRANCH   1  17
TORSDOF 3
ENDMDL
MODEL 8
REMARK VINA RESULT:      -8.0      5.561      8.061
REMARK  3 active torsions:
REMARK  status: ('A' for Active; 'I' for Inactive)
REMARK    1  A    between atoms: C_2  and  N_3 
REMARK    2  A    between atoms: C_2  and  C_10 
REMARK    3  A    between atoms: C_13  and  C_14 
ROOT
HETATM    1  C   UNL     1      -4.856   1.574 -32.023  1.00  0.00    -0.028 A 
HETATM    2  C   UNL     1      -5.441   2.537 -32.861  1.00  0.00     0.010 A 
HETATM    3  C   UNL     1      -4.787   3.746 -33.130  1.00  0.00     0.014 A 
HETATM    4  C   UNL     1      -3.532   4.043 -32.574  1.00  0.00    -0.006 A 
HETATM    5  C   UNL     1      -2.974   3.092 -31.705  1.00  0.00     0.014 A 
HETATM    6  C   UNL     1      -3.619   1.878 -31.439  1.00  0.00     0.010 A 
ENDROOT
BRANCH   4   7
HETATM    7  C   UNL     1      -2.861   5.309 -32.888  1.00  0.00     0.082 A 
HETATM    8  N   UNL     1      -2.062   5.336 -33.989  1.00  0.00    -0.240 NA
HETATM    9  C   UNL     1      -1.436   6.490 -34.295  1.00  0.00     0.236 A 
HETATM   10  N   UNL     1      -1.489   7.657 -33.635  1.00  0.00    -0.224 NA
HETATM   11  C   UNL     1      -2.268   7.577 -32.548  1.00  0.00     0.141 A 
HETATM   12  C   UNL     1      -2.974   6.469 -32.102  1.00  0.00     0.041 A 
HETATM   13  N   UNL     1      -2.491   8.610 -31.680  1.00  0.00    -0.350 N 
HETATM   14  C   UNL     1      -3.621   6.867 -30.895  1.00  0.00     0.034 A 
HETATM   15  C   UNL     1      -3.313   8.192 -30.666  1.00  0.00     0.091 A 
HETATM   16  H   UNL     1      -2.086   9.530 -31.785  1.00  0.00     0.166 HD
ENDBRANCH   4   7
BRANCH   1  17
HETATM   17  C   UNL     1      -5.588   0.269 -31.768  1.00  0.00     0.217 C 
HETATM   18  C   UNL     1      -6.997   0.430 -31.186  1.00  0.00     0.045 C 
BRANCH  17  19
HETATM   19  N   UNL     1      -5.586  -0.640 -33.000  1.00  0.00    -0.063 N 
HETATM   20  H   UNL     1      -5.285  -0.017 -33.763  1.00  0.00     0.280 HD
HETATM   21  C   UNL     1      -4.552  -1.740 -32.915  1.00  0.00     0.235 C 
HETATM   22  C   UNL     1      -4.432  -2.440 -34.262  1.00  0.00     0.028 C 
HETATM   23  C   UNL     1      -5.778  -2.972 -34.738  1.00  0.00     0.003 C 
HETATM   24  C   UNL     1      -6.824  -1.865 -34.766  1.00  0.00     0.028 C 
HETATM   25  C   UNL     1      -6.941  -1.165 -33.417  1.00  0.00     0.235 C 
ENDBRANCH  17  19
ENDBRANCH   1  17
TORSDOF 3
ENDMDL
MODEL 9
REMARK VINA RESULT:      -7.7      1.300      8.287
REMARK  3 active torsions:
REMARK  status: ('A' for Active; 'I' for Inactive)
REMARK    1  A    between atoms: C_2  and  N_3 
REMARK    2  A    between atoms: C_2  and  C_10 
REMARK    3  A    between atoms: C_13  and  C_14 
ROOT
HETATM    1  C   UNL     1      -7.666  -0.589 -33.603  1.00  0.00    -0.028 A 
HETATM    2  C   UNL     1      -8.333  -0.362 -32.389  1.00  0.00     0.010 A 
HETATM    3  C   UNL     1      -9.440   0.493 -32.328  1.00  0.00     0.014 A 
HETATM    4  C   UNL     1      -9.922   1.155 -33.469  1.00  0.00    -0.006 A 
HETATM    5  C   UNL     1      -9.224   0.955 -34.669  1.00  0.00     0.014 A 
HETATM    6  C   UNL     1      -8.121   0.094 -34.739  1.00  0.00     0.010 A 
ENDROOT
BRANCH   4   7
HETATM    7  C   UNL     1     -11.096   2.030 -33.380  1.00  0.00     0.082 A 
HETATM    8  N   UNL     1     -10.883   3.330 -33.040  1.00  0.00    -0.240 NA
HETATM    9  C   UNL     1     -11.949   4.150 -32.953  1.00  0.00     0.236 A 
HETATM   10  N   UNL     1     -13.241   3.848 -33.157  1.00  0.00    -0.224 NA
HETATM   11  C   UNL     1     -13.404   2.555 -33.467  1.00  0.00     0.141 A 
HETATM   12  C   UNL     1     -12.414   1.591 -33.594  1.00  0.00     0.041 A 
HETATM   13  N   UNL     1     -14.615   1.967 -33.710  1.00  0.00    -0.350 N 
HETATM   14  C   UNL     1     -13.084   0.369 -33.900  1.00  0.00     0.034 A 
HETATM   15  C   UNL     1     -14.435   0.634 -33.974  1.00  0.00     0.091 A 
HETATM   16  H   UNL     1     -15.497   2.461 -33.679  1.00  0.00     0.166 HD
ENDBRANCH   4   7
BRANCH   1  17
HETATM   17  C   UNL     1      -6.478  -1.535 -33.633  1.00  0.00     0.217 C 
HETATM   18  C   UNL     1      -5.970  -1.878 -35.038  1.00  0.00     0.045 C 
BRANCH  17  19
HETATM   19  N   UNL     1      -5.344  -1.061 -32.721  1.00  0.00    -0.063 N 
HETATM   20  H   UNL     1      -5.741  -1.144 -31.774  1.00  0.00     0.280 HD
HETATM   21  C   UNL     1      -4.140  -1.974 -32.760  1.00  0.00     0.235 C 
HETATM   22  C   UNL     1      -3.165  -1.589 -31.655  1.00  0.00     0.028 C 
HETATM   23  C   UNL     1      -2.760  -0.123 -31.752  1.00  0.00     0.003 C 
HETATM   24  C   UNL     1      -3.985   0.782 -31.767  1.00  0.00     0.028 C 
HETATM   25  C   UNL     1      -4.960   0.394 -32.873  1.00  0.00     0.235 C 
ENDBRANCH  17  19
ENDBRANCH   1  17
TORSDOF 3
ENDMDL
MODEL 10
REMARK VINA RESULT:      -7.6      5.446      9.158
REMARK  3 active torsions:
REMARK  status: ('A' for Active; 'I' for Inactive)
REMARK    1  A    between atoms: C_2  and  N_3 
REMARK    2  A    between atoms: C_2  and  C_10 
REMARK    3  A    between atoms: C_13  and  C_14 
ROOT
HETATM    1  C   UNL     1      -2.903   4.197 -32.852  1.00  0.00    -0.028 A 
HETATM    2  C   UNL     1      -3.005   3.157 -31.915  1.00  0.00     0.010 A 
HETATM    3  C   UNL     1      -4.198   2.439 -31.769  1.00  0.00     0.014 A 
HETATM    4  C   UNL     1      -5.333   2.731 -32.543  1.00  0.00    -0.006 A 
HETATM    5  C   UNL     1      -5.233   3.799 -33.448  1.00  0.00     0.014 A 
HETATM    6  C   UNL     1      -4.040   4.515 -33.606  1.00  0.00     0.010 A 
ENDROOT
BRANCH   4   7
HETATM    7  C   UNL     1      -6.564   1.949 -32.382  1.00  0.00     0.082 A 
HETATM    8  N   UNL     1      -6.640   0.762 -33.041  1.00  0.00    -0.240 NA
HETATM    9  C   UNL     1      -7.764   0.029 -32.906  1.00  0.00     0.236 A 
HETATM   10  N   UNL     1      -8.860   0.323 -32.190  1.00  0.00    -0.224 NA
HETATM   11  C   UNL     1      -8.748   1.509 -31.578  1.00  0.00     0.141 A 
HETATM   12  C   UNL     1      -7.664   2.375 -31.618  1.00  0.00     0.041 A 
HETATM   13  N   UNL     1      -9.720   2.069 -30.795  1.00  0.00    -0.350 N 
HETATM   14  C   UNL     1      -8.033   3.513 -30.841  1.00  0.00     0.034 A 
HETATM   15  C   UNL     1      -9.299   3.291 -30.340  1.00  0.00     0.091 A 
HETATM   16  H   UNL     1     -10.612   1.632 -30.607  1.00  0.00     0.166 HD
ENDBRANCH   4   7
BRANCH   1  17
HETATM   17  C   UNL     1      -1.587   4.943 -32.994  1.00  0.00     0.217 C 
HETATM   18  C   UNL     1      -1.531   5.920 -34.173  1.00  0.00     0.045 C 
BRANCH  17  19
HETATM   19  N   UNL     1      -1.163   5.611 -31.684  1.00  0.00    -0.063 N 
HETATM   20  H   UNL     1      -1.853   5.268 -31.000  1.00  0.00     0.280 HD
HETATM   21  C   UNL     1       0.189   5.143 -31.197  1.00  0.00     0.235 C 
HETATM   22  C   UNL     1       0.431   5.649 -29.781  1.00  0.00     0.028 C 
HETATM   23  C   UNL     1       0.301   7.165 -29.699  1.00  0.00     0.003 C 
HETATM   24  C   UNL     1      -1.044   7.628 -30.244  1.00  0.00     0.028 C 
HETATM   25  C   UNL     1      -1.285   7.118 -31.660  1.00  0.00     0.235 C 
ENDBRANCH  17  19
ENDBRANCH   1  17
TORSDOF 3
ENDMDL
