MODEL 1
REMARK VINA RESULT:      -8.4      0.000      0.000
REMARK  10 active torsions:
REMARK  status: ('A' for Active; 'I' for Inactive)
REMARK    1  A    between atoms: C_2  and  O_3 
REMARK    2  A    between atoms: O_3  and  C_4 
REMARK    3  A    between atoms: C_7  and  C_8 
REMARK    4  A    between atoms: C_8  and  C_9 
REMARK    5  A    between atoms: C_10  and  C_11 
REMARK    6  A    between atoms: C_14  and  N_15 
REMARK    7  A    between atoms: N_20  and  C_21 
REMARK    8  A    between atoms: C_21  and  C_22 
REMARK    9  A    between atoms: C_22  and  N_23 
REMARK   10  A    between atoms: C_34  and  O_35 
ROOT
HETATM    1  C   UNL     1      -5.162   0.419 -33.091  1.00  0.00     0.059 C 
HETATM    2  C   UNL     1      -4.953   1.896 -32.965  1.00  0.00     0.161 C 
HETATM    3  N   UNL     1      -3.677   1.927 -32.250  1.00  0.00    -0.332 N 
HETATM    4  C   UNL     1      -3.376   0.682 -31.726  1.00  0.00     0.278 C 
HETATM    5  O   UNL     1      -2.499   0.465 -30.907  1.00  0.00    -0.265 OA
HETATM    6  C   UNL     1      -4.286  -0.290 -32.362  1.00  0.00     0.146 C 
ENDROOT
BRANCH   1   7
HETATM    7  C   UNL     1      -6.232  -0.266 -33.838  1.00  0.00     0.193 C 
HETATM    8  O   UNL     1      -5.951  -1.200 -34.585  1.00  0.00    -0.287 OA
BRANCH   7   9
HETATM    9  C   UNL     1      -7.639   0.136 -33.650  1.00  0.00     0.015 A 
HETATM   10  C   UNL     1      -8.342  -0.168 -32.480  1.00  0.00     0.018 A 
HETATM   11  C   UNL     1      -9.681   0.221 -32.349  1.00  0.00     0.038 A 
HETATM   12  C   UNL     1     -10.310   0.932 -33.371  1.00  0.00     0.069 A 
HETATM   13  C   UNL     1      -9.583   1.266 -34.517  1.00  0.00     0.038 A 
HETATM   14  C   UNL     1      -8.252   0.876 -34.662  1.00  0.00     0.018 A 
BRANCH  12  15
HETATM   15  O   UNL     1     -11.596   1.387 -33.377  1.00  0.00    -0.347 OA
BRANCH  15  16
HETATM   16  C   UNL     1     -12.460   1.099 -34.481  1.00  0.00     0.120 C 
HETATM   17  C   UNL     1     -13.125   2.386 -34.959  1.00  0.00     0.040 C 
HETATM   18  C   UNL     1     -13.515   0.120 -33.973  1.00  0.00     0.040 C 
ENDBRANCH  15  16
ENDBRANCH  12  15
ENDBRANCH   7   9
ENDBRANCH   1   7
BRANCH   2  19
HETATM   19  C   UNL     1      -6.063   2.597 -32.198  1.00  0.00    -0.030 A 
HETATM   20  C   UNL     1      -6.400   2.231 -30.879  1.00  0.00     0.012 A 
HETATM   21  C   UNL     1      -7.445   2.865 -30.201  1.00  0.00     0.037 A 
HETATM   22  C   UNL     1      -8.172   3.874 -30.841  1.00  0.00     0.102 A 
HETATM   23  C   UNL     1      -7.861   4.248 -32.154  1.00  0.00     0.037 A 
HETATM   24  C   UNL     1      -6.808   3.613 -32.823  1.00  0.00     0.012 A 
BRANCH  22  25
HETATM   25  N   UNL     1      -9.260   4.551 -30.126  1.00  0.00    -0.116 N 
HETATM   26  O   UNL     1      -8.967   5.572 -29.486  1.00  0.00    -0.532 OA
HETATM   27  O   UNL     1     -10.398   4.079 -30.232  1.00  0.00    -0.532 OA
ENDBRANCH  22  25
ENDBRANCH   2  19
BRANCH   6  28
HETATM   28  O   UNL     1      -4.201  -1.639 -32.183  1.00  0.00    -0.355 OA
HETATM   29  H   UNL     1      -3.459  -1.970 -32.744  1.00  0.00     0.218 HD
ENDBRANCH   6  28
BRANCH   3  30
HETATM   30  C   UNL     1      -3.004   3.154 -31.838  1.00  0.00     0.155 C 
BRANCH  30  31
HETATM   31  C   UNL     1      -2.840   4.170 -33.004  1.00  0.00     0.254 C 
BRANCH  31  32
HETATM   32  N   UNL     1      -1.468   4.854 -33.076  1.00  0.00    -0.066 N 
HETATM   33  H   UNL     1      -0.822   4.104 -33.374  1.00  0.00     0.280 HD
HETATM   34  C   UNL     1      -0.985   5.295 -31.682  1.00  0.00     0.262 C 
HETATM   35  C   UNL     1      -1.618   6.639 -31.237  1.00  0.00     0.260 C 
HETATM   36  N   UNL     1      -1.379   7.714 -32.262  1.00  0.00    -0.072 N 
HETATM   37  H   UNL     1      -0.389   8.008 -32.280  1.00  0.00     0.277 HD
HETATM   38  H   UNL     1      -1.888   8.567 -31.969  1.00  0.00     0.277 HD
HETATM   39  C   UNL     1      -1.861   7.352 -33.642  1.00  0.00     0.260 C 
HETATM   40  C   UNL     1      -1.304   5.984 -34.106  1.00  0.00     0.262 C 
ENDBRANCH  31  32
ENDBRANCH  30  31
ENDBRANCH   3  30
TORSDOF 10
ENDMDL
MODEL 2
REMARK VINA RESULT:      -8.1      2.102      4.434
REMARK  10 active torsions:
REMARK  status: ('A' for Active; 'I' for Inactive)
REMARK    1  A    between atoms: C_2  and  O_3 
REMARK    2  A    between atoms: O_3  and  C_4 
REMARK    3  A    between atoms: C_7  and  C_8 
REMARK    4  A    between atoms: C_8  and  C_9 
REMARK    5  A    between atoms: C_10  and  C_11 
REMARK    6  A    between atoms: C_14  and  N_15 
REMARK    7  A    between atoms: N_20  and  C_21 
REMARK    8  A    between atoms: C_21  and  C_22 
REMARK    9  A    between atoms: C_22  and  N_23 
REMARK   10  A    between atoms: C_34  and  O_35 
ROOT
HETATM    1  C   UNL     1      -6.939   3.872 -32.600  1.00  0.00     0.059 C 
HETATM    2  C   UNL     1      -5.695   3.077 -32.354  1.00  0.00     0.161 C 
HETATM    3  N   UNL     1      -4.718   3.868 -33.103  1.00  0.00    -0.332 N 
HETATM    4  C   UNL     1      -5.352   4.767 -33.942  1.00  0.00     0.278 C 
HETATM    5  O   UNL     1      -4.804   5.391 -34.835  1.00  0.00    -0.265 OA
HETATM    6  C   UNL     1      -6.768   4.824 -33.531  1.00  0.00     0.146 C 
ENDROOT
BRANCH   1   7
HETATM    7  C   UNL     1      -8.267   3.651 -31.999  1.00  0.00     0.193 C 
HETATM    8  O   UNL     1      -8.520   4.123 -30.894  1.00  0.00    -0.287 OA
BRANCH   7   9
HETATM    9  C   UNL     1      -9.302   2.911 -32.744  1.00  0.00     0.015 A 
HETATM   10  C   UNL     1      -9.501   1.538 -32.562  1.00  0.00     0.018 A 
HETATM   11  C   UNL     1     -10.486   0.870 -33.300  1.00  0.00     0.038 A 
HETATM   12  C   UNL     1     -11.287   1.573 -34.200  1.00  0.00     0.069 A 
HETATM   13  C   UNL     1     -11.107   2.952 -34.342  1.00  0.00     0.038 A 
HETATM   14  C   UNL     1     -10.122   3.625 -33.618  1.00  0.00     0.018 A 
BRANCH  12  15
HETATM   15  O   UNL     1     -12.289   1.062 -34.972  1.00  0.00    -0.347 OA
BRANCH  15  16
HETATM   16  C   UNL     1     -13.572   0.787 -34.400  1.00  0.00     0.120 C 
HETATM   17  C   UNL     1     -13.951   1.905 -33.432  1.00  0.00     0.040 C 
HETATM   18  C   UNL     1     -13.448  -0.537 -33.650  1.00  0.00     0.040 C 
ENDBRANCH  15  16
ENDBRANCH  12  15
ENDBRANCH   7   9
ENDBRANCH   1   7
BRANCH   2  19
HETATM   19  C   UNL     1      -5.786   1.645 -32.857  1.00  0.00    -0.030 A 
HETATM   20  C   UNL     1      -6.311   1.336 -34.129  1.00  0.00     0.012 A 
HETATM   21  C   UNL     1      -6.417   0.012 -34.562  1.00  0.00     0.037 A 
HETATM   22  C   UNL     1      -6.004  -1.025 -33.719  1.00  0.00     0.102 A 
HETATM   23  C   UNL     1      -5.489  -0.743 -32.449  1.00  0.00     0.037 A 
HETATM   24  C   UNL     1      -5.378   0.586 -32.026  1.00  0.00     0.012 A 
BRANCH  22  25
HETATM   25  N   UNL     1      -6.101  -2.416 -34.177  1.00  0.00    -0.116 N 
HETATM   26  O   UNL     1      -7.239  -2.882 -34.335  1.00  0.00    -0.532 OA
HETATM   27  O   UNL     1      -5.047  -3.020 -34.404  1.00  0.00    -0.532 OA
ENDBRANCH  22  25
ENDBRANCH   2  19
BRANCH   6  28
HETATM   28  O   UNL     1      -7.677   5.696 -34.054  1.00  0.00    -0.355 OA
HETATM   29  H   UNL     1      -8.338   5.168 -34.562  1.00  0.00     0.218 HD
ENDBRANCH   6  28
BRANCH   3  30
HETATM   30  C   UNL     1      -3.307   3.519 -33.220  1.00  0.00     0.155 C 
BRANCH  30  31
HETATM   31  C   UNL     1      -2.434   4.157 -32.102  1.00  0.00     0.254 C 
BRANCH  31  32
HETATM   32  N   UNL     1      -1.204   4.925 -32.601  1.00  0.00    -0.066 N 
HETATM   33  H   UNL     1      -0.509   4.190 -32.809  1.00  0.00     0.280 HD
HETATM   34  C   UNL     1      -0.583   5.784 -31.484  1.00  0.00     0.262 C 
HETATM   35  C   UNL     1      -1.330   7.130 -31.291  1.00  0.00     0.260 C 
HETATM   36  N   UNL     1      -1.408   7.893 -32.585  1.00  0.00    -0.072 N 
HETATM   37  H   UNL     1      -0.485   8.267 -32.862  1.00  0.00     0.277 HD
HETATM   38  H   UNL     1      -1.985   8.740 -32.433  1.00  0.00     0.277 HD
HETATM   39  C   UNL     1      -2.036   7.114 -33.711  1.00  0.00     0.260 C 
HETATM   40  C   UNL     1      -1.363   5.732 -33.900  1.00  0.00     0.262 C 
ENDBRANCH  31  32
ENDBRANCH  30  31
ENDBRANCH   3  30
TORSDOF 10
ENDMDL
MODEL 3
REMARK VINA RESULT:      -8.1      2.371      5.243
REMARK  10 active torsions:
REMARK  status: ('A' for Active; 'I' for Inactive)
REMARK    1  A    between atoms: C_2  and  O_3 
REMARK    2  A    between atoms: O_3  and  C_4 
REMARK    3  A    between atoms: C_7  and  C_8 
REMARK    4  A    between atoms: C_8  and  C_9 
REMARK    5  A    between atoms: C_10  and  C_11 
REMARK    6  A    between atoms: C_14  and  N_15 
REMARK    7  A    between atoms: N_20  and  C_21 
REMARK    8  A    between atoms: C_21  and  C_22 
REMARK    9  A    between atoms: C_22  and  N_23 
REMARK   10  A    between atoms: C_34  and  O_35 
ROOT
HETATM    1  C   UNL     1      -7.408   3.681 -32.491  1.00  0.00     0.059 C 
HETATM    2  C   UNL     1      -6.537   3.532 -31.283  1.00  0.00     0.161 C 
HETATM    3  N   UNL     1      -5.857   4.827 -31.280  1.00  0.00    -0.332 N 
HETATM    4  C   UNL     1      -6.032   5.477 -32.489  1.00  0.00     0.278 C 
HETATM    5  O   UNL     1      -5.405   6.459 -32.848  1.00  0.00    -0.265 OA
HETATM    6  C   UNL     1      -7.110   4.774 -33.210  1.00  0.00     0.146 C 
ENDROOT
BRANCH   1   7
HETATM    7  C   UNL     1      -8.441   2.740 -32.962  1.00  0.00     0.193 C 
HETATM    8  O   UNL     1      -9.623   3.075 -32.938  1.00  0.00    -0.287 OA
BRANCH   7   9
HETATM    9  C   UNL     1      -8.053   1.425 -33.504  1.00  0.00     0.015 A 
HETATM   10  C   UNL     1      -8.257   0.243 -32.785  1.00  0.00     0.018 A 
HETATM   11  C   UNL     1      -7.860  -0.985 -33.331  1.00  0.00     0.038 A 
HETATM   12  C   UNL     1      -7.283  -1.035 -34.600  1.00  0.00     0.069 A 
HETATM   13  C   UNL     1      -7.123   0.149 -35.325  1.00  0.00     0.038 A 
HETATM   14  C   UNL     1      -7.507   1.378 -34.787  1.00  0.00     0.018 A 
BRANCH  12  15
HETATM   15  O   UNL     1      -6.864  -2.153 -35.262  1.00  0.00    -0.347 OA
BRANCH  15  16
HETATM   16  C   UNL     1      -6.111  -3.158 -34.577  1.00  0.00     0.120 C 
HETATM   17  C   UNL     1      -4.619  -2.876 -34.735  1.00  0.00     0.040 C 
HETATM   18  C   UNL     1      -6.465  -4.494 -35.225  1.00  0.00     0.040 C 
ENDBRANCH  15  16
ENDBRANCH  12  15
ENDBRANCH   7   9
ENDBRANCH   1   7
BRANCH   2  19
HETATM   19  C   UNL     1      -5.563   2.368 -31.382  1.00  0.00    -0.030 A 
HETATM   20  C   UNL     1      -4.667   2.240 -32.463  1.00  0.00     0.012 A 
HETATM   21  C   UNL     1      -3.802   1.146 -32.554  1.00  0.00     0.037 A 
HETATM   22  C   UNL     1      -3.828   0.160 -31.564  1.00  0.00     0.102 A 
HETATM   23  C   UNL     1      -4.716   0.261 -30.486  1.00  0.00     0.037 A 
HETATM   24  C   UNL     1      -5.573   1.363 -30.398  1.00  0.00     0.012 A 
BRANCH  22  25
HETATM   25  N   UNL     1      -2.910  -0.982 -31.650  1.00  0.00    -0.116 N 
HETATM   26  O   UNL     1      -1.695  -0.734 -31.631  1.00  0.00    -0.532 OA
HETATM   27  O   UNL     1      -3.405  -2.113 -31.706  1.00  0.00    -0.532 OA
ENDBRANCH  22  25
ENDBRANCH   2  19
BRANCH   6  28
HETATM   28  O   UNL     1      -7.642   5.205 -34.389  1.00  0.00    -0.355 OA
HETATM   29  H   UNL     1      -8.103   4.439 -34.807  1.00  0.00     0.218 HD
ENDBRANCH   6  28
BRANCH   3  30
HETATM   30  C   UNL     1      -4.850   5.216 -30.299  1.00  0.00     0.155 C 
BRANCH  30  31
HETATM   31  C   UNL     1      -3.410   5.224 -30.886  1.00  0.00     0.254 C 
BRANCH  31  32
HETATM   32  N   UNL     1      -2.436   6.187 -30.194  1.00  0.00    -0.066 N 
HETATM   33  H   UNL     1      -2.139   5.683 -29.342  1.00  0.00     0.280 HD
HETATM   34  C   UNL     1      -3.153   7.457 -29.701  1.00  0.00     0.262 C 
HETATM   35  C   UNL     1      -3.356   8.497 -30.835  1.00  0.00     0.260 C 
HETATM   36  N   UNL     1      -2.048   8.832 -31.498  1.00  0.00    -0.072 N 
HETATM   37  H   UNL     1      -1.441   9.394 -30.880  1.00  0.00     0.277 HD
HETATM   38  H   UNL     1      -2.238   9.459 -32.300  1.00  0.00     0.277 HD
HETATM   39  C   UNL     1      -1.313   7.629 -32.030  1.00  0.00     0.260 C 
HETATM   40  C   UNL     1      -1.142   6.534 -30.949  1.00  0.00     0.262 C 
ENDBRANCH  31  32
ENDBRANCH  30  31
ENDBRANCH   3  30
TORSDOF 10
ENDMDL
MODEL 4
REMARK VINA RESULT:      -8.1      2.994      8.785
REMARK  10 active torsions:
REMARK  status: ('A' for Active; 'I' for Inactive)
REMARK    1  A    between atoms: C_2  and  O_3 
REMARK    2  A    between atoms: O_3  and  C_4 
REMARK    3  A    between atoms: C_7  and  C_8 
REMARK    4  A    between atoms: C_8  and  C_9 
REMARK    5  A    between atoms: C_10  and  C_11 
REMARK    6  A    between atoms: C_14  and  N_15 
REMARK    7  A    between atoms: N_20  and  C_21 
REMARK    8  A    between atoms: C_21  and  C_22 
REMARK    9  A    between atoms: C_22  and  N_23 
REMARK   10  A    between atoms: C_34  and  O_35 
ROOT
HETATM    1  C   UNL     1      -6.022   1.300 -31.835  1.00  0.00     0.059 C 
HETATM    2  C   UNL     1      -6.533   0.892 -33.181  1.00  0.00     0.161 C 
HETATM    3  N   UNL     1      -7.976   0.999 -32.964  1.00  0.00    -0.332 N 
HETATM    4  C   UNL     1      -8.265   1.099 -31.615  1.00  0.00     0.278 C 
HETATM    5  O   UNL     1      -9.378   0.979 -31.131  1.00  0.00    -0.265 OA
HETATM    6  C   UNL     1      -6.998   1.392 -30.918  1.00  0.00     0.146 C 
ENDROOT
BRANCH   1   7
HETATM    7  C   UNL     1      -4.616   1.514 -31.446  1.00  0.00     0.193 C 
HETATM    8  O   UNL     1      -4.001   0.619 -30.872  1.00  0.00    -0.287 OA
BRANCH   7   9
HETATM    9  C   UNL     1      -3.938   2.778 -31.790  1.00  0.00     0.015 A 
HETATM   10  C   UNL     1      -3.050   2.868 -32.867  1.00  0.00     0.018 A 
HETATM   11  C   UNL     1      -2.416   4.085 -33.150  1.00  0.00     0.038 A 
HETATM   12  C   UNL     1      -2.686   5.214 -32.377  1.00  0.00     0.069 A 
HETATM   13  C   UNL     1      -3.608   5.121 -31.331  1.00  0.00     0.038 A 
HETATM   14  C   UNL     1      -4.238   3.912 -31.034  1.00  0.00     0.018 A 
BRANCH  12  15
HETATM   15  O   UNL     1      -2.160   6.462 -32.544  1.00  0.00    -0.347 OA
BRANCH  15  16
HETATM   16  C   UNL     1      -1.597   7.163 -31.431  1.00  0.00     0.120 C 
HETATM   17  C   UNL     1      -1.932   8.648 -31.540  1.00  0.00     0.040 C 
HETATM   18  C   UNL     1      -0.086   6.959 -31.497  1.00  0.00     0.040 C 
ENDBRANCH  15  16
ENDBRANCH  12  15
ENDBRANCH   7   9
ENDBRANCH   1   7
BRANCH   2  19
HETATM   19  C   UNL     1      -6.112  -0.513 -33.585  1.00  0.00    -0.030 A 
HETATM   20  C   UNL     1      -7.056  -1.499 -33.935  1.00  0.00     0.012 A 
HETATM   21  C   UNL     1      -6.652  -2.794 -34.272  1.00  0.00     0.037 A 
HETATM   22  C   UNL     1      -5.292  -3.120 -34.256  1.00  0.00     0.102 A 
HETATM   23  C   UNL     1      -4.338  -2.159 -33.903  1.00  0.00     0.037 A 
HETATM   24  C   UNL     1      -4.750  -0.863 -33.574  1.00  0.00     0.012 A 
BRANCH  22  25
HETATM   25  N   UNL     1      -4.866  -4.474 -34.624  1.00  0.00    -0.116 N 
HETATM   26  O   UNL     1      -5.690  -5.186 -35.216  1.00  0.00    -0.532 OA
HETATM   27  O   UNL     1      -3.707  -4.806 -34.347  1.00  0.00    -0.532 OA
ENDBRANCH  22  25
ENDBRANCH   2  19
BRANCH   6  28
HETATM   28  O   UNL     1      -6.911   1.679 -29.588  1.00  0.00    -0.355 OA
HETATM   29  H   UNL     1      -6.121   1.207 -29.232  1.00  0.00     0.218 HD
ENDBRANCH   6  28
BRANCH   3  30
HETATM   30  C   UNL     1      -8.977   0.684 -33.978  1.00  0.00     0.155 C 
BRANCH  30  31
HETATM   31  C   UNL     1     -10.005   1.832 -34.185  1.00  0.00     0.254 C 
BRANCH  31  32
HETATM   32  N   UNL     1     -11.193   1.818 -33.214  1.00  0.00    -0.066 N 
HETATM   33  H   UNL     1     -10.831   1.343 -32.371  1.00  0.00     0.280 HD
HETATM   34  C   UNL     1     -12.337   0.929 -33.737  1.00  0.00     0.262 C 
HETATM   35  C   UNL     1     -13.218   1.658 -34.785  1.00  0.00     0.260 C 
HETATM   36  N   UNL     1     -13.744   2.957 -34.238  1.00  0.00    -0.072 N 
HETATM   37  H   UNL     1     -14.464   2.800 -33.514  1.00  0.00     0.277 HD
HETATM   38  H   UNL     1     -14.253   3.449 -34.994  1.00  0.00     0.277 HD
HETATM   39  C   UNL     1     -12.666   3.884 -33.740  1.00  0.00     0.260 C 
HETATM   40  C   UNL     1     -11.721   3.181 -32.735  1.00  0.00     0.262 C 
ENDBRANCH  31  32
ENDBRANCH  30  31
ENDBRANCH   3  30
TORSDOF 10
ENDMDL
MODEL 5
REMARK VINA RESULT:      -7.9      2.587      5.949
REMARK  10 active torsions:
REMARK  status: ('A' for Active; 'I' for Inactive)
REMARK    1  A    between atoms: C_2  and  O_3 
REMARK    2  A    between atoms: O_3  and  C_4 
REMARK    3  A    between atoms: C_7  and  C_8 
REMARK    4  A    between atoms: C_8  and  C_9 
REMARK    5  A    between atoms: C_10  and  C_11 
REMARK    6  A    between atoms: C_14  and  N_15 
REMARK    7  A    between atoms: N_20  and  C_21 
REMARK    8  A    between atoms: C_21  and  C_22 
REMARK    9  A    between atoms: C_22  and  N_23 
REMARK   10  A    between atoms: C_34  and  O_35 
ROOT
HETATM    1  C   UNL     1      -9.530   2.659 -33.152  1.00  0.00     0.059 C 
HETATM    2  C   UNL     1      -8.933   3.303 -31.940  1.00  0.00     0.161 C 
HETATM    3  N   UNL     1      -9.229   4.710 -32.209  1.00  0.00    -0.332 N 
HETATM    4  C   UNL     1      -9.609   4.889 -33.528  1.00  0.00     0.278 C 
HETATM    5  O   UNL     1      -9.698   5.969 -34.085  1.00  0.00    -0.265 OA
HETATM    6  C   UNL     1      -9.894   3.552 -34.085  1.00  0.00     0.146 C 
ENDROOT
BRANCH   1   7
HETATM    7  C   UNL     1      -9.666   1.214 -33.414  1.00  0.00     0.193 C 
HETATM    8  O   UNL     1     -10.782   0.702 -33.429  1.00  0.00    -0.287 OA
BRANCH   7   9
HETATM    9  C   UNL     1      -8.471   0.401 -33.706  1.00  0.00     0.015 A 
HETATM   10  C   UNL     1      -7.945   0.301 -34.999  1.00  0.00     0.018 A 
HETATM   11  C   UNL     1      -6.817  -0.494 -35.235  1.00  0.00     0.038 A 
HETATM   12  C   UNL     1      -6.199  -1.169 -34.181  1.00  0.00     0.069 A 
HETATM   13  C   UNL     1      -6.709  -1.026 -32.887  1.00  0.00     0.038 A 
HETATM   14  C   UNL     1      -7.838  -0.244 -32.643  1.00  0.00     0.018 A 
BRANCH  12  15
HETATM   15  O   UNL     1      -5.092  -1.961 -34.257  1.00  0.00    -0.347 OA
BRANCH  15  16
HETATM   16  C   UNL     1      -5.159  -3.237 -34.902  1.00  0.00     0.120 C 
HETATM   17  C   UNL     1      -6.573  -3.799 -34.777  1.00  0.00     0.040 C 
HETATM   18  C   UNL     1      -4.167  -4.148 -34.184  1.00  0.00     0.040 C 
ENDBRANCH  15  16
ENDBRANCH  12  15
ENDBRANCH   7   9
ENDBRANCH   1   7
BRANCH   2  19
HETATM   19  C   UNL     1      -7.442   3.043 -31.793  1.00  0.00    -0.030 A 
HETATM   20  C   UNL     1      -6.551   3.200 -32.875  1.00  0.00     0.012 A 
HETATM   21  C   UNL     1      -5.188   2.925 -32.730  1.00  0.00     0.037 A 
HETATM   22  C   UNL     1      -4.700   2.482 -31.497  1.00  0.00     0.102 A 
HETATM   23  C   UNL     1      -5.568   2.310 -30.412  1.00  0.00     0.037 A 
HETATM   24  C   UNL     1      -6.929   2.595 -30.562  1.00  0.00     0.012 A 
BRANCH  22  25
HETATM   25  N   UNL     1      -3.268   2.207 -31.339  1.00  0.00    -0.116 N 
HETATM   26  O   UNL     1      -2.930   1.022 -31.200  1.00  0.00    -0.532 OA
HETATM   27  O   UNL     1      -2.491   3.167 -31.385  1.00  0.00    -0.532 OA
ENDBRANCH  22  25
ENDBRANCH   2  19
BRANCH   6  28
HETATM   28  O   UNL     1     -10.414   3.343 -35.328  1.00  0.00    -0.355 OA
HETATM   29  H   UNL     1     -10.245   2.400 -35.567  1.00  0.00     0.218 HD
ENDBRANCH   6  28
BRANCH   3  30
HETATM   30  C   UNL     1      -8.835   5.807 -31.332  1.00  0.00     0.155 C 
BRANCH  30  31
HETATM   31  C   UNL     1      -7.480   6.449 -31.743  1.00  0.00     0.254 C 
BRANCH  31  32
HETATM   32  N   UNL     1      -6.769   7.227 -30.627  1.00  0.00    -0.066 N 
HETATM   33  H   UNL     1      -7.109   8.197 -30.734  1.00  0.00     0.280 HD
HETATM   34  C   UNL     1      -5.249   7.288 -30.862  1.00  0.00     0.262 C 
HETATM   35  C   UNL     1      -4.529   5.993 -30.400  1.00  0.00     0.260 C 
HETATM   36  N   UNL     1      -4.846   5.683 -28.963  1.00  0.00    -0.072 N 
HETATM   37  H   UNL     1      -4.390   6.351 -28.321  1.00  0.00     0.277 HD
HETATM   38  H   UNL     1      -4.419   4.772 -28.721  1.00  0.00     0.277 HD
HETATM   39  C   UNL     1      -6.322   5.580 -28.678  1.00  0.00     0.260 C 
HETATM   40  C   UNL     1      -7.094   6.825 -29.179  1.00  0.00     0.262 C 
ENDBRANCH  31  32
ENDBRANCH  30  31
ENDBRANCH   3  30
TORSDOF 10
ENDMDL
MODEL 6
REMARK VINA RESULT:      -7.7      2.759      5.039
REMARK  10 active torsions:
REMARK  status: ('A' for Active; 'I' for Inactive)
REMARK    1  A    between atoms: C_2  and  O_3 
REMARK    2  A    between atoms: O_3  and  C_4 
REMARK    3  A    between atoms: C_7  and  C_8 
REMARK    4  A    between atoms: C_8  and  C_9 
REMARK    5  A    between atoms: C_10  and  C_11 
REMARK    6  A    between atoms: C_14  and  N_15 
REMARK    7  A    between atoms: N_20  and  C_21 
REMARK    8  A    between atoms: C_21  and  C_22 
REMARK    9  A    between atoms: C_22  and  N_23 
REMARK   10  A    between atoms: C_34  and  O_35 
ROOT
HETATM    1  C   UNL     1      -7.528   2.408 -31.705  1.00  0.00     0.059 C 
HETATM    2  C   UNL     1      -7.538   3.481 -32.749  1.00  0.00     0.161 C 
HETATM    3  N   UNL     1      -6.778   4.528 -32.066  1.00  0.00    -0.332 N 
HETATM    4  C   UNL     1      -6.659   4.248 -30.716  1.00  0.00     0.278 C 
HETATM    5  O   UNL     1      -6.275   5.041 -29.872  1.00  0.00    -0.265 OA
HETATM    6  C   UNL     1      -7.056   2.840 -30.526  1.00  0.00     0.146 C 
ENDROOT
BRANCH   1   7
HETATM    7  C   UNL     1      -8.036   1.031 -31.843  1.00  0.00     0.193 C 
HETATM    8  O   UNL     1      -9.125   0.735 -31.360  1.00  0.00    -0.287 OA
BRANCH   7   9
HETATM    9  C   UNL     1      -7.262   0.029 -32.599  1.00  0.00     0.015 A 
HETATM   10  C   UNL     1      -7.746  -0.535 -33.784  1.00  0.00     0.018 A 
HETATM   11  C   UNL     1      -6.985  -1.494 -34.464  1.00  0.00     0.038 A 
HETATM   12  C   UNL     1      -5.733  -1.872 -33.977  1.00  0.00     0.069 A 
HETATM   13  C   UNL     1      -5.242  -1.269 -32.815  1.00  0.00     0.038 A 
HETATM   14  C   UNL     1      -5.997  -0.319 -32.126  1.00  0.00     0.018 A 
BRANCH  12  15
HETATM   15  O   UNL     1      -4.878  -2.775 -34.537  1.00  0.00    -0.347 OA
BRANCH  15  16
HETATM   16  C   UNL     1      -4.980  -4.165 -34.210  1.00  0.00     0.120 C 
HETATM   17  C   UNL     1      -3.583  -4.770 -34.108  1.00  0.00     0.040 C 
HETATM   18  C   UNL     1      -5.759  -4.830 -35.342  1.00  0.00     0.040 C 
ENDBRANCH  15  16
ENDBRANCH  12  15
ENDBRANCH   7   9
ENDBRANCH   1   7
BRANCH   2  19
HETATM   19  C   UNL     1      -8.938   3.938 -33.129  1.00  0.00    -0.030 A 
HETATM   20  C   UNL     1      -9.869   4.363 -32.159  1.00  0.00     0.012 A 
HETATM   21  C   UNL     1     -11.162   4.749 -32.524  1.00  0.00     0.037 A 
HETATM   22  C   UNL     1     -11.542   4.706 -33.869  1.00  0.00     0.102 A 
HETATM   23  C   UNL     1     -10.637   4.279 -34.848  1.00  0.00     0.037 A 
HETATM   24  C   UNL     1      -9.342   3.902 -34.476  1.00  0.00     0.012 A 
BRANCH  22  25
HETATM   25  N   UNL     1     -12.894   5.125 -34.255  1.00  0.00    -0.116 N 
HETATM   26  O   UNL     1     -13.060   5.492 -35.428  1.00  0.00    -0.532 OA
HETATM   27  O   UNL     1     -13.783   5.055 -33.399  1.00  0.00    -0.532 OA
ENDBRANCH  22  25
ENDBRANCH   2  19
BRANCH   6  28
HETATM   28  O   UNL     1      -6.950   2.174 -29.340  1.00  0.00    -0.355 OA
HETATM   29  H   UNL     1      -6.808   1.219 -29.545  1.00  0.00     0.218 HD
ENDBRANCH   6  28
BRANCH   3  30
HETATM   30  C   UNL     1      -6.501   5.840 -32.640  1.00  0.00     0.155 C 
BRANCH  30  31
HETATM   31  C   UNL     1      -4.980   6.104 -32.831  1.00  0.00     0.254 C 
BRANCH  31  32
HETATM   32  N   UNL     1      -4.215   4.984 -33.548  1.00  0.00    -0.066 N 
HETATM   33  H   UNL     1      -4.951   4.333 -33.867  1.00  0.00     0.280 HD
HETATM   34  C   UNL     1      -3.342   4.180 -32.566  1.00  0.00     0.262 C 
HETATM   35  C   UNL     1      -1.995   4.887 -32.260  1.00  0.00     0.260 C 
HETATM   36  N   UNL     1      -1.247   5.194 -33.529  1.00  0.00    -0.072 N 
HETATM   37  H   UNL     1      -0.875   4.337 -33.968  1.00  0.00     0.277 HD
HETATM   38  H   UNL     1      -0.400   5.739 -33.287  1.00  0.00     0.277 HD
HETATM   39  C   UNL     1      -2.041   6.008 -34.517  1.00  0.00     0.260 C 
HETATM   40  C   UNL     1      -3.423   5.373 -34.807  1.00  0.00     0.262 C 
ENDBRANCH  31  32
ENDBRANCH  30  31
ENDBRANCH   3  30
TORSDOF 10
ENDMDL
MODEL 7
REMARK VINA RESULT:      -7.5      2.737      8.692
REMARK  10 active torsions:
REMARK  status: ('A' for Active; 'I' for Inactive)
REMARK    1  A    between atoms: C_2  and  O_3 
REMARK    2  A    between atoms: O_3  and  C_4 
REMARK    3  A    between atoms: C_7  and  C_8 
REMARK    4  A    between atoms: C_8  and  C_9 
REMARK    5  A    between atoms: C_10  and  C_11 
REMARK    6  A    between atoms: C_14  and  N_15 
REMARK    7  A    between atoms: N_20  and  C_21 
REMARK    8  A    between atoms: C_21  and  C_22 
REMARK    9  A    between atoms: C_22  and  N_23 
REMARK   10  A    between atoms: C_34  and  O_35 
ROOT
HETATM    1  C   UNL     1      -6.507   2.727 -31.408  1.00  0.00     0.059 C 
HETATM    2  C   UNL     1      -7.117   2.523 -32.759  1.00  0.00     0.161 C 
HETATM    3  N   UNL     1      -8.529   2.757 -32.455  1.00  0.00    -0.332 N 
HETATM    4  C   UNL     1      -8.747   2.740 -31.089  1.00  0.00     0.278 C 
HETATM    5  O   UNL     1      -9.844   2.686 -30.560  1.00  0.00    -0.265 OA
HETATM    6  C   UNL     1      -7.426   2.822 -30.435  1.00  0.00     0.146 C 
ENDROOT
BRANCH   1   7
HETATM    7  C   UNL     1      -5.070   2.749 -31.076  1.00  0.00     0.193 C 
HETATM    8  O   UNL     1      -4.602   1.879 -30.347  1.00  0.00    -0.287 OA
BRANCH   7   9
HETATM    9  C   UNL     1      -4.194   3.783 -31.657  1.00  0.00     0.015 A 
HETATM   10  C   UNL     1      -4.511   5.143 -31.587  1.00  0.00     0.018 A 
HETATM   11  C   UNL     1      -3.657   6.091 -32.165  1.00  0.00     0.038 A 
HETATM   12  C   UNL     1      -2.478   5.686 -32.790  1.00  0.00     0.069 A 
HETATM   13  C   UNL     1      -2.151   4.327 -32.816  1.00  0.00     0.038 A 
HETATM   14  C   UNL     1      -2.999   3.374 -32.251  1.00  0.00     0.018 A 
BRANCH  12  15
HETATM   15  O   UNL     1      -1.548   6.492 -33.379  1.00  0.00    -0.347 OA
BRANCH  15  16
HETATM   16  C   UNL     1      -0.779   7.404 -32.588  1.00  0.00     0.120 C 
HETATM   17  C   UNL     1      -0.061   6.640 -31.479  1.00  0.00     0.040 C 
HETATM   18  C   UNL     1      -1.761   8.405 -31.986  1.00  0.00     0.040 C 
ENDBRANCH  15  16
ENDBRANCH  12  15
ENDBRANCH   7   9
ENDBRANCH   1   7
BRANCH   2  19
HETATM   19  C   UNL     1      -6.871   1.134 -33.327  1.00  0.00    -0.030 A 
HETATM   20  C   UNL     1      -6.988   0.864 -34.706  1.00  0.00     0.012 A 
HETATM   21  C   UNL     1      -6.789  -0.426 -35.206  1.00  0.00     0.037 A 
HETATM   22  C   UNL     1      -6.476  -1.467 -34.327  1.00  0.00     0.102 A 
HETATM   23  C   UNL     1      -6.363  -1.224 -32.953  1.00  0.00     0.037 A 
HETATM   24  C   UNL     1      -6.556   0.071 -32.461  1.00  0.00     0.012 A 
BRANCH  22  25
HETATM   25  N   UNL     1      -6.252  -2.819 -34.852  1.00  0.00    -0.116 N 
HETATM   26  O   UNL     1      -5.204  -3.014 -35.484  1.00  0.00    -0.532 OA
HETATM   27  O   UNL     1      -7.106  -3.679 -34.605  1.00  0.00    -0.532 OA
ENDBRANCH  22  25
ENDBRANCH   2  19
BRANCH   6  28
HETATM   28  O   UNL     1      -7.252   2.953 -29.089  1.00  0.00    -0.355 OA
HETATM   29  H   UNL     1      -6.589   2.278 -28.807  1.00  0.00     0.218 HD
ENDBRANCH   6  28
BRANCH   3  30
HETATM   30  C   UNL     1      -9.601   2.659 -33.439  1.00  0.00     0.155 C 
BRANCH  30  31
HETATM   31  C   UNL     1     -10.513   1.420 -33.215  1.00  0.00     0.254 C 
BRANCH  31  32
HETATM   32  N   UNL     1     -12.003   1.738 -33.038  1.00  0.00    -0.066 N 
HETATM   33  H   UNL     1     -12.291   1.172 -32.223  1.00  0.00     0.280 HD
HETATM   34  C   UNL     1     -12.835   1.218 -34.224  1.00  0.00     0.262 C 
HETATM   35  C   UNL     1     -12.788   2.178 -35.442  1.00  0.00     0.260 C 
HETATM   36  N   UNL     1     -13.208   3.569 -35.049  1.00  0.00    -0.072 N 
HETATM   37  H   UNL     1     -14.221   3.619 -34.852  1.00  0.00     0.277 HD
HETATM   38  H   UNL     1     -13.081   4.193 -35.865  1.00  0.00     0.277 HD
HETATM   39  C   UNL     1     -12.406   4.144 -33.911  1.00  0.00     0.260 C 
HETATM   40  C   UNL     1     -12.371   3.190 -32.692  1.00  0.00     0.262 C 
ENDBRANCH  31  32
ENDBRANCH  30  31
ENDBRANCH   3  30
TORSDOF 10
ENDMDL
MODEL 8
REMARK VINA RESULT:      -7.5      3.002      6.357
REMARK  10 active torsions:
REMARK  status: ('A' for Active; 'I' for Inactive)
REMARK    1  A    between atoms: C_2  and  O_3 
REMARK    2  A    between atoms: O_3  and  C_4 
REMARK    3  A    between atoms: C_7  and  C_8 
REMARK    4  A    between atoms: C_8  and  C_9 
REMARK    5  A    between atoms: C_10  and  C_11 
REMARK    6  A    between atoms: C_14  and  N_15 
REMARK    7  A    between atoms: N_20  and  C_21 
REMARK    8  A    between atoms: C_21  and  C_22 
REMARK    9  A    between atoms: C_22  and  N_23 
REMARK   10  A    between atoms: C_34  and  O_35 
ROOT
HETATM    1  C   UNL     1      -8.458   3.832 -33.136  1.00  0.00     0.059 C 
HETATM    2  C   UNL     1      -7.882   3.610 -31.772  1.00  0.00     0.161 C 
HETATM    3  N   UNL     1      -7.615   4.990 -31.365  1.00  0.00    -0.332 N 
HETATM    4  C   UNL     1      -7.685   5.845 -32.451  1.00  0.00     0.278 C 
HETATM    5  O   UNL     1      -7.296   7.001 -32.452  1.00  0.00    -0.265 OA
HETATM    6  C   UNL     1      -8.325   5.101 -33.552  1.00  0.00     0.146 C 
ENDROOT
BRANCH   1   7
HETATM    7  C   UNL     1      -9.046   2.816 -34.028  1.00  0.00     0.193 C 
HETATM    8  O   UNL     1      -9.988   3.119 -34.756  1.00  0.00    -0.287 OA
BRANCH   7   9
HETATM    9  C   UNL     1      -8.475   1.458 -34.080  1.00  0.00     0.015 A 
HETATM   10  C   UNL     1      -7.398   1.143 -34.916  1.00  0.00     0.018 A 
HETATM   11  C   UNL     1      -6.895  -0.164 -34.945  1.00  0.00     0.038 A 
HETATM   12  C   UNL     1      -7.447  -1.148 -34.125  1.00  0.00     0.069 A 
HETATM   13  C   UNL     1      -8.494  -0.810 -33.263  1.00  0.00     0.038 A 
HETATM   14  C   UNL     1      -9.009   0.486 -33.233  1.00  0.00     0.018 A 
BRANCH  12  15
HETATM   15  O   UNL     1      -7.052  -2.451 -34.035  1.00  0.00    -0.347 OA
BRANCH  15  16
HETATM   16  C   UNL     1      -6.125  -2.992 -34.981  1.00  0.00     0.120 C 
HETATM   17  C   UNL     1      -6.541  -4.413 -35.350  1.00  0.00     0.040 C 
HETATM   18  C   UNL     1      -4.757  -3.004 -34.303  1.00  0.00     0.040 C 
ENDBRANCH  15  16
ENDBRANCH  12  15
ENDBRANCH   7   9
ENDBRANCH   1   7
BRANCH   2  19
HETATM   19  C   UNL     1      -6.623   2.757 -31.782  1.00  0.00    -0.030 A 
HETATM   20  C   UNL     1      -5.523   3.066 -32.609  1.00  0.00     0.012 A 
HETATM   21  C   UNL     1      -4.387   2.252 -32.628  1.00  0.00     0.037 A 
HETATM   22  C   UNL     1      -4.341   1.110 -31.823  1.00  0.00     0.102 A 
HETATM   23  C   UNL     1      -5.425   0.778 -31.002  1.00  0.00     0.037 A 
HETATM   24  C   UNL     1      -6.556   1.603 -30.982  1.00  0.00     0.012 A 
BRANCH  22  25
HETATM   25  N   UNL     1      -3.144   0.262 -31.832  1.00  0.00    -0.116 N 
HETATM   26  O   UNL     1      -2.429   0.282 -30.818  1.00  0.00    -0.532 OA
HETATM   27  O   UNL     1      -2.942  -0.436 -32.832  1.00  0.00    -0.532 OA
ENDBRANCH  22  25
ENDBRANCH   2  19
BRANCH   6  28
HETATM   28  O   UNL     1      -8.672   5.661 -34.746  1.00  0.00    -0.355 OA
HETATM   29  H   UNL     1      -9.631   5.481 -34.893  1.00  0.00     0.218 HD
ENDBRANCH   6  28
BRANCH   3  30
HETATM   30  C   UNL     1      -7.013   5.360 -30.090  1.00  0.00     0.155 C 
BRANCH  30  31
HETATM   31  C   UNL     1      -8.013   6.074 -29.137  1.00  0.00     0.254 C 
BRANCH  31  32
HETATM   32  N   UNL     1      -8.209   7.571 -29.411  1.00  0.00    -0.066 N 
HETATM   33  H   UNL     1      -8.369   7.627 -30.430  1.00  0.00     0.280 HD
HETATM   34  C   UNL     1      -6.918   8.367 -29.145  1.00  0.00     0.262 C 
HETATM   35  C   UNL     1      -6.719   8.681 -27.639  1.00  0.00     0.260 C 
HETATM   36  N   UNL     1      -7.920   9.387 -27.072  1.00  0.00    -0.072 N 
HETATM   37  H   UNL     1      -7.992  10.356 -27.424  1.00  0.00     0.277 HD
HETATM   38  H   UNL     1      -7.783   9.501 -26.052  1.00  0.00     0.277 HD
HETATM   39  C   UNL     1      -9.213   8.640 -27.274  1.00  0.00     0.260 C 
HETATM   40  C   UNL     1      -9.425   8.248 -28.757  1.00  0.00     0.262 C 
ENDBRANCH  31  32
ENDBRANCH  30  31
ENDBRANCH   3  30
TORSDOF 10
ENDMDL
MODEL 9
REMARK VINA RESULT:      -7.5      3.899      8.890
REMARK  10 active torsions:
REMARK  status: ('A' for Active; 'I' for Inactive)
REMARK    1  A    between atoms: C_2  and  O_3 
REMARK    2  A    between atoms: O_3  and  C_4 
REMARK    3  A    between atoms: C_7  and  C_8 
REMARK    4  A    between atoms: C_8  and  C_9 
REMARK    5  A    between atoms: C_10  and  C_11 
REMARK    6  A    between atoms: C_14  and  N_15 
REMARK    7  A    between atoms: N_20  and  C_21 
REMARK    8  A    between atoms: C_21  and  C_22 
REMARK    9  A    between atoms: C_22  and  N_23 
REMARK   10  A    between atoms: C_34  and  O_35 
ROOT
HETATM    1  C   UNL     1      -3.254   5.665 -32.982  1.00  0.00     0.059 C 
HETATM    2  C   UNL     1      -4.054   5.205 -31.803  1.00  0.00     0.161 C 
HETATM    3  N   UNL     1      -5.148   4.506 -32.477  1.00  0.00    -0.332 N 
HETATM    4  C   UNL     1      -5.176   4.818 -33.825  1.00  0.00     0.278 C 
HETATM    5  O   UNL     1      -6.098   4.560 -34.580  1.00  0.00    -0.265 OA
HETATM    6  C   UNL     1      -3.896   5.478 -34.146  1.00  0.00     0.146 C 
ENDROOT
BRANCH   1   7
HETATM    7  C   UNL     1      -1.940   6.333 -32.958  1.00  0.00     0.193 C 
HETATM    8  O   UNL     1      -1.546   6.935 -33.953  1.00  0.00    -0.287 OA
BRANCH   7   9
HETATM    9  C   UNL     1      -1.127   6.320 -31.728  1.00  0.00     0.015 A 
HETATM   10  C   UNL     1      -0.356   5.211 -31.366  1.00  0.00     0.018 A 
HETATM   11  C   UNL     1       0.391   5.235 -30.181  1.00  0.00     0.038 A 
HETATM   12  C   UNL     1       0.389   6.371 -29.372  1.00  0.00     0.069 A 
HETATM   13  C   UNL     1      -0.352   7.489 -29.767  1.00  0.00     0.038 A 
HETATM   14  C   UNL     1      -1.107   7.472 -30.940  1.00  0.00     0.018 A 
BRANCH  12  15
HETATM   15  O   UNL     1       1.076   6.544 -28.206  1.00  0.00    -0.347 OA
BRANCH  15  16
HETATM   16  C   UNL     1       0.480   7.253 -27.115  1.00  0.00     0.120 C 
HETATM   17  C   UNL     1       1.572   7.762 -26.178  1.00  0.00     0.040 C 
HETATM   18  C   UNL     1      -0.421   6.262 -26.382  1.00  0.00     0.040 C 
ENDBRANCH  15  16
ENDBRANCH  12  15
ENDBRANCH   7   9
ENDBRANCH   1   7
BRANCH   2  19
HETATM   19  C   UNL     1      -4.550   6.348 -30.930  1.00  0.00    -0.030 A 
HETATM   20  C   UNL     1      -4.413   6.323 -29.527  1.00  0.00     0.012 A 
HETATM   21  C   UNL     1      -4.903   7.367 -28.738  1.00  0.00     0.037 A 
HETATM   22  C   UNL     1      -5.545   8.450 -29.347  1.00  0.00     0.102 A 
HETATM   23  C   UNL     1      -5.700   8.492 -30.737  1.00  0.00     0.037 A 
HETATM   24  C   UNL     1      -5.199   7.447 -31.521  1.00  0.00     0.012 A 
BRANCH  22  25
HETATM   25  N   UNL     1      -6.047   9.554 -28.521  1.00  0.00    -0.116 N 
HETATM   26  O   UNL     1      -6.116  10.673 -29.052  1.00  0.00    -0.532 OA
HETATM   27  O   UNL     1      -6.395   9.294 -27.364  1.00  0.00    -0.532 OA
ENDBRANCH  22  25
ENDBRANCH   2  19
BRANCH   6  28
HETATM   28  O   UNL     1      -3.514   5.819 -35.409  1.00  0.00    -0.355 OA
HETATM   29  H   UNL     1      -3.956   6.672 -35.635  1.00  0.00     0.218 HD
ENDBRANCH   6  28
BRANCH   3  30
HETATM   30  C   UNL     1      -6.258   3.867 -31.779  1.00  0.00     0.155 C 
BRANCH  30  31
HETATM   31  C   UNL     1      -5.913   2.434 -31.284  1.00  0.00     0.254 C 
BRANCH  31  32
HETATM   32  N   UNL     1      -6.922   1.350 -31.688  1.00  0.00    -0.066 N 
HETATM   33  H   UNL     1      -7.782   1.595 -31.171  1.00  0.00     0.280 HD
HETATM   34  C   UNL     1      -6.500  -0.035 -31.166  1.00  0.00     0.262 C 
HETATM   35  C   UNL     1      -5.435  -0.707 -32.073  1.00  0.00     0.260 C 
HETATM   36  N   UNL     1      -5.911  -0.782 -33.499  1.00  0.00    -0.072 N 
HETATM   37  H   UNL     1      -6.668  -1.476 -33.610  1.00  0.00     0.277 HD
HETATM   38  H   UNL     1      -5.141  -1.156 -34.083  1.00  0.00     0.277 HD
HETATM   39  C   UNL     1      -6.309   0.551 -34.075  1.00  0.00     0.260 C 
HETATM   40  C   UNL     1      -7.326   1.289 -33.170  1.00  0.00     0.262 C 
ENDBRANCH  31  32
ENDBRANCH  30  31
ENDBRANCH   3  30
TORSDOF 10
ENDMDL
MODEL 10
REMARK VINA RESULT:      -7.4      1.405      1.829
REMARK  10 active torsions:
REMARK  status: ('A' for Active; 'I' for Inactive)
REMARK    1  A    between atoms: C_2  and  O_3 
REMARK    2  A    between atoms: O_3  and  C_4 
REMARK    3  A    between atoms: C_7  and  C_8 
REMARK    4  A    between atoms: C_8  and  C_9 
REMARK    5  A    between atoms: C_10  and  C_11 
REMARK    6  A    between atoms: C_14  and  N_15 
REMARK    7  A    between atoms: N_20  and  C_21 
REMARK    8  A    between atoms: C_21  and  C_22 
REMARK    9  A    between atoms: C_22  and  N_23 
REMARK   10  A    between atoms: C_34  and  O_35 
ROOT
HETATM    1  C   UNL     1      -6.224   1.164 -33.529  1.00  0.00     0.059 C 
HETATM    2  C   UNL     1      -5.525   2.444 -33.192  1.00  0.00     0.161 C 
HETATM    3  N   UNL     1      -4.475   1.951 -32.301  1.00  0.00    -0.332 N 
HETATM    4  C   UNL     1      -4.741   0.654 -31.897  1.00  0.00     0.278 C 
HETATM    5  O   UNL     1      -4.165   0.076 -30.992  1.00  0.00    -0.265 OA
HETATM    6  C   UNL     1      -5.808   0.135 -32.774  1.00  0.00     0.146 C 
ENDROOT
BRANCH   1   7
HETATM    7  C   UNL     1      -7.315   0.977 -34.503  1.00  0.00     0.193 C 
HETATM    8  O   UNL     1      -7.061   0.540 -35.622  1.00  0.00    -0.287 OA
BRANCH   7   9
HETATM    9  C   UNL     1      -8.708   1.266 -34.116  1.00  0.00     0.015 A 
HETATM   10  C   UNL     1      -9.493   0.331 -33.435  1.00  0.00     0.018 A 
HETATM   11  C   UNL     1     -10.817   0.641 -33.099  1.00  0.00     0.038 A 
HETATM   12  C   UNL     1     -11.349   1.890 -33.420  1.00  0.00     0.069 A 
HETATM   13  C   UNL     1     -10.541   2.832 -34.063  1.00  0.00     0.038 A 
HETATM   14  C   UNL     1      -9.224   2.529 -34.410  1.00  0.00     0.018 A 
BRANCH  12  15
HETATM   15  O   UNL     1     -12.609   2.336 -33.144  1.00  0.00    -0.347 OA
BRANCH  15  16
HETATM   16  C   UNL     1     -13.718   1.433 -33.179  1.00  0.00     0.120 C 
HETATM   17  C   UNL     1     -14.064   1.103 -34.629  1.00  0.00     0.040 C 
HETATM   18  C   UNL     1     -14.890   2.145 -32.509  1.00  0.00     0.040 C 
ENDBRANCH  15  16
ENDBRANCH  12  15
ENDBRANCH   7   9
ENDBRANCH   1   7
BRANCH   2  19
HETATM   19  C   UNL     1      -6.428   3.463 -32.514  1.00  0.00    -0.030 A 
HETATM   20  C   UNL     1      -7.157   3.149 -31.349  1.00  0.00     0.012 A 
HETATM   21  C   UNL     1      -8.007   4.088 -30.758  1.00  0.00     0.037 A 
HETATM   22  C   UNL     1      -8.144   5.355 -31.333  1.00  0.00     0.102 A 
HETATM   23  C   UNL     1      -7.437   5.685 -32.495  1.00  0.00     0.037 A 
HETATM   24  C   UNL     1      -6.582   4.743 -33.077  1.00  0.00     0.012 A 
BRANCH  22  25
HETATM   25  N   UNL     1      -9.024   6.347 -30.706  1.00  0.00    -0.116 N 
HETATM   26  O   UNL     1      -9.305   7.356 -31.370  1.00  0.00    -0.532 OA
HETATM   27  O   UNL     1      -9.452   6.099 -29.573  1.00  0.00    -0.532 OA
ENDBRANCH  22  25
ENDBRANCH   2  19
BRANCH   6  28
HETATM   28  O   UNL     1      -6.248  -1.156 -32.752  1.00  0.00    -0.355 OA
HETATM   29  H   UNL     1      -5.560  -1.698 -32.297  1.00  0.00     0.218 HD
ENDBRANCH   6  28
BRANCH   3  30
HETATM   30  C   UNL     1      -3.493   2.809 -31.647  1.00  0.00     0.155 C 
BRANCH  30  31
HETATM   31  C   UNL     1      -2.797   3.788 -32.635  1.00  0.00     0.254 C 
BRANCH  31  32
HETATM   32  N   UNL     1      -3.079   5.274 -32.378  1.00  0.00    -0.066 N 
HETATM   33  H   UNL     1      -4.029   5.288 -31.970  1.00  0.00     0.280 HD
HETATM   34  C   UNL     1      -3.177   6.065 -33.695  1.00  0.00     0.262 C 
HETATM   35  C   UNL     1      -1.782   6.441 -34.261  1.00  0.00     0.260 C 
HETATM   36  N   UNL     1      -0.967   7.184 -33.237  1.00  0.00    -0.072 N 
HETATM   37  H   UNL     1      -1.332   8.138 -33.080  1.00  0.00     0.277 HD
HETATM   38  H   UNL     1      -0.018   7.340 -33.622  1.00  0.00     0.277 HD
HETATM   39  C   UNL     1      -0.810   6.443 -31.935  1.00  0.00     0.260 C 
HETATM   40  C   UNL     1      -2.175   5.991 -31.362  1.00  0.00     0.262 C 
ENDBRANCH  31  32
ENDBRANCH  30  31
ENDBRANCH   3  30
TORSDOF 10
ENDMDL
