MODEL 1
REMARK VINA RESULT:      -8.3      0.000      0.000
REMARK  8 active torsions:
REMARK  status: ('A' for Active; 'I' for Inactive)
REMARK    1  A    between atoms: C_2  and  C_3 
REMARK    2  A    between atoms: C_3  and  O_4 
REMARK    3  A    between atoms: O_4  and  C_5 
REMARK    4  A    between atoms: C_8  and  C_9 
REMARK    5  A    between atoms: N_10  and  N_11 
REMARK       I    between atoms: N_11  and  C_12 
REMARK    6  A    between atoms: C_12  and  C_13 
REMARK    7  A    between atoms: C_17  and  C_18 
REMARK    8  A    between atoms: C_21  and  O_22 
ROOT
HETATM    1  N   UNL     1      -7.234   5.325 -33.851  1.00  0.00    -0.242 N 
HETATM    2  C   UNL     1      -8.100   4.241 -33.954  1.00  0.00     0.289 C 
HETATM    3  O   UNL     1      -9.252   4.431 -34.342  1.00  0.00    -0.264 OA
HETATM    4  H   UNL     1      -7.641   6.229 -34.067  1.00  0.00     0.192 HD
ENDROOT
BRANCH   2   5
HETATM    5  C   UNL     1      -7.598   2.940 -33.581  1.00  0.00     0.121 A 
HETATM    6  N   UNL     1      -7.699   2.399 -32.334  1.00  0.00    -0.272 N 
HETATM    7  H   UNL     1      -8.157   2.834 -31.538  1.00  0.00     0.189 HD
HETATM    8  N   UNL     1      -7.188   1.168 -32.211  1.00  0.00    -0.174 NA
HETATM    9  C   UNL     1      -6.737   0.874 -33.442  1.00  0.00     0.089 A 
HETATM   10  C   UNL     1      -6.939   1.977 -34.320  1.00  0.00     0.071 A 
BRANCH   9  11
HETATM   11  C   UNL     1      -6.156  -0.437 -33.742  1.00  0.00    -0.005 A 
HETATM   12  C   UNL     1      -4.811  -0.712 -33.471  1.00  0.00     0.016 A 
HETATM   13  C   UNL     1      -4.263  -1.957 -33.800  1.00  0.00     0.037 A 
HETATM   14  C   UNL     1      -5.046  -2.948 -34.398  1.00  0.00     0.068 A 
HETATM   15  C   UNL     1      -6.387  -2.683 -34.669  1.00  0.00     0.037 A 
HETATM   16  C   UNL     1      -6.935  -1.435 -34.345  1.00  0.00     0.016 A 
BRANCH  14  17
HETATM   17  O   UNL     1      -4.384  -4.113 -34.670  1.00  0.00    -0.356 OA
HETATM   18  C   UNL     1      -3.808  -4.795 -33.563  1.00  0.00     0.210 C 
ENDBRANCH  14  17
ENDBRANCH   9  11
ENDBRANCH   2   5
BRANCH   1  19
HETATM   19  N   UNL     1      -6.032   5.245 -33.211  1.00  0.00    -0.184 NA
HETATM   20  C   UNL     1      -4.982   5.105 -33.954  1.00  0.00     0.150 C 
BRANCH  20  21
HETATM   21  C   UNL     1      -3.636   5.081 -33.345  1.00  0.00    -0.017 A 
HETATM   22  C   UNL     1      -2.551   5.663 -34.010  1.00  0.00     0.016 A 
HETATM   23  C   UNL     1      -1.277   5.632 -33.440  1.00  0.00     0.037 A 
HETATM   24  C   UNL     1      -1.077   5.017 -32.204  1.00  0.00     0.068 A 
HETATM   25  C   UNL     1      -2.165   4.427 -31.549  1.00  0.00     0.037 A 
HETATM   26  C   UNL     1      -3.445   4.456 -32.113  1.00  0.00     0.016 A 
BRANCH  24  27
HETATM   27  O   UNL     1       0.118   4.920 -31.545  1.00  0.00    -0.351 OA
BRANCH  27  28
HETATM   28  C   UNL     1       0.156   5.433 -30.210  1.00  0.00     0.175 C 
BRANCH  28  29
HETATM   29  C   UNL     1       0.260   6.952 -30.283  1.00  0.00     0.022 C 
HETATM   30  C   UNL     1       0.690   7.547 -28.955  1.00  0.00     0.007 C 
ENDBRANCH  28  29
ENDBRANCH  27  28
ENDBRANCH  24  27
ENDBRANCH  20  21
ENDBRANCH   1  19
TORSDOF 8
ENDMDL
MODEL 2
REMARK VINA RESULT:      -8.1      2.217      7.986
REMARK  8 active torsions:
REMARK  status: ('A' for Active; 'I' for Inactive)
REMARK    1  A    between atoms: C_2  and  C_3 
REMARK    2  A    between atoms: C_3  and  O_4 
REMARK    3  A    between atoms: O_4  and  C_5 
REMARK    4  A    between atoms: C_8  and  C_9 
REMARK    5  A    between atoms: N_10  and  N_11 
REMARK       I    between atoms: N_11  and  C_12 
REMARK    6  A    between atoms: C_12  and  C_13 
REMARK    7  A    between atoms: C_17  and  C_18 
REMARK    8  A    between atoms: C_21  and  O_22 
ROOT
HETATM    1  N   UNL     1      -9.676   1.837 -30.892  1.00  0.00    -0.242 N 
HETATM    2  C   UNL     1      -9.227   3.105 -30.534  1.00  0.00     0.289 C 
HETATM    3  O   UNL     1     -10.049   4.002 -30.354  1.00  0.00    -0.264 OA
HETATM    4  H   UNL     1     -10.679   1.753 -31.027  1.00  0.00     0.192 HD
ENDROOT
BRANCH   2   5
HETATM    5  C   UNL     1      -7.802   3.303 -30.408  1.00  0.00     0.121 A 
HETATM    6  N   UNL     1      -6.993   2.597 -29.569  1.00  0.00    -0.272 N 
HETATM    7  H   UNL     1      -7.292   1.841 -28.960  1.00  0.00     0.189 HD
HETATM    8  N   UNL     1      -5.697   2.925 -29.629  1.00  0.00    -0.174 NA
HETATM    9  C   UNL     1      -5.643   3.887 -30.565  1.00  0.00     0.089 A 
HETATM   10  C   UNL     1      -6.951   4.181 -31.048  1.00  0.00     0.071 A 
BRANCH   9  11
HETATM   11  C   UNL     1      -4.365   4.472 -30.978  1.00  0.00    -0.005 A 
HETATM   12  C   UNL     1      -4.076   5.821 -30.740  1.00  0.00     0.016 A 
HETATM   13  C   UNL     1      -2.866   6.372 -31.176  1.00  0.00     0.037 A 
HETATM   14  C   UNL     1      -1.924   5.590 -31.849  1.00  0.00     0.068 A 
HETATM   15  C   UNL     1      -2.203   4.245 -32.086  1.00  0.00     0.037 A 
HETATM   16  C   UNL     1      -3.416   3.694 -31.656  1.00  0.00     0.016 A 
BRANCH  14  17
HETATM   17  O   UNL     1      -0.789   6.255 -32.222  1.00  0.00    -0.356 OA
HETATM   18  C   UNL     1       0.096   6.644 -31.179  1.00  0.00     0.210 C 
ENDBRANCH  14  17
ENDBRANCH   9  11
ENDBRANCH   2   5
BRANCH   1  19
HETATM   19  N   UNL     1      -8.837   0.860 -31.340  1.00  0.00    -0.184 NA
HETATM   20  C   UNL     1      -8.393   0.980 -32.549  1.00  0.00     0.150 C 
BRANCH  20  21
HETATM   21  C   UNL     1      -7.423   0.002 -33.087  1.00  0.00    -0.017 A 
HETATM   22  C   UNL     1      -6.182  -0.174 -32.464  1.00  0.00     0.016 A 
HETATM   23  C   UNL     1      -5.261  -1.090 -32.978  1.00  0.00     0.037 A 
HETATM   24  C   UNL     1      -5.572  -1.832 -34.117  1.00  0.00     0.068 A 
HETATM   25  C   UNL     1      -6.811  -1.642 -34.741  1.00  0.00     0.037 A 
HETATM   26  C   UNL     1      -7.740  -0.728 -34.232  1.00  0.00     0.016 A 
BRANCH  24  27
HETATM   27  O   UNL     1      -4.758  -2.755 -34.714  1.00  0.00    -0.351 OA
BRANCH  27  28
HETATM   28  C   UNL     1      -5.365  -3.993 -35.095  1.00  0.00     0.175 C 
BRANCH  28  29
HETATM   29  C   UNL     1      -4.826  -5.090 -34.185  1.00  0.00     0.022 C 
HETATM   30  C   UNL     1      -3.433  -4.762 -33.677  1.00  0.00     0.007 C 
ENDBRANCH  28  29
ENDBRANCH  27  28
ENDBRANCH  24  27
ENDBRANCH  20  21
ENDBRANCH   1  19
TORSDOF 8
ENDMDL
MODEL 3
REMARK VINA RESULT:      -7.7      1.306      1.929
REMARK  8 active torsions:
REMARK  status: ('A' for Active; 'I' for Inactive)
REMARK    1  A    between atoms: C_2  and  C_3 
REMARK    2  A    between atoms: C_3  and  O_4 
REMARK    3  A    between atoms: O_4  and  C_5 
REMARK    4  A    between atoms: C_8  and  C_9 
REMARK    5  A    between atoms: N_10  and  N_11 
REMARK       I    between atoms: N_11  and  C_12 
REMARK    6  A    between atoms: C_12  and  C_13 
REMARK    7  A    between atoms: C_17  and  C_18 
REMARK    8  A    between atoms: C_21  and  O_22 
ROOT
HETATM    1  N   UNL     1      -8.829   4.592 -34.108  1.00  0.00    -0.242 N 
HETATM    2  C   UNL     1      -9.332   3.431 -33.528  1.00  0.00     0.289 C 
HETATM    3  O   UNL     1     -10.529   3.371 -33.251  1.00  0.00    -0.264 OA
HETATM    4  H   UNL     1      -9.500   5.345 -34.225  1.00  0.00     0.192 HD
ENDROOT
BRANCH   2   5
HETATM    5  C   UNL     1      -8.406   2.356 -33.263  1.00  0.00     0.121 A 
HETATM    6  N   UNL     1      -7.843   2.099 -32.048  1.00  0.00    -0.272 N 
HETATM    7  H   UNL     1      -8.028   2.615 -31.192  1.00  0.00     0.189 HD
HETATM    8  N   UNL     1      -7.030   1.036 -32.018  1.00  0.00    -0.174 NA
HETATM    9  C   UNL     1      -7.066   0.557 -33.272  1.00  0.00     0.089 A 
HETATM   10  C   UNL     1      -7.887   1.383 -34.094  1.00  0.00     0.071 A 
BRANCH   9  11
HETATM   11  C   UNL     1      -6.346  -0.665 -33.637  1.00  0.00    -0.005 A 
HETATM   12  C   UNL     1      -7.002  -1.730 -34.265  1.00  0.00     0.016 A 
HETATM   13  C   UNL     1      -6.308  -2.906 -34.571  1.00  0.00     0.037 A 
HETATM   14  C   UNL     1      -4.952  -3.038 -34.263  1.00  0.00     0.068 A 
HETATM   15  C   UNL     1      -4.291  -1.980 -33.642  1.00  0.00     0.037 A 
HETATM   16  C   UNL     1      -4.986  -0.805 -33.329  1.00  0.00     0.016 A 
BRANCH  14  17
HETATM   17  O   UNL     1      -4.399  -4.239 -34.613  1.00  0.00    -0.356 OA
HETATM   18  C   UNL     1      -3.471  -4.806 -33.697  1.00  0.00     0.210 C 
ENDBRANCH  14  17
ENDBRANCH   9  11
ENDBRANCH   2   5
BRANCH   1  19
HETATM   19  N   UNL     1      -7.492   4.835 -34.225  1.00  0.00    -0.184 NA
HETATM   20  C   UNL     1      -6.929   5.480 -33.254  1.00  0.00     0.150 C 
BRANCH  20  21
HETATM   21  C   UNL     1      -5.471   5.723 -33.269  1.00  0.00    -0.017 A 
HETATM   22  C   UNL     1      -4.678   5.187 -34.290  1.00  0.00     0.016 A 
HETATM   23  C   UNL     1      -3.299   5.406 -34.298  1.00  0.00     0.037 A 
HETATM   24  C   UNL     1      -2.703   6.159 -33.287  1.00  0.00     0.068 A 
HETATM   25  C   UNL     1      -3.502   6.683 -32.263  1.00  0.00     0.037 A 
HETATM   26  C   UNL     1      -4.884   6.469 -32.248  1.00  0.00     0.016 A 
BRANCH  24  27
HETATM   27  O   UNL     1      -1.369   6.442 -33.184  1.00  0.00    -0.351 OA
BRANCH  27  28
HETATM   28  C   UNL     1      -0.994   7.409 -32.199  1.00  0.00     0.175 C 
BRANCH  28  29
HETATM   29  C   UNL     1       0.191   6.859 -31.415  1.00  0.00     0.022 C 
HETATM   30  C   UNL     1       0.134   5.346 -31.303  1.00  0.00     0.007 C 
ENDBRANCH  28  29
ENDBRANCH  27  28
ENDBRANCH  24  27
ENDBRANCH  20  21
ENDBRANCH   1  19
TORSDOF 8
ENDMDL
MODEL 4
REMARK VINA RESULT:      -7.7      2.183      3.029
REMARK  8 active torsions:
REMARK  status: ('A' for Active; 'I' for Inactive)
REMARK    1  A    between atoms: C_2  and  C_3 
REMARK    2  A    between atoms: C_3  and  O_4 
REMARK    3  A    between atoms: O_4  and  C_5 
REMARK    4  A    between atoms: C_8  and  C_9 
REMARK    5  A    between atoms: N_10  and  N_11 
REMARK       I    between atoms: N_11  and  C_12 
REMARK    6  A    between atoms: C_12  and  C_13 
REMARK    7  A    between atoms: C_17  and  C_18 
REMARK    8  A    between atoms: C_21  and  O_22 
ROOT
HETATM    1  N   UNL     1      -9.937   3.139 -32.989  1.00  0.00    -0.242 N 
HETATM    2  C   UNL     1     -10.236   1.814 -33.291  1.00  0.00     0.289 C 
HETATM    3  O   UNL     1     -11.362   1.383 -33.045  1.00  0.00    -0.264 OA
HETATM    4  H   UNL     1     -10.680   3.659 -32.533  1.00  0.00     0.192 HD
ENDROOT
BRANCH   2   5
HETATM    5  C   UNL     1      -9.189   1.003 -33.866  1.00  0.00     0.121 A 
HETATM    6  N   UNL     1      -8.545   1.283 -35.034  1.00  0.00    -0.272 N 
HETATM    7  H   UNL     1      -8.709   2.099 -35.616  1.00  0.00     0.189 HD
HETATM    8  N   UNL     1      -7.588   0.410 -35.372  1.00  0.00    -0.174 NA
HETATM    9  C   UNL     1      -7.589  -0.485 -34.371  1.00  0.00     0.089 A 
HETATM   10  C   UNL     1      -8.608  -0.171 -33.427  1.00  0.00     0.071 A 
BRANCH   9  11
HETATM   11  C   UNL     1      -6.619  -1.583 -34.336  1.00  0.00    -0.005 A 
HETATM   12  C   UNL     1      -5.311  -1.377 -33.882  1.00  0.00     0.016 A 
HETATM   13  C   UNL     1      -4.387  -2.428 -33.892  1.00  0.00     0.037 A 
HETATM   14  C   UNL     1      -4.750  -3.698 -34.347  1.00  0.00     0.068 A 
HETATM   15  C   UNL     1      -6.052  -3.911 -34.796  1.00  0.00     0.037 A 
HETATM   16  C   UNL     1      -6.976  -2.859 -34.793  1.00  0.00     0.016 A 
BRANCH  14  17
HETATM   17  O   UNL     1      -3.750  -4.629 -34.306  1.00  0.00    -0.356 OA
HETATM   18  C   UNL     1      -3.088  -4.802 -33.059  1.00  0.00     0.210 C 
ENDBRANCH  14  17
ENDBRANCH   9  11
ENDBRANCH   2   5
BRANCH   1  19
HETATM   19  N   UNL     1      -8.663   3.626 -33.003  1.00  0.00    -0.184 NA
HETATM   20  C   UNL     1      -8.078   3.764 -31.857  1.00  0.00     0.150 C 
BRANCH  20  21
HETATM   21  C   UNL     1      -6.673   4.218 -31.788  1.00  0.00    -0.017 A 
HETATM   22  C   UNL     1      -6.295   5.429 -32.379  1.00  0.00     0.016 A 
HETATM   23  C   UNL     1      -4.966   5.854 -32.325  1.00  0.00     0.037 A 
HETATM   24  C   UNL     1      -4.006   5.072 -31.683  1.00  0.00     0.068 A 
HETATM   25  C   UNL     1      -4.390   3.856 -31.103  1.00  0.00     0.037 A 
HETATM   26  C   UNL     1      -5.719   3.424 -31.152  1.00  0.00     0.016 A 
BRANCH  24  27
HETATM   27  O   UNL     1      -2.678   5.377 -31.564  1.00  0.00    -0.351 OA
BRANCH  27  28
HETATM   28  C   UNL     1      -1.774   4.635 -32.386  1.00  0.00     0.175 C 
BRANCH  28  29
HETATM   29  C   UNL     1      -1.321   5.533 -33.531  1.00  0.00     0.022 C 
HETATM   30  C   UNL     1      -1.912   5.090 -34.858  1.00  0.00     0.007 C 
ENDBRANCH  28  29
ENDBRANCH  27  28
ENDBRANCH  24  27
ENDBRANCH  20  21
ENDBRANCH   1  19
TORSDOF 8
ENDMDL
MODEL 5
REMARK VINA RESULT:      -7.7      3.900      7.640
REMARK  8 active torsions:
REMARK  status: ('A' for Active; 'I' for Inactive)
REMARK    1  A    between atoms: C_2  and  C_3 
REMARK    2  A    between atoms: C_3  and  O_4 
REMARK    3  A    between atoms: O_4  and  C_5 
REMARK    4  A    between atoms: C_8  and  C_9 
REMARK    5  A    between atoms: N_10  and  N_11 
REMARK       I    between atoms: N_11  and  C_12 
REMARK    6  A    between atoms: C_12  and  C_13 
REMARK    7  A    between atoms: C_17  and  C_18 
REMARK    8  A    between atoms: C_21  and  O_22 
ROOT
HETATM    1  N   UNL     1      -4.898   3.305 -30.153  1.00  0.00    -0.242 N 
HETATM    2  C   UNL     1      -6.114   3.981 -30.141  1.00  0.00     0.289 C 
HETATM    3  O   UNL     1      -6.397   4.686 -29.173  1.00  0.00    -0.264 OA
HETATM    4  H   UNL     1      -4.333   3.411 -29.316  1.00  0.00     0.192 HD
ENDROOT
BRANCH   2   5
HETATM    5  C   UNL     1      -6.995   3.801 -31.270  1.00  0.00     0.121 A 
HETATM    6  N   UNL     1      -6.704   4.178 -32.548  1.00  0.00    -0.272 N 
HETATM    7  H   UNL     1      -5.833   4.602 -32.852  1.00  0.00     0.189 HD
HETATM    8  N   UNL     1      -7.653   3.895 -33.448  1.00  0.00    -0.174 NA
HETATM    9  C   UNL     1      -8.616   3.288 -32.733  1.00  0.00     0.089 A 
HETATM   10  C   UNL     1      -8.257   3.248 -31.355  1.00  0.00     0.071 A 
BRANCH   9  11
HETATM   11  C   UNL     1      -9.817   2.755 -33.380  1.00  0.00    -0.005 A 
HETATM   12  C   UNL     1     -10.569   3.537 -34.264  1.00  0.00     0.016 A 
HETATM   13  C   UNL     1     -11.736   3.025 -34.843  1.00  0.00     0.037 A 
HETATM   14  C   UNL     1     -12.169   1.728 -34.555  1.00  0.00     0.068 A 
HETATM   15  C   UNL     1     -11.423   0.942 -33.678  1.00  0.00     0.037 A 
HETATM   16  C   UNL     1     -10.259   1.456 -33.094  1.00  0.00     0.016 A 
BRANCH  14  17
HETATM   17  O   UNL     1     -13.325   1.358 -35.185  1.00  0.00    -0.356 OA
HETATM   18  C   UNL     1     -14.357   0.826 -34.364  1.00  0.00     0.210 C 
ENDBRANCH  14  17
ENDBRANCH   9  11
ENDBRANCH   2   5
BRANCH   1  19
HETATM   19  N   UNL     1      -4.611   2.326 -31.059  1.00  0.00    -0.184 NA
HETATM   20  C   UNL     1      -5.145   1.166 -30.853  1.00  0.00     0.150 C 
BRANCH  20  21
HETATM   21  C   UNL     1      -4.942   0.070 -31.825  1.00  0.00    -0.017 A 
HETATM   22  C   UNL     1      -3.883  -0.830 -31.661  1.00  0.00     0.016 A 
HETATM   23  C   UNL     1      -3.684  -1.858 -32.585  1.00  0.00     0.037 A 
HETATM   24  C   UNL     1      -4.539  -1.992 -33.679  1.00  0.00     0.068 A 
HETATM   25  C   UNL     1      -5.590  -1.081 -33.842  1.00  0.00     0.037 A 
HETATM   26  C   UNL     1      -5.797  -0.050 -32.920  1.00  0.00     0.016 A 
BRANCH  24  27
HETATM   27  O   UNL     1      -4.448  -2.953 -34.648  1.00  0.00    -0.351 OA
BRANCH  27  28
HETATM   28  C   UNL     1      -4.087  -4.267 -34.216  1.00  0.00     0.175 C 
BRANCH  28  29
HETATM   29  C   UNL     1      -5.216  -5.221 -34.590  1.00  0.00     0.022 C 
HETATM   30  C   UNL     1      -6.309  -4.515 -35.372  1.00  0.00     0.007 C 
ENDBRANCH  28  29
ENDBRANCH  27  28
ENDBRANCH  24  27
ENDBRANCH  20  21
ENDBRANCH   1  19
TORSDOF 8
ENDMDL
MODEL 6
REMARK VINA RESULT:      -7.7      1.788      2.151
REMARK  8 active torsions:
REMARK  status: ('A' for Active; 'I' for Inactive)
REMARK    1  A    between atoms: C_2  and  C_3 
REMARK    2  A    between atoms: C_3  and  O_4 
REMARK    3  A    between atoms: O_4  and  C_5 
REMARK    4  A    between atoms: C_8  and  C_9 
REMARK    5  A    between atoms: N_10  and  N_11 
REMARK       I    between atoms: N_11  and  C_12 
REMARK    6  A    between atoms: C_12  and  C_13 
REMARK    7  A    between atoms: C_17  and  C_18 
REMARK    8  A    between atoms: C_21  and  O_22 
ROOT
HETATM    1  N   UNL     1      -8.415   4.467 -30.580  1.00  0.00    -0.242 N 
HETATM    2  C   UNL     1      -9.048   3.253 -30.831  1.00  0.00     0.289 C 
HETATM    3  O   UNL     1     -10.065   2.968 -30.200  1.00  0.00    -0.264 OA
HETATM    4  H   UNL     1      -8.826   5.026 -29.839  1.00  0.00     0.192 HD
ENDROOT
BRANCH   2   5
HETATM    5  C   UNL     1      -8.460   2.379 -31.818  1.00  0.00     0.121 A 
HETATM    6  N   UNL     1      -8.412   2.640 -33.155  1.00  0.00    -0.272 N 
HETATM    7  H   UNL     1      -8.759   3.483 -33.603  1.00  0.00     0.189 HD
HETATM    8  N   UNL     1      -7.797   1.705 -33.889  1.00  0.00    -0.174 NA
HETATM    9  C   UNL     1      -7.407   0.784 -32.992  1.00  0.00     0.089 A 
HETATM   10  C   UNL     1      -7.841   1.152 -31.685  1.00  0.00     0.071 A 
BRANCH   9  11
HETATM   11  C   UNL     1      -6.626  -0.386 -33.399  1.00  0.00    -0.005 A 
HETATM   12  C   UNL     1      -5.272  -0.504 -33.065  1.00  0.00     0.016 A 
HETATM   13  C   UNL     1      -4.532  -1.611 -33.495  1.00  0.00     0.037 A 
HETATM   14  C   UNL     1      -5.127  -2.618 -34.258  1.00  0.00     0.068 A 
HETATM   15  C   UNL     1      -6.476  -2.510 -34.591  1.00  0.00     0.037 A 
HETATM   16  C   UNL     1      -7.217  -1.400 -34.167  1.00  0.00     0.016 A 
BRANCH  14  17
HETATM   17  O   UNL     1      -4.289  -3.638 -34.614  1.00  0.00    -0.356 OA
HETATM   18  C   UNL     1      -4.700  -4.955 -34.266  1.00  0.00     0.210 C 
ENDBRANCH  14  17
ENDBRANCH   9  11
ENDBRANCH   2   5
BRANCH   1  19
HETATM   19  N   UNL     1      -7.168   4.755 -31.050  1.00  0.00    -0.184 NA
HETATM   20  C   UNL     1      -6.167   4.267 -30.391  1.00  0.00     0.150 C 
BRANCH  20  21
HETATM   21  C   UNL     1      -4.785   4.473 -30.874  1.00  0.00    -0.017 A 
HETATM   22  C   UNL     1      -4.037   3.391 -31.351  1.00  0.00     0.016 A 
HETATM   23  C   UNL     1      -2.728   3.584 -31.797  1.00  0.00     0.037 A 
HETATM   24  C   UNL     1      -2.157   4.855 -31.768  1.00  0.00     0.068 A 
HETATM   25  C   UNL     1      -2.908   5.932 -31.279  1.00  0.00     0.037 A 
HETATM   26  C   UNL     1      -4.221   5.748 -30.832  1.00  0.00     0.016 A 
BRANCH  24  27
HETATM   27  O   UNL     1      -0.890   5.171 -32.175  1.00  0.00    -0.351 OA
BRANCH  27  28
HETATM   28  C   UNL     1       0.107   5.258 -31.154  1.00  0.00     0.175 C 
BRANCH  28  29
HETATM   29  C   UNL     1       0.569   6.707 -31.058  1.00  0.00     0.022 C 
HETATM   30  C   UNL     1       0.371   7.266 -29.660  1.00  0.00     0.007 C 
ENDBRANCH  28  29
ENDBRANCH  27  28
ENDBRANCH  24  27
ENDBRANCH  20  21
ENDBRANCH   1  19
TORSDOF 8
ENDMDL
MODEL 7
REMARK VINA RESULT:      -7.7      3.396      7.584
REMARK  8 active torsions:
REMARK  status: ('A' for Active; 'I' for Inactive)
REMARK    1  A    between atoms: C_2  and  C_3 
REMARK    2  A    between atoms: C_3  and  O_4 
REMARK    3  A    between atoms: O_4  and  C_5 
REMARK    4  A    between atoms: C_8  and  C_9 
REMARK    5  A    between atoms: N_10  and  N_11 
REMARK       I    between atoms: N_11  and  C_12 
REMARK    6  A    between atoms: C_12  and  C_13 
REMARK    7  A    between atoms: C_17  and  C_18 
REMARK    8  A    between atoms: C_21  and  O_22 
ROOT
HETATM    1  N   UNL     1      -7.124   5.147 -32.172  1.00  0.00    -0.242 N 
HETATM    2  C   UNL     1      -5.882   4.529 -32.061  1.00  0.00     0.289 C 
HETATM    3  O   UNL     1      -4.873   5.227 -31.971  1.00  0.00    -0.264 OA
HETATM    4  H   UNL     1      -7.103   6.161 -32.216  1.00  0.00     0.192 HD
ENDROOT
BRANCH   2   5
HETATM    5  C   UNL     1      -5.845   3.086 -32.076  1.00  0.00     0.121 A 
HETATM    6  N   UNL     1      -5.968   2.296 -30.972  1.00  0.00    -0.272 N 
HETATM    7  H   UNL     1      -6.124   2.628 -30.025  1.00  0.00     0.189 HD
HETATM    8  N   UNL     1      -5.931   0.980 -31.215  1.00  0.00    -0.174 NA
HETATM    9  C   UNL     1      -5.788   0.894 -32.548  1.00  0.00     0.089 A 
HETATM   10  C   UNL     1      -5.689   2.195 -33.120  1.00  0.00     0.071 A 
BRANCH   9  11
HETATM   11  C   UNL     1      -5.773  -0.404 -33.226  1.00  0.00    -0.005 A 
HETATM   12  C   UNL     1      -4.627  -1.207 -33.225  1.00  0.00     0.016 A 
HETATM   13  C   UNL     1      -4.618  -2.427 -33.910  1.00  0.00     0.037 A 
HETATM   14  C   UNL     1      -5.749  -2.869 -34.601  1.00  0.00     0.068 A 
HETATM   15  C   UNL     1      -6.896  -2.077 -34.603  1.00  0.00     0.037 A 
HETATM   16  C   UNL     1      -6.904  -0.853 -33.923  1.00  0.00     0.016 A 
BRANCH  14  17
HETATM   17  O   UNL     1      -5.602  -4.074 -35.229  1.00  0.00    -0.356 OA
HETATM   18  C   UNL     1      -4.994  -5.117 -34.478  1.00  0.00     0.210 C 
ENDBRANCH  14  17
ENDBRANCH   9  11
ENDBRANCH   2   5
BRANCH   1  19
HETATM   19  N   UNL     1      -8.255   4.465 -32.514  1.00  0.00    -0.184 NA
HETATM   20  C   UNL     1      -8.704   4.645 -33.714  1.00  0.00     0.150 C 
BRANCH  20  21
HETATM   21  C   UNL     1      -9.884   3.890 -34.188  1.00  0.00    -0.017 A 
HETATM   22  C   UNL     1     -10.769   4.468 -35.105  1.00  0.00     0.016 A 
HETATM   23  C   UNL     1     -11.889   3.760 -35.544  1.00  0.00     0.037 A 
HETATM   24  C   UNL     1     -12.135   2.472 -35.069  1.00  0.00     0.068 A 
HETATM   25  C   UNL     1     -11.251   1.904 -34.143  1.00  0.00     0.037 A 
HETATM   26  C   UNL     1     -10.126   2.606 -33.699  1.00  0.00     0.016 A 
BRANCH  24  27
HETATM   27  O   UNL     1     -13.193   1.681 -35.421  1.00  0.00    -0.351 OA
BRANCH  27  28
HETATM   28  C   UNL     1     -13.575   0.669 -34.485  1.00  0.00     0.175 C 
BRANCH  28  29
HETATM   29  C   UNL     1     -15.019   0.923 -34.068  1.00  0.00     0.022 C 
HETATM   30  C   UNL     1     -15.097   1.738 -32.789  1.00  0.00     0.007 C 
ENDBRANCH  28  29
ENDBRANCH  27  28
ENDBRANCH  24  27
ENDBRANCH  20  21
ENDBRANCH   1  19
TORSDOF 8
ENDMDL
MODEL 8
REMARK VINA RESULT:      -7.3     16.481     18.143
REMARK  8 active torsions:
REMARK  status: ('A' for Active; 'I' for Inactive)
REMARK    1  A    between atoms: C_2  and  C_3 
REMARK    2  A    between atoms: C_3  and  O_4 
REMARK    3  A    between atoms: O_4  and  C_5 
REMARK    4  A    between atoms: C_8  and  C_9 
REMARK    5  A    between atoms: N_10  and  N_11 
REMARK       I    between atoms: N_11  and  C_12 
REMARK    6  A    between atoms: C_12  and  C_13 
REMARK    7  A    between atoms: C_17  and  C_18 
REMARK    8  A    between atoms: C_21  and  O_22 
ROOT
HETATM    1  N   UNL     1      -7.844 -13.382 -37.536  1.00  0.00    -0.242 N 
HETATM    2  C   UNL     1      -7.138 -12.968 -38.663  1.00  0.00     0.289 C 
HETATM    3  O   UNL     1      -7.760 -12.674 -39.683  1.00  0.00    -0.264 OA
HETATM    4  H   UNL     1      -8.849 -13.455 -37.656  1.00  0.00     0.192 HD
ENDROOT
BRANCH   2   5
HETATM    5  C   UNL     1      -5.698 -12.923 -38.575  1.00  0.00     0.121 A 
HETATM    6  N   UNL     1      -4.998 -12.132 -37.714  1.00  0.00    -0.272 N 
HETATM    7  H   UNL     1      -5.406 -11.507 -37.025  1.00  0.00     0.189 HD
HETATM    8  N   UNL     1      -3.668 -12.265 -37.781  1.00  0.00    -0.174 NA
HETATM    9  C   UNL     1      -3.478 -13.202 -38.725  1.00  0.00     0.089 A 
HETATM   10  C   UNL     1      -4.726 -13.610 -39.276  1.00  0.00     0.071 A 
BRANCH   9  11
HETATM   11  C   UNL     1      -2.134 -13.687 -39.051  1.00  0.00    -0.005 A 
HETATM   12  C   UNL     1      -1.808 -14.092 -40.350  1.00  0.00     0.016 A 
HETATM   13  C   UNL     1      -0.531 -14.589 -40.636  1.00  0.00     0.037 A 
HETATM   14  C   UNL     1       0.440 -14.685 -39.636  1.00  0.00     0.068 A 
HETATM   15  C   UNL     1       0.124 -14.279 -38.340  1.00  0.00     0.037 A 
HETATM   16  C   UNL     1      -1.156 -13.788 -38.052  1.00  0.00     0.016 A 
BRANCH  14  17
HETATM   17  O   UNL     1       1.641 -15.191 -40.051  1.00  0.00    -0.356 OA
HETATM   18  C   UNL     1       2.331 -16.031 -39.134  1.00  0.00     0.210 C 
ENDBRANCH  14  17
ENDBRANCH   9  11
ENDBRANCH   2   5
BRANCH   1  19
HETATM   19  N   UNL     1      -7.235 -13.949 -36.456  1.00  0.00    -0.184 NA
HETATM   20  C   UNL     1      -7.352 -13.328 -35.327  1.00  0.00     0.150 C 
BRANCH  20  21
HETATM   21  C   UNL     1      -6.782 -13.911 -34.094  1.00  0.00    -0.017 A 
HETATM   22  C   UNL     1      -7.151 -15.198 -33.688  1.00  0.00     0.016 A 
HETATM   23  C   UNL     1      -6.621 -15.745 -32.517  1.00  0.00     0.037 A 
HETATM   24  C   UNL     1      -5.722 -15.011 -31.744  1.00  0.00     0.068 A 
HETATM   25  C   UNL     1      -5.366 -13.720 -32.151  1.00  0.00     0.037 A 
HETATM   26  C   UNL     1      -5.891 -13.165 -33.323  1.00  0.00     0.016 A 
BRANCH  24  27
HETATM   27  O   UNL     1      -5.138 -15.435 -30.583  1.00  0.00    -0.351 OA
BRANCH  27  28
HETATM   28  C   UNL     1      -5.296 -16.817 -30.253  1.00  0.00     0.175 C 
BRANCH  28  29
HETATM   29  C   UNL     1      -5.356 -16.945 -28.736  1.00  0.00     0.022 C 
HETATM   30  C   UNL     1      -3.998 -16.704 -28.100  1.00  0.00     0.007 C 
ENDBRANCH  28  29
ENDBRANCH  27  28
ENDBRANCH  24  27
ENDBRANCH  20  21
ENDBRANCH   1  19
TORSDOF 8
ENDMDL
MODEL 9
REMARK VINA RESULT:      -7.2      2.413      2.794
REMARK  8 active torsions:
REMARK  status: ('A' for Active; 'I' for Inactive)
REMARK    1  A    between atoms: C_2  and  C_3 
REMARK    2  A    between atoms: C_3  and  O_4 
REMARK    3  A    between atoms: O_4  and  C_5 
REMARK    4  A    between atoms: C_8  and  C_9 
REMARK    5  A    between atoms: N_10  and  N_11 
REMARK       I    between atoms: N_11  and  C_12 
REMARK    6  A    between atoms: C_12  and  C_13 
REMARK    7  A    between atoms: C_17  and  C_18 
REMARK    8  A    between atoms: C_21  and  O_22 
ROOT
HETATM    1  N   UNL     1      -7.679   5.040 -29.954  1.00  0.00    -0.242 N 
HETATM    2  C   UNL     1      -8.310   3.821 -30.187  1.00  0.00     0.289 C 
HETATM    3  O   UNL     1      -9.538   3.766 -30.148  1.00  0.00    -0.264 OA
HETATM    4  H   UNL     1      -8.296   5.810 -29.718  1.00  0.00     0.192 HD
ENDROOT
BRANCH   2   5
HETATM    5  C   UNL     1      -7.476   2.671 -30.448  1.00  0.00     0.121 A 
HETATM    6  N   UNL     1      -6.768   1.996 -29.498  1.00  0.00    -0.272 N 
HETATM    7  H   UNL     1      -6.765   2.208 -28.505  1.00  0.00     0.189 HD
HETATM    8  N   UNL     1      -6.079   0.942 -29.953  1.00  0.00    -0.174 NA
HETATM    9  C   UNL     1      -6.356   0.909 -31.267  1.00  0.00     0.089 A 
HETATM   10  C   UNL     1      -7.197   2.003 -31.623  1.00  0.00     0.071 A 
BRANCH   9  11
HETATM   11  C   UNL     1      -5.837  -0.159 -32.124  1.00  0.00    -0.005 A 
HETATM   12  C   UNL     1      -4.504  -0.577 -32.031  1.00  0.00     0.016 A 
HETATM   13  C   UNL     1      -4.014  -1.572 -32.884  1.00  0.00     0.037 A 
HETATM   14  C   UNL     1      -4.842  -2.170 -33.837  1.00  0.00     0.068 A 
HETATM   15  C   UNL     1      -6.172  -1.761 -33.934  1.00  0.00     0.037 A 
HETATM   16  C   UNL     1      -6.661  -0.761 -33.085  1.00  0.00     0.016 A 
BRANCH  14  17
HETATM   17  O   UNL     1      -4.235  -3.123 -34.607  1.00  0.00    -0.356 OA
HETATM   18  C   UNL     1      -4.187  -4.440 -34.073  1.00  0.00     0.210 C 
ENDBRANCH  14  17
ENDBRANCH   9  11
ENDBRANCH   2   5
BRANCH   1  19
HETATM   19  N   UNL     1      -6.336   5.142 -29.742  1.00  0.00    -0.184 NA
HETATM   20  C   UNL     1      -5.685   5.959 -30.506  1.00  0.00     0.150 C 
BRANCH  20  21
HETATM   21  C   UNL     1      -4.238   6.182 -30.296  1.00  0.00    -0.017 A 
HETATM   22  C   UNL     1      -3.796   6.992 -29.244  1.00  0.00     0.016 A 
HETATM   23  C   UNL     1      -2.430   7.211 -29.052  1.00  0.00     0.037 A 
HETATM   24  C   UNL     1      -1.499   6.627 -29.909  1.00  0.00     0.068 A 
HETATM   25  C   UNL     1      -1.949   5.825 -30.965  1.00  0.00     0.037 A 
HETATM   26  C   UNL     1      -3.315   5.599 -31.164  1.00  0.00     0.016 A 
BRANCH  24  27
HETATM   27  O   UNL     1      -0.141   6.766 -29.825  1.00  0.00    -0.351 OA
BRANCH  27  28
HETATM   28  C   UNL     1       0.465   6.403 -28.581  1.00  0.00     0.175 C 
BRANCH  28  29
HETATM   29  C   UNL     1       1.071   7.656 -27.961  1.00  0.00     0.022 C 
HETATM   30  C   UNL     1       1.039   7.602 -26.444  1.00  0.00     0.007 C 
ENDBRANCH  28  29
ENDBRANCH  27  28
ENDBRANCH  24  27
ENDBRANCH  20  21
ENDBRANCH   1  19
TORSDOF 8
ENDMDL
MODEL 10
REMARK VINA RESULT:      -7.2      3.644      9.620
REMARK  8 active torsions:
REMARK  status: ('A' for Active; 'I' for Inactive)
REMARK    1  A    between atoms: C_2  and  C_3 
REMARK    2  A    between atoms: C_3  and  O_4 
REMARK    3  A    between atoms: O_4  and  C_5 
REMARK    4  A    between atoms: C_8  and  C_9 
REMARK    5  A    between atoms: N_10  and  N_11 
REMARK       I    between atoms: N_11  and  C_12 
REMARK    6  A    between atoms: C_12  and  C_13 
REMARK    7  A    between atoms: C_17  and  C_18 
REMARK    8  A    between atoms: C_21  and  O_22 
ROOT
HETATM    1  N   UNL     1      -2.786   5.586 -34.869  1.00  0.00    -0.242 N 
HETATM    2  C   UNL     1      -1.511   5.906 -34.409  1.00  0.00     0.289 C 
HETATM    3  O   UNL     1      -0.638   6.202 -35.224  1.00  0.00    -0.264 OA
HETATM    4  H   UNL     1      -2.894   5.578 -35.878  1.00  0.00     0.192 HD
ENDROOT
BRANCH   2   5
HETATM    5  C   UNL     1      -1.278   5.854 -32.986  1.00  0.00     0.121 A 
HETATM    6  N   UNL     1      -1.327   4.718 -32.233  1.00  0.00    -0.272 N 
HETATM    7  H   UNL     1      -1.508   3.784 -32.588  1.00  0.00     0.189 HD
HETATM    8  N   UNL     1      -1.053   4.892 -30.934  1.00  0.00    -0.174 NA
HETATM    9  C   UNL     1      -0.796   6.206 -30.824  1.00  0.00     0.089 A 
HETATM   10  C   UNL     1      -0.967   6.851 -32.082  1.00  0.00     0.071 A 
BRANCH   9  11
HETATM   11  C   UNL     1      -0.381   6.792 -29.547  1.00  0.00    -0.005 A 
HETATM   12  C   UNL     1       0.483   6.107 -28.684  1.00  0.00     0.016 A 
HETATM   13  C   UNL     1       0.838   6.665 -27.451  1.00  0.00     0.037 A 
HETATM   14  C   UNL     1       0.345   7.912 -27.060  1.00  0.00     0.068 A 
HETATM   15  C   UNL     1      -0.513   8.601 -27.915  1.00  0.00     0.037 A 
HETATM   16  C   UNL     1      -0.875   8.042 -29.147  1.00  0.00     0.016 A 
BRANCH  14  17
HETATM   17  O   UNL     1       0.768   8.335 -25.831  1.00  0.00    -0.356 OA
HETATM   18  C   UNL     1       2.173   8.404 -25.627  1.00  0.00     0.210 C 
ENDBRANCH  14  17
ENDBRANCH   9  11
ENDBRANCH   2   5
BRANCH   1  19
HETATM   19  N   UNL     1      -3.734   5.021 -34.069  1.00  0.00    -0.184 NA
HETATM   20  C   UNL     1      -4.846   4.676 -34.636  1.00  0.00     0.150 C 
BRANCH  20  21
HETATM   21  C   UNL     1      -5.898   3.992 -33.854  1.00  0.00    -0.017 A 
HETATM   22  C   UNL     1      -5.588   2.857 -33.097  1.00  0.00     0.016 A 
HETATM   23  C   UNL     1      -6.584   2.205 -32.368  1.00  0.00     0.037 A 
HETATM   24  C   UNL     1      -7.895   2.679 -32.392  1.00  0.00     0.068 A 
HETATM   25  C   UNL     1      -8.200   3.809 -33.160  1.00  0.00     0.037 A 
HETATM   26  C   UNL     1      -7.208   4.469 -33.893  1.00  0.00     0.016 A 
BRANCH  24  27
HETATM   27  O   UNL     1      -8.954   2.129 -31.724  1.00  0.00    -0.351 OA
BRANCH  27  28
HETATM   28  C   UNL     1      -9.010   0.701 -31.676  1.00  0.00     0.175 C 
BRANCH  28  29
HETATM   29  C   UNL     1      -9.511   0.196 -33.024  1.00  0.00     0.022 C 
HETATM   30  C   UNL     1     -10.871   0.776 -33.368  1.00  0.00     0.007 C 
ENDBRANCH  28  29
ENDBRANCH  27  28
ENDBRANCH  24  27
ENDBRANCH  20  21
ENDBRANCH   1  19
TORSDOF 8
ENDMDL
