MODEL 1
REMARK VINA RESULT:      -9.0      0.000      0.000
REMARK  3 active torsions:
REMARK  status: ('A' for Active; 'I' for Inactive)
REMARK    1  A    between atoms: C_2  and  C_3 
REMARK    2  A    between atoms: C_6  and  C_7 
REMARK       I    between atoms: C_7  and  N_8 
REMARK    3  A    between atoms: N_8  and  N_9 
ROOT
HETATM    1  C   UNL     1     -11.477   2.587 -33.830  1.00  0.00    -0.021 A 
HETATM    2  C   UNL     1     -10.452   3.540 -33.996  1.00  0.00     0.011 A 
HETATM    3  C   UNL     1      -9.107   3.161 -34.115  1.00  0.00     0.018 A 
HETATM    4  C   UNL     1      -8.748   1.811 -34.049  1.00  0.00     0.033 A 
HETATM    5  C   UNL     1      -9.759   0.858 -33.867  1.00  0.00     0.018 A 
HETATM    6  C   UNL     1     -11.101   1.238 -33.755  1.00  0.00     0.011 A 
ENDROOT
BRANCH   4   7
HETATM    7  C   UNL     1      -7.348   1.314 -34.207  1.00  0.00     0.266 C 
HETATM    8  N   UNL     1      -7.144  -0.061 -34.095  1.00  0.00    -0.284 N 
HETATM    9  H   UNL     1      -7.925  -0.702 -34.026  1.00  0.00     0.184 HD
HETATM   10  O   UNL     1      -6.453   2.126 -34.430  1.00  0.00    -0.266 OA
BRANCH   8  11
HETATM   11  N   UNL     1      -5.862  -0.651 -34.199  1.00  0.00    -0.220 NA
HETATM   12  C   UNL     1      -5.093  -0.680 -32.927  1.00  0.00     0.153 C 
HETATM   13  C   UNL     1      -4.367  -1.988 -32.931  1.00  0.00    -0.036 A 
HETATM   14  C   UNL     1      -4.817  -2.772 -33.991  1.00  0.00    -0.036 A 
HETATM   15  C   UNL     1      -3.418  -2.461 -32.040  1.00  0.00     0.009 A 
HETATM   16  C   UNL     1      -5.861  -2.029 -34.762  1.00  0.00     0.153 C 
HETATM   17  C   UNL     1      -4.334  -4.055 -34.187  1.00  0.00     0.009 A 
HETATM   18  C   UNL     1      -3.376  -4.545 -33.296  1.00  0.00     0.001 A 
HETATM   19  C   UNL     1      -2.920  -3.752 -32.231  1.00  0.00     0.001 A 
ENDBRANCH   8  11
ENDBRANCH   4   7
BRANCH   1  20
HETATM   20  C   UNL     1     -12.932   3.040 -33.735  1.00  0.00     0.139 A 
HETATM   21  C   UNL     1     -13.112   4.494 -34.172  1.00  0.00     0.054 C 
HETATM   22  N   UNL     1     -13.786   2.154 -34.507  1.00  0.00    -0.321 N 
HETATM   23  C   UNL     1     -14.706   1.493 -33.737  1.00  0.00     0.324 A 
HETATM   24  H   UNL     1     -13.678   1.924 -35.484  1.00  0.00     0.165 HD
HETATM   25  O   UNL     1     -15.498   0.667 -34.153  1.00  0.00    -0.247 OA
HETATM   26  N   UNL     1     -14.587   1.913 -32.461  1.00  0.00    -0.277 N 
HETATM   27  C   UNL     1     -13.602   2.846 -32.351  1.00  0.00     0.258 A 
HETATM   28  H   UNL     1     -15.168   1.597 -31.705  1.00  0.00     0.173 HD
HETATM   29  O   UNL     1     -13.323   3.429 -31.313  1.00  0.00    -0.270 OA
ENDBRANCH   1  20
TORSDOF 3
ENDMDL
MODEL 2
REMARK VINA RESULT:      -9.0      5.838      8.605
REMARK  3 active torsions:
REMARK  status: ('A' for Active; 'I' for Inactive)
REMARK    1  A    between atoms: C_2  and  C_3 
REMARK    2  A    between atoms: C_6  and  C_7 
REMARK       I    between atoms: C_7  and  N_8 
REMARK    3  A    between atoms: N_8  and  N_9 
ROOT
HETATM    1  C   UNL     1      -3.166   5.252 -31.815  1.00  0.00    -0.021 A 
HETATM    2  C   UNL     1      -4.287   5.030 -30.989  1.00  0.00     0.011 A 
HETATM    3  C   UNL     1      -4.856   3.757 -30.848  1.00  0.00     0.018 A 
HETATM    4  C   UNL     1      -4.327   2.668 -31.548  1.00  0.00     0.033 A 
HETATM    5  C   UNL     1      -3.223   2.882 -32.384  1.00  0.00     0.018 A 
HETATM    6  C   UNL     1      -2.653   4.153 -32.520  1.00  0.00     0.011 A 
ENDROOT
BRANCH   4   7
HETATM    7  C   UNL     1      -4.842   1.271 -31.427  1.00  0.00     0.266 C 
HETATM    8  N   UNL     1      -4.609   0.411 -32.499  1.00  0.00    -0.284 N 
HETATM    9  H   UNL     1      -4.018   0.687 -33.273  1.00  0.00     0.184 HD
HETATM   10  O   UNL     1      -5.434   0.946 -30.400  1.00  0.00    -0.266 OA
BRANCH   8  11
HETATM   11  N   UNL     1      -5.069  -0.928 -32.514  1.00  0.00    -0.220 NA
HETATM   12  C   UNL     1      -6.231  -1.169 -33.411  1.00  0.00     0.153 C 
HETATM   13  C   UNL     1      -5.993  -2.516 -34.016  1.00  0.00    -0.036 A 
HETATM   14  C   UNL     1      -4.712  -2.957 -33.693  1.00  0.00    -0.036 A 
HETATM   15  C   UNL     1      -6.828  -3.268 -34.825  1.00  0.00     0.009 A 
HETATM   16  C   UNL     1      -4.024  -1.935 -32.845  1.00  0.00     0.153 C 
HETATM   17  C   UNL     1      -4.226  -4.162 -34.175  1.00  0.00     0.009 A 
HETATM   18  C   UNL     1      -5.059  -4.930 -34.992  1.00  0.00     0.001 A 
HETATM   19  C   UNL     1      -6.352  -4.488 -35.313  1.00  0.00     0.001 A 
ENDBRANCH   8  11
ENDBRANCH   4   7
BRANCH   1  20
HETATM   20  C   UNL     1      -2.559   6.649 -31.918  1.00  0.00     0.139 A 
HETATM   21  C   UNL     1      -3.582   7.745 -31.621  1.00  0.00     0.054 C 
HETATM   22  N   UNL     1      -1.405   6.762 -31.042  1.00  0.00    -0.321 N 
HETATM   23  C   UNL     1      -0.239   7.001 -31.721  1.00  0.00     0.324 A 
HETATM   24  H   UNL     1      -1.389   6.574 -30.050  1.00  0.00     0.165 HD
HETATM   25  O   UNL     1       0.861   7.090 -31.207  1.00  0.00    -0.247 OA
HETATM   26  N   UNL     1      -0.519   7.125 -33.035  1.00  0.00    -0.277 N 
HETATM   27  C   UNL     1      -1.853   6.973 -33.259  1.00  0.00     0.258 A 
HETATM   28  H   UNL     1       0.164   7.330 -33.742  1.00  0.00     0.173 HD
HETATM   29  O   UNL     1      -2.381   7.090 -34.356  1.00  0.00    -0.270 OA
ENDBRANCH   1  20
TORSDOF 3
ENDMDL
MODEL 3
REMARK VINA RESULT:      -8.7      5.830      8.544
REMARK  3 active torsions:
REMARK  status: ('A' for Active; 'I' for Inactive)
REMARK    1  A    between atoms: C_2  and  C_3 
REMARK    2  A    between atoms: C_6  and  C_7 
REMARK       I    between atoms: C_7  and  N_8 
REMARK    3  A    between atoms: N_8  and  N_9 
ROOT
HETATM    1  C   UNL     1      -2.864   5.494 -32.182  1.00  0.00    -0.021 A 
HETATM    2  C   UNL     1      -3.943   5.321 -31.291  1.00  0.00     0.011 A 
HETATM    3  C   UNL     1      -4.525   4.064 -31.076  1.00  0.00     0.018 A 
HETATM    4  C   UNL     1      -4.054   2.943 -31.766  1.00  0.00     0.033 A 
HETATM    5  C   UNL     1      -2.993   3.109 -32.666  1.00  0.00     0.018 A 
HETATM    6  C   UNL     1      -2.409   4.363 -32.875  1.00  0.00     0.011 A 
ENDROOT
BRANCH   4   7
HETATM    7  C   UNL     1      -4.585   1.560 -31.569  1.00  0.00     0.266 C 
HETATM    8  N   UNL     1      -4.461   0.673 -32.637  1.00  0.00    -0.284 N 
HETATM    9  H   UNL     1      -3.932   0.919 -33.464  1.00  0.00     0.184 HD
HETATM   10  O   UNL     1      -5.095   1.271 -30.489  1.00  0.00    -0.266 OA
BRANCH   8  11
HETATM   11  N   UNL     1      -4.947  -0.656 -32.583  1.00  0.00    -0.220 NA
HETATM   12  C   UNL     1      -6.177  -0.893 -33.384  1.00  0.00     0.153 C 
HETATM   13  C   UNL     1      -6.013  -2.259 -33.969  1.00  0.00    -0.036 A 
HETATM   14  C   UNL     1      -4.720  -2.721 -33.729  1.00  0.00    -0.036 A 
HETATM   15  C   UNL     1      -6.921  -3.013 -34.694  1.00  0.00     0.009 A 
HETATM   16  C   UNL     1      -3.951  -1.694 -32.962  1.00  0.00     0.153 C 
HETATM   17  C   UNL     1      -4.297  -3.948 -34.214  1.00  0.00     0.009 A 
HETATM   18  C   UNL     1      -5.203  -4.718 -34.946  1.00  0.00     0.001 A 
HETATM   19  C   UNL     1      -6.507  -4.255 -35.183  1.00  0.00     0.001 A 
ENDBRANCH   8  11
ENDBRANCH   4   7
BRANCH   1  20
HETATM   20  C   UNL     1      -2.240   6.875 -32.365  1.00  0.00     0.139 A 
HETATM   21  C   UNL     1      -1.864   7.149 -33.822  1.00  0.00     0.054 C 
HETATM   22  N   UNL     1      -3.131   7.902 -31.855  1.00  0.00    -0.321 N 
HETATM   23  C   UNL     1      -2.595   8.604 -30.807  1.00  0.00     0.324 A 
HETATM   24  H   UNL     1      -4.093   8.044 -32.125  1.00  0.00     0.165 HD
HETATM   25  O   UNL     1      -3.170   9.481 -30.189  1.00  0.00    -0.247 OA
HETATM   26  N   UNL     1      -1.339   8.164 -30.588  1.00  0.00    -0.277 N 
HETATM   27  C   UNL     1      -1.013   7.178 -31.467  1.00  0.00     0.258 A 
HETATM   28  H   UNL     1      -0.722   8.540 -29.889  1.00  0.00     0.173 HD
HETATM   29  O   UNL     1       0.085   6.643 -31.521  1.00  0.00    -0.270 OA
ENDBRANCH   1  20
TORSDOF 3
ENDMDL
MODEL 4
REMARK VINA RESULT:      -8.5      6.750      8.703
REMARK  3 active torsions:
REMARK  status: ('A' for Active; 'I' for Inactive)
REMARK    1  A    between atoms: C_2  and  C_3 
REMARK    2  A    between atoms: C_6  and  C_7 
REMARK       I    between atoms: C_7  and  N_8 
REMARK    3  A    between atoms: N_8  and  N_9 
ROOT
HETATM    1  C   UNL     1      -5.716   1.830 -33.092  1.00  0.00    -0.021 A 
HETATM    2  C   UNL     1      -4.561   1.365 -32.430  1.00  0.00     0.011 A 
HETATM    3  C   UNL     1      -3.459   2.201 -32.198  1.00  0.00     0.018 A 
HETATM    4  C   UNL     1      -3.476   3.526 -32.643  1.00  0.00     0.033 A 
HETATM    5  C   UNL     1      -4.613   3.992 -33.316  1.00  0.00     0.018 A 
HETATM    6  C   UNL     1      -5.713   3.158 -33.542  1.00  0.00     0.011 A 
ENDROOT
BRANCH   4   7
HETATM    7  C   UNL     1      -2.366   4.499 -32.404  1.00  0.00     0.266 C 
HETATM    8  N   UNL     1      -2.209   4.978 -31.105  1.00  0.00    -0.284 N 
HETATM    9  H   UNL     1      -2.747   4.596 -30.337  1.00  0.00     0.184 HD
HETATM   10  O   UNL     1      -1.651   4.822 -33.349  1.00  0.00    -0.266 OA
BRANCH   8  11
HETATM   11  N   UNL     1      -1.212   5.921 -30.757  1.00  0.00    -0.220 NA
HETATM   12  C   UNL     1      -1.740   7.213 -30.243  1.00  0.00     0.153 C 
HETATM   13  C   UNL     1      -0.799   7.623 -29.156  1.00  0.00    -0.036 A 
HETATM   14  C   UNL     1       0.088   6.583 -28.885  1.00  0.00    -0.036 A 
HETATM   15  C   UNL     1      -0.761   8.805 -28.435  1.00  0.00     0.009 A 
HETATM   16  C   UNL     1      -0.204   5.422 -29.782  1.00  0.00     0.153 C 
HETATM   17  C   UNL     1       1.035   6.693 -27.880  1.00  0.00     0.009 A 
HETATM   18  C   UNL     1       1.084   7.881 -27.145  1.00  0.00     0.001 A 
HETATM   19  C   UNL     1       0.194   8.930 -27.423  1.00  0.00     0.001 A 
ENDBRANCH   8  11
ENDBRANCH   4   7
BRANCH   1  20
HETATM   20  C   UNL     1      -6.905   0.895 -33.298  1.00  0.00     0.139 A 
HETATM   21  C   UNL     1      -6.555  -0.559 -32.984  1.00  0.00     0.054 C 
HETATM   22  N   UNL     1      -8.038   1.342 -32.506  1.00  0.00    -0.321 N 
HETATM   23  C   UNL     1      -9.119   1.695 -33.271  1.00  0.00     0.324 A 
HETATM   24  H   UNL     1      -8.042   1.506 -31.510  1.00  0.00     0.165 HD
HETATM   25  O   UNL     1     -10.165   2.140 -32.835  1.00  0.00    -0.247 OA
HETATM   26  N   UNL     1      -8.828   1.463 -34.568  1.00  0.00    -0.277 N 
HETATM   27  C   UNL     1      -7.570   0.960 -34.696  1.00  0.00     0.258 A 
HETATM   28  H   UNL     1      -9.468   1.616 -35.327  1.00  0.00     0.173 HD
HETATM   29  O   UNL     1      -7.076   0.612 -35.759  1.00  0.00    -0.270 OA
ENDBRANCH   1  20
TORSDOF 3
ENDMDL
MODEL 5
REMARK VINA RESULT:      -8.4      6.380     10.320
REMARK  3 active torsions:
REMARK  status: ('A' for Active; 'I' for Inactive)
REMARK    1  A    between atoms: C_2  and  C_3 
REMARK    2  A    between atoms: C_6  and  C_7 
REMARK       I    between atoms: C_7  and  N_8 
REMARK    3  A    between atoms: N_8  and  N_9 
ROOT
HETATM    1  C   UNL     1      -1.533   5.737 -31.309  1.00  0.00    -0.021 A 
HETATM    2  C   UNL     1      -1.273   5.081 -32.530  1.00  0.00     0.011 A 
HETATM    3  C   UNL     1      -2.311   4.609 -33.346  1.00  0.00     0.018 A 
HETATM    4  C   UNL     1      -3.643   4.762 -32.950  1.00  0.00     0.033 A 
HETATM    5  C   UNL     1      -3.910   5.397 -31.730  1.00  0.00     0.018 A 
HETATM    6  C   UNL     1      -2.873   5.874 -30.920  1.00  0.00     0.011 A 
ENDROOT
BRANCH   4   7
HETATM    7  C   UNL     1      -4.812   4.328 -33.774  1.00  0.00     0.266 C 
HETATM    8  N   UNL     1      -5.684   3.402 -33.203  1.00  0.00    -0.284 N 
HETATM    9  H   UNL     1      -5.593   3.126 -32.233  1.00  0.00     0.184 HD
HETATM   10  O   UNL     1      -4.952   4.803 -34.898  1.00  0.00    -0.266 OA
BRANCH   8  11
HETATM   11  N   UNL     1      -6.812   2.894 -33.891  1.00  0.00    -0.220 NA
HETATM   12  C   UNL     1      -7.149   1.483 -33.562  1.00  0.00     0.153 C 
HETATM   13  C   UNL     1      -8.643   1.426 -33.545  1.00  0.00    -0.036 A 
HETATM   14  C   UNL     1      -9.165   2.715 -33.638  1.00  0.00    -0.036 A 
HETATM   15  C   UNL     1      -9.472   0.324 -33.413  1.00  0.00     0.009 A 
HETATM   16  C   UNL     1      -8.049   3.706 -33.732  1.00  0.00     0.153 C 
HETATM   17  C   UNL     1     -10.531   2.939 -33.594  1.00  0.00     0.009 A 
HETATM   18  C   UNL     1     -11.378   1.836 -33.462  1.00  0.00     0.001 A 
HETATM   19  C   UNL     1     -10.852   0.538 -33.374  1.00  0.00     0.001 A 
ENDBRANCH   8  11
ENDBRANCH   4   7
BRANCH   1  20
HETATM   20  C   UNL     1      -0.375   6.263 -30.465  1.00  0.00     0.139 A 
HETATM   21  C   UNL     1       0.690   6.956 -31.315  1.00  0.00     0.054 C 
HETATM   22  N   UNL     1      -0.871   7.148 -29.427  1.00  0.00    -0.321 N 
HETATM   23  C   UNL     1      -0.621   6.683 -28.162  1.00  0.00     0.324 A 
HETATM   24  H   UNL     1      -1.447   7.966 -29.565  1.00  0.00     0.165 HD
HETATM   25  O   UNL     1      -0.981   7.230 -27.135  1.00  0.00    -0.247 OA
HETATM   26  N   UNL     1       0.084   5.537 -28.252  1.00  0.00    -0.277 N 
HETATM   27  C   UNL     1       0.316   5.216 -29.554  1.00  0.00     0.258 A 
HETATM   28  H   UNL     1       0.414   5.013 -27.461  1.00  0.00     0.173 HD
HETATM   29  O   UNL     1       0.979   4.254 -29.915  1.00  0.00    -0.270 OA
ENDBRANCH   1  20
TORSDOF 3
ENDMDL
MODEL 6
REMARK VINA RESULT:      -8.4      7.120      9.537
REMARK  3 active torsions:
REMARK  status: ('A' for Active; 'I' for Inactive)
REMARK    1  A    between atoms: C_2  and  C_3 
REMARK    2  A    between atoms: C_6  and  C_7 
REMARK       I    between atoms: C_7  and  N_8 
REMARK    3  A    between atoms: N_8  and  N_9 
ROOT
HETATM    1  C   UNL     1      -4.979   1.453 -32.366  1.00  0.00    -0.021 A 
HETATM    2  C   UNL     1      -5.280   2.633 -33.077  1.00  0.00     0.011 A 
HETATM    3  C   UNL     1      -4.484   3.781 -32.966  1.00  0.00     0.018 A 
HETATM    4  C   UNL     1      -3.371   3.787 -32.120  1.00  0.00     0.033 A 
HETATM    5  C   UNL     1      -3.074   2.624 -31.396  1.00  0.00     0.018 A 
HETATM    6  C   UNL     1      -3.867   1.477 -31.512  1.00  0.00     0.011 A 
ENDROOT
BRANCH   4   7
HETATM    7  C   UNL     1      -2.444   4.950 -31.971  1.00  0.00     0.266 C 
HETATM    8  N   UNL     1      -1.910   5.181 -30.704  1.00  0.00    -0.284 N 
HETATM    9  H   UNL     1      -2.053   4.523 -29.948  1.00  0.00     0.184 HD
HETATM   10  O   UNL     1      -2.194   5.636 -32.960  1.00  0.00    -0.266 OA
BRANCH   8  11
HETATM   11  N   UNL     1      -1.041   6.264 -30.431  1.00  0.00    -0.220 NA
HETATM   12  C   UNL     1      -1.721   7.483 -29.918  1.00  0.00     0.153 C 
HETATM   13  C   UNL     1      -0.795   8.053 -28.891  1.00  0.00    -0.036 A 
HETATM   14  C   UNL     1       0.243   7.156 -28.645  1.00  0.00    -0.036 A 
HETATM   15  C   UNL     1      -0.889   9.249 -28.199  1.00  0.00     0.009 A 
HETATM   16  C   UNL     1       0.074   5.940 -29.500  1.00  0.00     0.153 C 
HETATM   17  C   UNL     1       1.213   7.427 -27.694  1.00  0.00     0.009 A 
HETATM   18  C   UNL     1       1.130   8.631 -26.989  1.00  0.00     0.001 A 
HETATM   19  C   UNL     1       0.087   9.536 -27.242  1.00  0.00     0.001 A 
ENDBRANCH   8  11
ENDBRANCH   4   7
BRANCH   1  20
HETATM   20  C   UNL     1      -5.855   0.215 -32.537  1.00  0.00     0.139 A 
HETATM   21  C   UNL     1      -6.243  -0.407 -31.196  1.00  0.00     0.054 C 
HETATM   22  N   UNL     1      -7.034   0.538 -33.322  1.00  0.00    -0.321 N 
HETATM   23  C   UNL     1      -7.096  -0.153 -34.504  1.00  0.00     0.324 A 
HETATM   24  H   UNL     1      -7.702   1.268 -33.122  1.00  0.00     0.165 HD
HETATM   25  O   UNL     1      -7.965  -0.018 -35.346  1.00  0.00    -0.247 OA
HETATM   26  N   UNL     1      -6.046  -0.998 -34.569  1.00  0.00    -0.277 N 
HETATM   27  C   UNL     1      -5.274  -0.893 -33.453  1.00  0.00     0.258 A 
HETATM   28  H   UNL     1      -5.880  -1.636 -35.327  1.00  0.00     0.173 HD
HETATM   29  O   UNL     1      -4.290  -1.584 -33.233  1.00  0.00    -0.270 OA
ENDBRANCH   1  20
TORSDOF 3
ENDMDL
MODEL 7
REMARK VINA RESULT:      -8.0      5.164      6.934
REMARK  3 active torsions:
REMARK  status: ('A' for Active; 'I' for Inactive)
REMARK    1  A    between atoms: C_2  and  C_3 
REMARK    2  A    between atoms: C_6  and  C_7 
REMARK       I    between atoms: C_7  and  N_8 
REMARK    3  A    between atoms: N_8  and  N_9 
ROOT
HETATM    1  C   UNL     1      -6.202   4.919 -29.771  1.00  0.00    -0.021 A 
HETATM    2  C   UNL     1      -5.129   4.005 -29.772  1.00  0.00     0.011 A 
HETATM    3  C   UNL     1      -4.959   3.071 -30.803  1.00  0.00     0.018 A 
HETATM    4  C   UNL     1      -5.876   3.013 -31.858  1.00  0.00     0.033 A 
HETATM    5  C   UNL     1      -6.955   3.906 -31.856  1.00  0.00     0.018 A 
HETATM    6  C   UNL     1      -7.120   4.841 -30.829  1.00  0.00     0.011 A 
ENDROOT
BRANCH   4   7
HETATM    7  C   UNL     1      -5.751   2.079 -33.018  1.00  0.00     0.266 C 
HETATM    8  N   UNL     1      -5.402   0.759 -32.739  1.00  0.00    -0.284 N 
HETATM    9  H   UNL     1      -5.350   0.422 -31.786  1.00  0.00     0.184 HD
HETATM   10  O   UNL     1      -5.965   2.511 -34.149  1.00  0.00    -0.266 OA
BRANCH   8  11
HETATM   11  N   UNL     1      -5.229  -0.213 -33.753  1.00  0.00    -0.220 NA
HETATM   12  C   UNL     1      -4.240  -1.274 -33.424  1.00  0.00     0.153 C 
HETATM   13  C   UNL     1      -4.808  -2.536 -33.992  1.00  0.00    -0.036 A 
HETATM   14  C   UNL     1      -6.111  -2.310 -34.429  1.00  0.00    -0.036 A 
HETATM   15  C   UNL     1      -4.231  -3.793 -34.071  1.00  0.00     0.009 A 
HETATM   16  C   UNL     1      -6.485  -0.882 -34.188  1.00  0.00     0.153 C 
HETATM   17  C   UNL     1      -6.878  -3.337 -34.953  1.00  0.00     0.009 A 
HETATM   18  C   UNL     1      -6.309  -4.610 -35.040  1.00  0.00     0.001 A 
HETATM   19  C   UNL     1      -4.994  -4.836 -34.604  1.00  0.00     0.001 A 
ENDBRANCH   8  11
ENDBRANCH   4   7
BRANCH   1  20
HETATM   20  C   UNL     1      -6.334   5.940 -28.644  1.00  0.00     0.139 A 
HETATM   21  C   UNL     1      -7.785   6.120 -28.196  1.00  0.00     0.054 C 
HETATM   22  N   UNL     1      -5.486   5.567 -27.526  1.00  0.00    -0.321 N 
HETATM   23  C   UNL     1      -4.509   6.492 -27.262  1.00  0.00     0.324 A 
HETATM   24  H   UNL     1      -5.495   4.682 -27.040  1.00  0.00     0.165 HD
HETATM   25  O   UNL     1      -3.654   6.376 -26.403  1.00  0.00    -0.247 OA
HETATM   26  N   UNL     1      -4.661   7.535 -28.103  1.00  0.00    -0.277 N 
HETATM   27  C   UNL     1      -5.722   7.335 -28.932  1.00  0.00     0.258 A 
HETATM   28  H   UNL     1      -4.085   8.358 -28.093  1.00  0.00     0.173 HD
HETATM   29  O   UNL     1      -6.113   8.151 -29.755  1.00  0.00    -0.270 OA
ENDBRANCH   1  20
TORSDOF 3
ENDMDL
MODEL 8
REMARK VINA RESULT:      -8.0      5.182      9.707
REMARK  3 active torsions:
REMARK  status: ('A' for Active; 'I' for Inactive)
REMARK    1  A    between atoms: C_2  and  C_3 
REMARK    2  A    between atoms: C_6  and  C_7 
REMARK       I    between atoms: C_7  and  N_8 
REMARK    3  A    between atoms: N_8  and  N_9 
ROOT
HETATM    1  C   UNL     1      -3.516   4.941 -32.778  1.00  0.00    -0.021 A 
HETATM    2  C   UNL     1      -3.625   3.536 -32.804  1.00  0.00     0.011 A 
HETATM    3  C   UNL     1      -4.802   2.882 -32.414  1.00  0.00     0.018 A 
HETATM    4  C   UNL     1      -5.901   3.620 -31.964  1.00  0.00     0.033 A 
HETATM    5  C   UNL     1      -5.796   5.017 -31.918  1.00  0.00     0.018 A 
HETATM    6  C   UNL     1      -4.622   5.668 -32.313  1.00  0.00     0.011 A 
ENDROOT
BRANCH   4   7
HETATM    7  C   UNL     1      -7.207   3.011 -31.568  1.00  0.00     0.266 C 
HETATM    8  N   UNL     1      -8.246   3.075 -32.496  1.00  0.00    -0.284 N 
HETATM    9  H   UNL     1      -8.088   3.413 -33.437  1.00  0.00     0.184 HD
HETATM   10  O   UNL     1      -7.303   2.486 -30.462  1.00  0.00    -0.266 OA
BRANCH   8  11
HETATM   11  N   UNL     1      -9.537   2.557 -32.229  1.00  0.00    -0.220 NA
HETATM   12  C   UNL     1     -10.651   3.483 -32.566  1.00  0.00     0.153 C 
HETATM   13  C   UNL     1     -11.736   2.613 -33.117  1.00  0.00    -0.036 A 
HETATM   14  C   UNL     1     -11.254   1.319 -33.302  1.00  0.00    -0.036 A 
HETATM   15  C   UNL     1     -13.032   2.954 -33.468  1.00  0.00     0.009 A 
HETATM   16  C   UNL     1      -9.822   1.248 -32.877  1.00  0.00     0.153 C 
HETATM   17  C   UNL     1     -12.053   0.329 -33.850  1.00  0.00     0.009 A 
HETATM   18  C   UNL     1     -13.362   0.659 -34.208  1.00  0.00     0.001 A 
HETATM   19  C   UNL     1     -13.849   1.961 -34.016  1.00  0.00     0.001 A 
ENDBRANCH   8  11
ENDBRANCH   4   7
BRANCH   1  20
HETATM   20  C   UNL     1      -2.226   5.615 -33.239  1.00  0.00     0.139 A 
HETATM   21  C   UNL     1      -1.694   5.010 -34.538  1.00  0.00     0.054 C 
HETATM   22  N   UNL     1      -2.428   7.047 -33.375  1.00  0.00    -0.321 N 
HETATM   23  C   UNL     1      -1.643   7.780 -32.524  1.00  0.00     0.324 A 
HETATM   24  H   UNL     1      -3.138   7.499 -33.932  1.00  0.00     0.165 HD
HETATM   25  O   UNL     1      -1.669   8.994 -32.425  1.00  0.00    -0.247 OA
HETATM   26  N   UNL     1      -0.849   6.939 -31.831  1.00  0.00    -0.277 N 
HETATM   27  C   UNL     1      -1.080   5.649 -32.196  1.00  0.00     0.258 A 
HETATM   28  H   UNL     1      -0.162   7.234 -31.160  1.00  0.00     0.173 HD
HETATM   29  O   UNL     1      -0.457   4.691 -31.760  1.00  0.00    -0.270 OA
ENDBRANCH   1  20
TORSDOF 3
ENDMDL
MODEL 9
REMARK VINA RESULT:      -7.8      8.416     11.000
REMARK  3 active torsions:
REMARK  status: ('A' for Active; 'I' for Inactive)
REMARK    1  A    between atoms: C_2  and  C_3 
REMARK    2  A    between atoms: C_6  and  C_7 
REMARK       I    between atoms: C_7  and  N_8 
REMARK    3  A    between atoms: N_8  and  N_9 
ROOT
HETATM    1  C   UNL     1      -0.490   7.332 -29.016  1.00  0.00    -0.021 A 
HETATM    2  C   UNL     1      -1.790   7.517 -29.529  1.00  0.00     0.011 A 
HETATM    3  C   UNL     1      -2.313   6.681 -30.525  1.00  0.00     0.018 A 
HETATM    4  C   UNL     1      -1.539   5.644 -31.052  1.00  0.00     0.033 A 
HETATM    5  C   UNL     1      -0.239   5.463 -30.560  1.00  0.00     0.018 A 
HETATM    6  C   UNL     1       0.280   6.294 -29.562  1.00  0.00     0.011 A 
ENDROOT
BRANCH   4   7
HETATM    7  C   UNL     1      -2.029   4.680 -32.083  1.00  0.00     0.266 C 
HETATM    8  N   UNL     1      -2.994   3.757 -31.685  1.00  0.00    -0.284 N 
HETATM    9  H   UNL     1      -3.426   3.812 -30.771  1.00  0.00     0.184 HD
HETATM   10  O   UNL     1      -1.569   4.748 -33.221  1.00  0.00    -0.266 OA
BRANCH   8  11
HETATM   11  N   UNL     1      -3.518   2.777 -32.562  1.00  0.00    -0.220 NA
HETATM   12  C   UNL     1      -3.476   1.389 -32.028  1.00  0.00     0.153 C 
HETATM   13  C   UNL     1      -4.744   0.746 -32.495  1.00  0.00    -0.036 A 
HETATM   14  C   UNL     1      -5.575   1.706 -33.068  1.00  0.00    -0.036 A 
HETATM   15  C   UNL     1      -5.145  -0.574 -32.379  1.00  0.00     0.009 A 
HETATM   16  C   UNL     1      -4.907   3.044 -33.026  1.00  0.00     0.153 C 
HETATM   17  C   UNL     1      -6.835   1.374 -33.537  1.00  0.00     0.009 A 
HETATM   18  C   UNL     1      -7.253   0.046 -33.427  1.00  0.00     0.001 A 
HETATM   19  C   UNL     1      -6.413  -0.922 -32.854  1.00  0.00     0.001 A 
ENDBRANCH   8  11
ENDBRANCH   4   7
BRANCH   1  20
HETATM   20  C   UNL     1       0.032   8.246 -27.910  1.00  0.00     0.139 A 
HETATM   21  C   UNL     1       1.520   8.557 -28.074  1.00  0.00     0.054 C 
HETATM   22  N   UNL     1      -0.753   9.467 -27.856  1.00  0.00    -0.321 N 
HETATM   23  C   UNL     1      -1.416   9.624 -26.667  1.00  0.00     0.324 A 
HETATM   24  H   UNL     1      -0.921  10.102 -28.622  1.00  0.00     0.165 HD
HETATM   25  O   UNL     1      -2.169  10.545 -26.405  1.00  0.00    -0.247 OA
HETATM   26  N   UNL     1      -1.091   8.602 -25.849  1.00  0.00    -0.277 N 
HETATM   27  C   UNL     1      -0.220   7.754 -26.462  1.00  0.00     0.258 A 
HETATM   28  H   UNL     1      -1.426   8.502 -24.908  1.00  0.00     0.173 HD
HETATM   29  O   UNL     1       0.275   6.774 -25.924  1.00  0.00    -0.270 OA
ENDBRANCH   1  20
TORSDOF 3
ENDMDL
MODEL 10
REMARK VINA RESULT:      -7.8     13.459     15.441
REMARK  3 active torsions:
REMARK  status: ('A' for Active; 'I' for Inactive)
REMARK    1  A    between atoms: C_2  and  C_3 
REMARK    2  A    between atoms: C_6  and  C_7 
REMARK       I    between atoms: C_7  and  N_8 
REMARK    3  A    between atoms: N_8  and  N_9 
ROOT
HETATM    1  C   UNL     1      -0.659   7.567 -29.379  1.00  0.00    -0.021 A 
HETATM    2  C   UNL     1       0.676   7.517 -28.929  1.00  0.00     0.011 A 
HETATM    3  C   UNL     1       1.045   7.999 -27.665  1.00  0.00     0.018 A 
HETATM    4  C   UNL     1       0.086   8.568 -26.822  1.00  0.00     0.033 A 
HETATM    5  C   UNL     1      -1.241   8.638 -27.267  1.00  0.00     0.018 A 
HETATM    6  C   UNL     1      -1.608   8.150 -28.526  1.00  0.00     0.011 A 
ENDROOT
BRANCH   4   7
HETATM    7  C   UNL     1       0.380   9.069 -25.445  1.00  0.00     0.266 C 
HETATM    8  N   UNL     1       1.721   9.159 -25.073  1.00  0.00    -0.284 N 
HETATM    9  H   UNL     1       2.462   9.002 -25.745  1.00  0.00     0.184 HD
HETATM   10  O   UNL     1      -0.558   9.380 -24.716  1.00  0.00    -0.266 OA
BRANCH   8  11
HETATM   11  N   UNL     1       2.128   9.594 -23.789  1.00  0.00    -0.220 NA
HETATM   12  C   UNL     1       2.885   8.581 -23.008  1.00  0.00     0.153 C 
HETATM   13  C   UNL     1       3.938   9.350 -22.276  1.00  0.00    -0.036 A 
HETATM   14  C   UNL     1       3.962  10.667 -22.732  1.00  0.00    -0.036 A 
HETATM   15  C   UNL     1       4.833   8.907 -21.316  1.00  0.00     0.009 A 
HETATM   16  C   UNL     1       2.919  10.855 -23.787  1.00  0.00     0.153 C 
HETATM   17  C   UNL     1       4.885  11.577 -22.245  1.00  0.00     0.009 A 
HETATM   18  C   UNL     1       5.793  11.143 -21.276  1.00  0.00     0.001 A 
HETATM   19  C   UNL     1       5.766   9.818 -20.813  1.00  0.00     0.001 A 
ENDBRANCH   8  11
ENDBRANCH   4   7
BRANCH   1  20
HETATM   20  C   UNL     1      -1.024   7.003 -30.749  1.00  0.00     0.139 A 
HETATM   21  C   UNL     1       0.210   6.750 -31.615  1.00  0.00     0.054 C 
HETATM   22  N   UNL     1      -1.814   5.793 -30.602  1.00  0.00    -0.321 N 
HETATM   23  C   UNL     1      -3.075   5.910 -31.126  1.00  0.00     0.324 A 
HETATM   24  H   UNL     1      -1.555   4.972 -30.074  1.00  0.00     0.165 HD
HETATM   25  O   UNL     1      -3.931   5.046 -31.081  1.00  0.00    -0.247 OA
HETATM   26  N   UNL     1      -3.198   7.127 -31.694  1.00  0.00    -0.277 N 
HETATM   27  C   UNL     1      -2.045   7.838 -31.565  1.00  0.00     0.258 A 
HETATM   28  H   UNL     1      -4.021   7.448 -32.172  1.00  0.00     0.173 HD
HETATM   29  O   UNL     1      -1.869   8.951 -32.038  1.00  0.00    -0.270 OA
ENDBRANCH   1  20
TORSDOF 3
ENDMDL
