MODEL 1
REMARK VINA RESULT:      -8.8      0.000      0.000
REMARK  12 active torsions:
REMARK  status: ('A' for Active; 'I' for Inactive)
REMARK    1  A    between atoms: C_2  and  O_3 
REMARK    2  A    between atoms: O_3  and  C_4 
REMARK    3  A    between atoms: C_5  and  N_6 
REMARK    4  A    between atoms: C_7  and  S_8 
REMARK    5  A    between atoms: S_8  and  C_9 
REMARK    6  A    between atoms: C_9  and  C_10 
REMARK       I    between atoms: C_10  and  N_11 
REMARK    7  A    between atoms: N_11  and  C_12 
REMARK    8  A    between atoms: C_12  and  C_13 
REMARK    9  A    between atoms: C_13  and  C_14 
REMARK   10  A    between atoms: C_17  and  S_18 
REMARK   11  A    between atoms: S_18  and  N_19 
REMARK   12  A    between atoms: C_28  and  N_29 
ROOT
HETATM    1  N   UNL     1      -8.904   1.656 -33.626  1.00  0.00    -0.273 N 
HETATM    2  C   UNL     1      -8.450   2.911 -33.895  1.00  0.00     0.177 A 
HETATM    3  N   UNL     1      -9.224   4.016 -34.002  1.00  0.00    -0.204 NA
HETATM    4  C   UNL     1     -10.511   3.739 -33.787  1.00  0.00     0.162 A 
HETATM    5  C   UNL     1     -11.054   2.510 -33.476  1.00  0.00     0.081 A 
HETATM    6  C   UNL     1     -10.212   1.392 -33.360  1.00  0.00     0.124 A 
HETATM    7  N   UNL     1     -11.543   4.631 -33.827  1.00  0.00    -0.260 N 
HETATM    8  H   UNL     1     -11.499   5.625 -34.024  1.00  0.00     0.191 HD
HETATM    9  N   UNL     1     -12.734   4.071 -33.570  1.00  0.00    -0.177 NA
HETATM   10  C   UNL     1     -12.453   2.778 -33.365  1.00  0.00     0.068 A 
HETATM   11  C   UNL     1     -13.562   1.831 -33.078  1.00  0.00     0.073 C 
ENDROOT
BRANCH   2  12
HETATM   12  S   UNL     1      -6.694   3.251 -34.114  1.00  0.00    -0.082 SA
BRANCH  12  13
HETATM   13  C   UNL     1      -6.614   4.933 -33.415  1.00  0.00     0.185 C 
BRANCH  13  14
HETATM   14  C   UNL     1      -5.229   5.572 -33.501  1.00  0.00     0.227 C 
HETATM   15  N   UNL     1      -4.504   5.121 -34.585  1.00  0.00    -0.360 N 
HETATM   16  H   UNL     1      -4.894   4.401 -35.183  1.00  0.00     0.162 HD
HETATM   17  O   UNL     1      -4.814   6.424 -32.717  1.00  0.00    -0.273 OA
BRANCH  15  18
HETATM   18  C   UNL     1      -3.251   5.719 -35.017  1.00  0.00     0.127 C 
BRANCH  18  19
HETATM   19  C   UNL     1      -2.005   4.927 -34.607  1.00  0.00     0.058 C 
BRANCH  19  20
HETATM   20  C   UNL     1      -1.523   5.339 -33.234  1.00  0.00    -0.057 A 
HETATM   21  C   UNL     1      -0.760   6.503 -33.060  1.00  0.00     0.009 A 
HETATM   22  C   UNL     1      -0.257   6.842 -31.801  1.00  0.00     0.025 A 
HETATM   23  C   UNL     1      -0.534   6.023 -30.704  1.00  0.00     0.074 A 
HETATM   24  C   UNL     1      -1.302   4.866 -30.858  1.00  0.00     0.025 A 
HETATM   25  C   UNL     1      -1.797   4.531 -32.119  1.00  0.00     0.009 A 
BRANCH  23  26
HETATM   26  S   UNL     1       0.177   6.404 -29.128  1.00  0.00     0.239 S 
HETATM   27  O   UNL     1       0.969   5.282 -28.683  1.00  0.00    -0.206 OA
HETATM   28  O   UNL     1       0.691   7.752 -29.162  1.00  0.00    -0.206 OA
BRANCH  26  29
HETATM   29  N   UNL     1      -1.173   6.443 -28.132  1.00  0.00    -0.225 NA
HETATM   30  H   UNL     1      -1.353   5.509 -27.760  1.00  0.00     0.136 HD
HETATM   31  H   UNL     1      -1.044   7.149 -27.406  1.00  0.00     0.136 HD
ENDBRANCH  26  29
ENDBRANCH  23  26
ENDBRANCH  19  20
ENDBRANCH  18  19
ENDBRANCH  15  18
ENDBRANCH  13  14
ENDBRANCH  12  13
ENDBRANCH   2  12
BRANCH   1  32
HETATM   32  C   UNL     1      -8.003   0.545 -33.748  1.00  0.00     0.076 A 
HETATM   33  C   UNL     1      -7.311   0.121 -32.604  1.00  0.00     0.096 A 
HETATM   34  C   UNL     1      -6.449  -0.967 -32.711  1.00  0.00     0.039 A 
HETATM   35  C   UNL     1      -6.252  -1.576 -33.955  1.00  0.00     0.003 A 
HETATM   36  C   UNL     1      -6.920  -1.112 -35.095  1.00  0.00     0.002 A 
HETATM   37  C   UNL     1      -7.804  -0.039 -35.000  1.00  0.00     0.033 A 
BRANCH  33  38
HETATM   38  O   UNL     1      -7.580   0.746 -31.416  1.00  0.00    -0.349 OA
BRANCH  38  39
HETATM   39  C   UNL     1      -6.489   1.507 -30.876  1.00  0.00     0.171 C 
HETATM   40  C   UNL     1      -5.907   0.780 -29.679  1.00  0.00     0.034 C 
ENDBRANCH  38  39
ENDBRANCH  33  38
ENDBRANCH   1  32
BRANCH   6  41
HETATM   41  N   UNL     1     -10.678   0.121 -33.021  1.00  0.00    -0.384 N 
HETATM   42  H   UNL     1     -11.608   0.056 -32.621  1.00  0.00     0.157 HD
HETATM   43  H   UNL     1     -10.030  -0.574 -32.669  1.00  0.00     0.157 HD
ENDBRANCH   6  41
TORSDOF 12
ENDMDL
MODEL 2
REMARK VINA RESULT:      -8.7      3.227      8.359
REMARK  12 active torsions:
REMARK  status: ('A' for Active; 'I' for Inactive)
REMARK    1  A    between atoms: C_2  and  O_3 
REMARK    2  A    between atoms: O_3  and  C_4 
REMARK    3  A    between atoms: C_5  and  N_6 
REMARK    4  A    between atoms: C_7  and  S_8 
REMARK    5  A    between atoms: S_8  and  C_9 
REMARK    6  A    between atoms: C_9  and  C_10 
REMARK       I    between atoms: C_10  and  N_11 
REMARK    7  A    between atoms: N_11  and  C_12 
REMARK    8  A    between atoms: C_12  and  C_13 
REMARK    9  A    between atoms: C_13  and  C_14 
REMARK   10  A    between atoms: C_17  and  S_18 
REMARK   11  A    between atoms: S_18  and  N_19 
REMARK   12  A    between atoms: C_28  and  N_29 
ROOT
HETATM    1  N   UNL     1      -4.471   5.215 -31.465  1.00  0.00    -0.273 N 
HETATM    2  C   UNL     1      -4.990   4.047 -30.997  1.00  0.00     0.177 A 
HETATM    3  N   UNL     1      -5.593   3.885 -29.797  1.00  0.00    -0.204 NA
HETATM    4  C   UNL     1      -5.647   5.029 -29.114  1.00  0.00     0.162 A 
HETATM    5  C   UNL     1      -5.181   6.261 -29.521  1.00  0.00     0.081 A 
HETATM    6  C   UNL     1      -4.574   6.388 -30.781  1.00  0.00     0.124 A 
HETATM    7  N   UNL     1      -6.186   5.199 -27.872  1.00  0.00    -0.260 N 
HETATM    8  H   UNL     1      -6.623   4.499 -27.281  1.00  0.00     0.191 HD
HETATM    9  N   UNL     1      -6.101   6.462 -27.429  1.00  0.00    -0.177 NA
HETATM   10  C   UNL     1      -5.481   7.117 -28.418  1.00  0.00     0.068 A 
HETATM   11  C   UNL     1      -5.185   8.564 -28.255  1.00  0.00     0.073 C 
ENDROOT
BRANCH   2  12
HETATM   12  S   UNL     1      -4.953   2.538 -31.983  1.00  0.00    -0.082 SA
BRANCH  12  13
HETATM   13  C   UNL     1      -3.482   1.735 -31.266  1.00  0.00     0.185 C 
BRANCH  13  14
HETATM   14  C   UNL     1      -3.240   0.318 -31.783  1.00  0.00     0.227 C 
HETATM   15  N   UNL     1      -4.066  -0.010 -32.838  1.00  0.00    -0.360 N 
HETATM   16  H   UNL     1      -4.772   0.651 -33.144  1.00  0.00     0.162 HD
HETATM   17  O   UNL     1      -2.378  -0.439 -31.339  1.00  0.00    -0.273 OA
BRANCH  15  18
HETATM   18  C   UNL     1      -3.899  -1.206 -33.647  1.00  0.00     0.127 C 
BRANCH  18  19
HETATM   19  C   UNL     1      -5.196  -1.985 -33.889  1.00  0.00     0.058 C 
BRANCH  19  20
HETATM   20  C   UNL     1      -6.394  -1.062 -33.895  1.00  0.00    -0.057 A 
HETATM   21  C   UNL     1      -6.848  -0.482 -35.090  1.00  0.00     0.009 A 
HETATM   22  C   UNL     1      -7.911   0.425 -35.080  1.00  0.00     0.025 A 
HETATM   23  C   UNL     1      -8.538   0.741 -33.873  1.00  0.00     0.074 A 
HETATM   24  C   UNL     1      -8.107   0.164 -32.677  1.00  0.00     0.025 A 
HETATM   25  C   UNL     1      -7.041  -0.738 -32.692  1.00  0.00     0.009 A 
BRANCH  23  26
HETATM   26  S   UNL     1      -9.826   1.957 -33.850  1.00  0.00     0.239 S 
HETATM   27  O   UNL     1      -9.274   3.236 -34.229  1.00  0.00    -0.206 OA
HETATM   28  O   UNL     1     -11.002   1.402 -34.476  1.00  0.00    -0.206 OA
BRANCH  26  29
HETATM   29  N   UNL     1     -10.175   2.070 -32.213  1.00  0.00    -0.225 NA
HETATM   30  H   UNL     1     -10.758   1.279 -31.931  1.00  0.00     0.136 HD
HETATM   31  H   UNL     1      -9.308   2.143 -31.680  1.00  0.00     0.136 HD
ENDBRANCH  26  29
ENDBRANCH  23  26
ENDBRANCH  19  20
ENDBRANCH  18  19
ENDBRANCH  15  18
ENDBRANCH  13  14
ENDBRANCH  12  13
ENDBRANCH   2  12
BRANCH   1  32
HETATM   32  C   UNL     1      -3.675   5.200 -32.660  1.00  0.00     0.076 A 
HETATM   33  C   UNL     1      -2.286   5.049 -32.531  1.00  0.00     0.096 A 
HETATM   34  C   UNL     1      -1.510   5.016 -33.687  1.00  0.00     0.039 A 
HETATM   35  C   UNL     1      -2.118   5.185 -34.936  1.00  0.00     0.003 A 
HETATM   36  C   UNL     1      -3.500   5.377 -35.041  1.00  0.00     0.002 A 
HETATM   37  C   UNL     1      -4.294   5.389 -33.896  1.00  0.00     0.033 A 
BRANCH  33  38
HETATM   38  O   UNL     1      -1.769   4.856 -31.279  1.00  0.00    -0.349 OA
BRANCH  38  39
HETATM   39  C   UNL     1      -0.804   5.838 -30.870  1.00  0.00     0.171 C 
HETATM   40  C   UNL     1       0.539   5.168 -30.654  1.00  0.00     0.034 C 
ENDBRANCH  38  39
ENDBRANCH  33  38
ENDBRANCH   1  32
BRANCH   6  41
HETATM   41  N   UNL     1      -4.101   7.603 -31.279  1.00  0.00    -0.384 N 
HETATM   42  H   UNL     1      -3.140   7.851 -31.071  1.00  0.00     0.157 HD
HETATM   43  H   UNL     1      -4.727   8.398 -31.339  1.00  0.00     0.157 HD
ENDBRANCH   6  41
TORSDOF 12
ENDMDL
MODEL 3
REMARK VINA RESULT:      -8.6      1.526      1.982
REMARK  12 active torsions:
REMARK  status: ('A' for Active; 'I' for Inactive)
REMARK    1  A    between atoms: C_2  and  O_3 
REMARK    2  A    between atoms: O_3  and  C_4 
REMARK    3  A    between atoms: C_5  and  N_6 
REMARK    4  A    between atoms: C_7  and  S_8 
REMARK    5  A    between atoms: S_8  and  C_9 
REMARK    6  A    between atoms: C_9  and  C_10 
REMARK       I    between atoms: C_10  and  N_11 
REMARK    7  A    between atoms: N_11  and  C_12 
REMARK    8  A    between atoms: C_12  and  C_13 
REMARK    9  A    between atoms: C_13  and  C_14 
REMARK   10  A    between atoms: C_17  and  S_18 
REMARK   11  A    between atoms: S_18  and  N_19 
REMARK   12  A    between atoms: C_28  and  N_29 
ROOT
HETATM    1  N   UNL     1      -8.312   2.350 -33.980  1.00  0.00    -0.273 N 
HETATM    2  C   UNL     1      -7.550   3.477 -33.960  1.00  0.00     0.177 A 
HETATM    3  N   UNL     1      -8.004   4.732 -34.183  1.00  0.00    -0.204 NA
HETATM    4  C   UNL     1      -9.318   4.748 -34.408  1.00  0.00     0.162 A 
HETATM    5  C   UNL     1     -10.172   3.666 -34.413  1.00  0.00     0.081 A 
HETATM    6  C   UNL     1      -9.661   2.381 -34.162  1.00  0.00     0.124 A 
HETATM    7  N   UNL     1     -10.076   5.853 -34.670  1.00  0.00    -0.260 N 
HETATM    8  H   UNL     1      -9.768   6.818 -34.736  1.00  0.00     0.191 HD
HETATM    9  N   UNL     1     -11.373   5.570 -34.855  1.00  0.00    -0.177 NA
HETATM   10  C   UNL     1     -11.444   4.241 -34.713  1.00  0.00     0.068 A 
HETATM   11  C   UNL     1     -12.755   3.563 -34.886  1.00  0.00     0.073 C 
ENDROOT
BRANCH   2  12
HETATM   12  S   UNL     1      -5.787   3.416 -33.587  1.00  0.00    -0.082 SA
BRANCH  12  13
HETATM   13  C   UNL     1      -5.388   5.192 -33.679  1.00  0.00     0.185 C 
BRANCH  13  14
HETATM   14  C   UNL     1      -3.991   5.483 -34.224  1.00  0.00     0.227 C 
HETATM   15  N   UNL     1      -3.054   5.641 -33.224  1.00  0.00    -0.360 N 
HETATM   16  H   UNL     1      -3.349   5.608 -32.254  1.00  0.00     0.162 HD
HETATM   17  O   UNL     1      -3.716   5.534 -35.422  1.00  0.00    -0.273 OA
BRANCH  15  18
HETATM   18  C   UNL     1      -1.623   5.712 -33.469  1.00  0.00     0.127 C 
BRANCH  18  19
HETATM   19  C   UNL     1      -1.000   7.074 -33.145  1.00  0.00     0.058 C 
BRANCH  19  20
HETATM   20  C   UNL     1      -0.698   7.199 -31.668  1.00  0.00    -0.057 A 
HETATM   21  C   UNL     1       0.437   6.588 -31.113  1.00  0.00     0.009 A 
HETATM   22  C   UNL     1       0.674   6.646 -29.737  1.00  0.00     0.025 A 
HETATM   23  C   UNL     1      -0.217   7.335 -28.912  1.00  0.00     0.074 A 
HETATM   24  C   UNL     1      -1.345   7.959 -29.450  1.00  0.00     0.025 A 
HETATM   25  C   UNL     1      -1.579   7.893 -30.824  1.00  0.00     0.009 A 
BRANCH  23  26
HETATM   26  S   UNL     1       0.037   7.334 -27.159  1.00  0.00     0.239 S 
HETATM   27  O   UNL     1       1.451   7.234 -26.887  1.00  0.00    -0.206 OA
HETATM   28  O   UNL     1      -0.799   8.350 -26.566  1.00  0.00    -0.206 OA
BRANCH  26  29
HETATM   29  N   UNL     1      -0.627   5.860 -26.708  1.00  0.00    -0.225 NA
HETATM   30  H   UNL     1       0.118   5.171 -26.583  1.00  0.00     0.136 HD
HETATM   31  H   UNL     1      -1.207   5.984 -25.877  1.00  0.00     0.136 HD
ENDBRANCH  26  29
ENDBRANCH  23  26
ENDBRANCH  19  20
ENDBRANCH  18  19
ENDBRANCH  15  18
ENDBRANCH  13  14
ENDBRANCH  12  13
ENDBRANCH   2  12
BRANCH   1  32
HETATM   32  C   UNL     1      -7.669   1.068 -33.935  1.00  0.00     0.076 A 
HETATM   33  C   UNL     1      -7.400   0.502 -32.680  1.00  0.00     0.096 A 
HETATM   34  C   UNL     1      -6.791  -0.749 -32.629  1.00  0.00     0.039 A 
HETATM   35  C   UNL     1      -6.416  -1.387 -33.817  1.00  0.00     0.003 A 
HETATM   36  C   UNL     1      -6.654  -0.787 -35.059  1.00  0.00     0.002 A 
HETATM   37  C   UNL     1      -7.283   0.454 -35.128  1.00  0.00     0.033 A 
BRANCH  33  38
HETATM   38  O   UNL     1      -7.826   1.171 -31.564  1.00  0.00    -0.349 OA
BRANCH  38  39
HETATM   39  C   UNL     1      -6.814   1.385 -30.568  1.00  0.00     0.171 C 
HETATM   40  C   UNL     1      -6.956   2.781 -29.993  1.00  0.00     0.034 C 
ENDBRANCH  38  39
ENDBRANCH  33  38
ENDBRANCH   1  32
BRANCH   6  41
HETATM   41  N   UNL     1     -10.461   1.239 -34.122  1.00  0.00    -0.384 N 
HETATM   42  H   UNL     1     -11.437   1.361 -33.871  1.00  0.00     0.157 HD
HETATM   43  H   UNL     1     -10.064   0.359 -33.813  1.00  0.00     0.157 HD
ENDBRANCH   6  41
TORSDOF 12
ENDMDL
MODEL 4
REMARK VINA RESULT:      -8.4      2.866      8.025
REMARK  12 active torsions:
REMARK  status: ('A' for Active; 'I' for Inactive)
REMARK    1  A    between atoms: C_2  and  O_3 
REMARK    2  A    between atoms: O_3  and  C_4 
REMARK    3  A    between atoms: C_5  and  N_6 
REMARK    4  A    between atoms: C_7  and  S_8 
REMARK    5  A    between atoms: S_8  and  C_9 
REMARK    6  A    between atoms: C_9  and  C_10 
REMARK       I    between atoms: C_10  and  N_11 
REMARK    7  A    between atoms: N_11  and  C_12 
REMARK    8  A    between atoms: C_12  and  C_13 
REMARK    9  A    between atoms: C_13  and  C_14 
REMARK   10  A    between atoms: C_17  and  S_18 
REMARK   11  A    between atoms: S_18  and  N_19 
REMARK   12  A    between atoms: C_28  and  N_29 
ROOT
HETATM    1  N   UNL     1      -3.866   4.197 -32.376  1.00  0.00    -0.273 N 
HETATM    2  C   UNL     1      -4.464   4.587 -33.535  1.00  0.00     0.177 A 
HETATM    3  N   UNL     1      -4.025   5.577 -34.346  1.00  0.00    -0.204 NA
HETATM    4  C   UNL     1      -2.900   6.128 -33.888  1.00  0.00     0.162 A 
HETATM    5  C   UNL     1      -2.209   5.775 -32.747  1.00  0.00     0.081 A 
HETATM    6  C   UNL     1      -2.692   4.731 -31.941  1.00  0.00     0.124 A 
HETATM    7  N   UNL     1      -2.209   7.151 -34.470  1.00  0.00    -0.260 N 
HETATM    8  H   UNL     1      -2.435   7.646 -35.326  1.00  0.00     0.191 HD
HETATM    9  N   UNL     1      -1.111   7.501 -33.787  1.00  0.00    -0.177 NA
HETATM   10  C   UNL     1      -1.104   6.680 -32.730  1.00  0.00     0.068 A 
HETATM   11  C   UNL     1      -0.022   6.808 -31.719  1.00  0.00     0.073 C 
ENDROOT
BRANCH   2  12
HETATM   12  S   UNL     1      -5.948   3.770 -34.152  1.00  0.00    -0.082 SA
BRANCH  12  13
HETATM   13  C   UNL     1      -7.190   5.047 -33.762  1.00  0.00     0.185 C 
BRANCH  13  14
HETATM   14  C   UNL     1      -8.616   4.510 -33.662  1.00  0.00     0.227 C 
HETATM   15  N   UNL     1      -8.665   3.131 -33.673  1.00  0.00    -0.360 N 
HETATM   16  H   UNL     1      -7.809   2.601 -33.793  1.00  0.00     0.162 HD
HETATM   17  O   UNL     1      -9.613   5.221 -33.546  1.00  0.00    -0.273 OA
BRANCH  15  18
HETATM   18  C   UNL     1      -9.867   2.369 -33.378  1.00  0.00     0.127 C 
BRANCH  18  19
HETATM   19  C   UNL     1      -9.931   1.006 -34.074  1.00  0.00     0.058 C 
BRANCH  19  20
HETATM   20  C   UNL     1      -8.600   0.291 -33.999  1.00  0.00    -0.057 A 
HETATM   21  C   UNL     1      -8.114  -0.195 -32.775  1.00  0.00     0.009 A 
HETATM   22  C   UNL     1      -6.853  -0.791 -32.699  1.00  0.00     0.025 A 
HETATM   23  C   UNL     1      -6.079  -0.921 -33.854  1.00  0.00     0.074 A 
HETATM   24  C   UNL     1      -6.553  -0.453 -35.082  1.00  0.00     0.025 A 
HETATM   25  C   UNL     1      -7.811   0.147 -35.151  1.00  0.00     0.009 A 
BRANCH  23  26
HETATM   26  S   UNL     1      -4.445  -1.595 -33.740  1.00  0.00     0.239 S 
HETATM   27  O   UNL     1      -4.361  -2.772 -34.571  1.00  0.00    -0.206 OA
HETATM   28  O   UNL     1      -3.489  -0.518 -33.820  1.00  0.00    -0.206 OA
BRANCH  26  29
HETATM   29  N   UNL     1      -4.400  -2.144 -32.154  1.00  0.00    -0.225 NA
HETATM   30  H   UNL     1      -5.274  -1.905 -31.683  1.00  0.00     0.136 HD
HETATM   31  H   UNL     1      -4.194  -3.144 -32.143  1.00  0.00     0.136 HD
ENDBRANCH  26  29
ENDBRANCH  23  26
ENDBRANCH  19  20
ENDBRANCH  18  19
ENDBRANCH  15  18
ENDBRANCH  13  14
ENDBRANCH  12  13
ENDBRANCH   2  12
BRANCH   1  32
HETATM   32  C   UNL     1      -4.551   3.280 -31.509  1.00  0.00     0.076 A 
HETATM   33  C   UNL     1      -5.482   3.797 -30.598  1.00  0.00     0.096 A 
HETATM   34  C   UNL     1      -6.163   2.912 -29.765  1.00  0.00     0.039 A 
HETATM   35  C   UNL     1      -5.868   1.544 -29.818  1.00  0.00     0.003 A 
HETATM   36  C   UNL     1      -4.904   1.052 -30.705  1.00  0.00     0.002 A 
HETATM   37  C   UNL     1      -4.231   1.922 -31.561  1.00  0.00     0.033 A 
BRANCH  33  38
HETATM   38  O   UNL     1      -5.741   5.141 -30.627  1.00  0.00    -0.349 OA
BRANCH  38  39
HETATM   39  C   UNL     1      -5.300   5.863 -29.468  1.00  0.00     0.171 C 
HETATM   40  C   UNL     1      -5.579   7.342 -29.656  1.00  0.00     0.034 C 
ENDBRANCH  38  39
ENDBRANCH  33  38
ENDBRANCH   1  32
BRANCH   6  41
HETATM   41  N   UNL     1      -2.038   4.295 -30.789  1.00  0.00    -0.384 N 
HETATM   42  H   UNL     1      -1.612   3.375 -30.813  1.00  0.00     0.157 HD
HETATM   43  H   UNL     1      -2.398   4.557 -29.878  1.00  0.00     0.157 HD
ENDBRANCH   6  41
TORSDOF 12
ENDMDL
MODEL 5
REMARK VINA RESULT:      -8.4      2.983      7.752
REMARK  12 active torsions:
REMARK  status: ('A' for Active; 'I' for Inactive)
REMARK    1  A    between atoms: C_2  and  O_3 
REMARK    2  A    between atoms: O_3  and  C_4 
REMARK    3  A    between atoms: C_5  and  N_6 
REMARK    4  A    between atoms: C_7  and  S_8 
REMARK    5  A    between atoms: S_8  and  C_9 
REMARK    6  A    between atoms: C_9  and  C_10 
REMARK       I    between atoms: C_10  and  N_11 
REMARK    7  A    between atoms: N_11  and  C_12 
REMARK    8  A    between atoms: C_12  and  C_13 
REMARK    9  A    between atoms: C_13  and  C_14 
REMARK   10  A    between atoms: C_17  and  S_18 
REMARK   11  A    between atoms: S_18  and  N_19 
REMARK   12  A    between atoms: C_28  and  N_29 
ROOT
HETATM    1  N   UNL     1      -5.212   4.344 -32.344  1.00  0.00    -0.273 N 
HETATM    2  C   UNL     1      -5.051   3.104 -31.805  1.00  0.00     0.177 A 
HETATM    3  N   UNL     1      -5.949   2.472 -31.015  1.00  0.00    -0.204 NA
HETATM    4  C   UNL     1      -7.050   3.204 -30.837  1.00  0.00     0.162 A 
HETATM    5  C   UNL     1      -7.314   4.448 -31.369  1.00  0.00     0.081 A 
HETATM    6  C   UNL     1      -6.359   5.063 -32.196  1.00  0.00     0.124 A 
HETATM    7  N   UNL     1      -8.137   2.852 -30.091  1.00  0.00    -0.260 N 
HETATM    8  H   UNL     1      -8.281   1.997 -29.564  1.00  0.00     0.191 HD
HETATM    9  N   UNL     1      -9.100   3.785 -30.090  1.00  0.00    -0.177 NA
HETATM   10  C   UNL     1      -8.608   4.767 -30.856  1.00  0.00     0.068 A 
HETATM   11  C   UNL     1      -9.410   6.002 -31.056  1.00  0.00     0.073 C 
ENDROOT
BRANCH   2  12
HETATM   12  S   UNL     1      -3.574   2.122 -32.126  1.00  0.00    -0.082 SA
BRANCH  12  13
HETATM   13  C   UNL     1      -3.973   0.633 -31.154  1.00  0.00     0.185 C 
BRANCH  13  14
HETATM   14  C   UNL     1      -3.679  -0.677 -31.883  1.00  0.00     0.227 C 
HETATM   15  N   UNL     1      -4.589  -0.941 -32.886  1.00  0.00    -0.360 N 
HETATM   16  H   UNL     1      -5.373  -0.314 -33.028  1.00  0.00     0.162 HD
HETATM   17  O   UNL     1      -2.717  -1.402 -31.634  1.00  0.00    -0.273 OA
BRANCH  15  18
HETATM   18  C   UNL     1      -4.418  -2.003 -33.864  1.00  0.00     0.127 C 
BRANCH  18  19
HETATM   19  C   UNL     1      -5.715  -2.426 -34.561  1.00  0.00     0.058 C 
BRANCH  19  20
HETATM   20  C   UNL     1      -6.777  -1.356 -34.436  1.00  0.00    -0.057 A 
HETATM   21  C   UNL     1      -6.825  -0.283 -35.339  1.00  0.00     0.009 A 
HETATM   22  C   UNL     1      -7.763   0.740 -35.177  1.00  0.00     0.025 A 
HETATM   23  C   UNL     1      -8.673   0.682 -34.119  1.00  0.00     0.074 A 
HETATM   24  C   UNL     1      -8.647  -0.386 -33.219  1.00  0.00     0.025 A 
HETATM   25  C   UNL     1      -7.703  -1.402 -33.382  1.00  0.00     0.009 A 
BRANCH  23  26
HETATM   26  S   UNL     1      -9.802   2.021 -33.863  1.00  0.00     0.239 S 
HETATM   27  O   UNL     1      -9.091   3.270 -33.996  1.00  0.00    -0.206 OA
HETATM   28  O   UNL     1     -11.024   1.744 -34.578  1.00  0.00    -0.206 OA
BRANCH  26  29
HETATM   29  N   UNL     1     -10.169   1.868 -32.233  1.00  0.00    -0.225 NA
HETATM   30  H   UNL     1     -10.914   1.179 -32.111  1.00  0.00     0.136 HD
HETATM   31  H   UNL     1      -9.322   1.643 -31.710  1.00  0.00     0.136 HD
ENDBRANCH  26  29
ENDBRANCH  23  26
ENDBRANCH  19  20
ENDBRANCH  18  19
ENDBRANCH  15  18
ENDBRANCH  13  14
ENDBRANCH  12  13
ENDBRANCH   2  12
BRANCH   1  32
HETATM   32  C   UNL     1      -4.097   4.979 -32.986  1.00  0.00     0.076 A 
HETATM   33  C   UNL     1      -3.194   5.700 -32.191  1.00  0.00     0.096 A 
HETATM   34  C   UNL     1      -2.101   6.306 -32.805  1.00  0.00     0.039 A 
HETATM   35  C   UNL     1      -1.954   6.227 -34.195  1.00  0.00     0.003 A 
HETATM   36  C   UNL     1      -2.889   5.538 -34.976  1.00  0.00     0.002 A 
HETATM   37  C   UNL     1      -3.976   4.908 -34.375  1.00  0.00     0.033 A 
BRANCH  33  38
HETATM   38  O   UNL     1      -3.386   5.705 -30.835  1.00  0.00    -0.349 OA
BRANCH  38  39
HETATM   39  C   UNL     1      -3.363   7.007 -30.230  1.00  0.00     0.171 C 
HETATM   40  C   UNL     1      -4.756   7.368 -29.754  1.00  0.00     0.034 C 
ENDBRANCH  38  39
ENDBRANCH  33  38
ENDBRANCH   1  32
BRANCH   6  41
HETATM   41  N   UNL     1      -6.560   6.306 -32.796  1.00  0.00    -0.384 N 
HETATM   42  H   UNL     1      -5.894   6.596 -33.505  1.00  0.00     0.157 HD
HETATM   43  H   UNL     1      -6.937   7.072 -32.249  1.00  0.00     0.157 HD
ENDBRANCH   6  41
TORSDOF 12
ENDMDL
MODEL 6
REMARK VINA RESULT:      -8.3      1.539      2.606
REMARK  12 active torsions:
REMARK  status: ('A' for Active; 'I' for Inactive)
REMARK    1  A    between atoms: C_2  and  O_3 
REMARK    2  A    between atoms: O_3  and  C_4 
REMARK    3  A    between atoms: C_5  and  N_6 
REMARK    4  A    between atoms: C_7  and  S_8 
REMARK    5  A    between atoms: S_8  and  C_9 
REMARK    6  A    between atoms: C_9  and  C_10 
REMARK       I    between atoms: C_10  and  N_11 
REMARK    7  A    between atoms: N_11  and  C_12 
REMARK    8  A    between atoms: C_12  and  C_13 
REMARK    9  A    between atoms: C_13  and  C_14 
REMARK   10  A    between atoms: C_17  and  S_18 
REMARK   11  A    between atoms: S_18  and  N_19 
REMARK   12  A    between atoms: C_28  and  N_29 
ROOT
HETATM    1  N   UNL     1      -8.058   2.163 -32.391  1.00  0.00    -0.273 N 
HETATM    2  C   UNL     1      -7.728   3.354 -32.961  1.00  0.00     0.177 A 
HETATM    3  N   UNL     1      -8.503   4.048 -33.827  1.00  0.00    -0.204 NA
HETATM    4  C   UNL     1      -9.665   3.433 -34.049  1.00  0.00     0.162 A 
HETATM    5  C   UNL     1     -10.097   2.248 -33.492  1.00  0.00     0.081 A 
HETATM    6  C   UNL     1      -9.267   1.568 -32.586  1.00  0.00     0.124 A 
HETATM    7  N   UNL     1     -10.661   3.870 -34.874  1.00  0.00    -0.260 N 
HETATM    8  H   UNL     1     -10.677   4.713 -35.438  1.00  0.00     0.191 HD
HETATM    9  N   UNL     1     -11.720   3.048 -34.903  1.00  0.00    -0.177 NA
HETATM   10  C   UNL     1     -11.386   2.051 -34.075  1.00  0.00     0.068 A 
HETATM   11  C   UNL     1     -12.331   0.920 -33.884  1.00  0.00     0.073 C 
ENDROOT
BRANCH   2  12
HETATM   12  S   UNL     1      -6.173   4.182 -32.580  1.00  0.00    -0.082 SA
BRANCH  12  13
HETATM   13  C   UNL     1      -5.687   4.715 -34.255  1.00  0.00     0.185 C 
BRANCH  13  14
HETATM   14  C   UNL     1      -4.197   5.020 -34.397  1.00  0.00     0.227 C 
HETATM   15  N   UNL     1      -3.471   4.643 -33.286  1.00  0.00    -0.360 N 
HETATM   16  H   UNL     1      -3.953   4.262 -32.479  1.00  0.00     0.162 HD
HETATM   17  O   UNL     1      -3.688   5.511 -35.403  1.00  0.00    -0.273 OA
BRANCH  15  18
HETATM   18  C   UNL     1      -2.018   4.625 -33.247  1.00  0.00     0.127 C 
BRANCH  18  19
HETATM   19  C   UNL     1      -1.377   6.013 -33.157  1.00  0.00     0.058 C 
BRANCH  19  20
HETATM   20  C   UNL     1      -0.982   6.342 -31.734  1.00  0.00    -0.057 A 
HETATM   21  C   UNL     1       0.068   5.655 -31.103  1.00  0.00     0.009 A 
HETATM   22  C   UNL     1       0.382   5.913 -29.766  1.00  0.00     0.025 A 
HETATM   23  C   UNL     1      -0.342   6.875 -29.059  1.00  0.00     0.074 A 
HETATM   24  C   UNL     1      -1.381   7.576 -29.676  1.00  0.00     0.025 A 
HETATM   25  C   UNL     1      -1.695   7.311 -31.010  1.00  0.00     0.009 A 
BRANCH  23  26
HETATM   26  S   UNL     1      -0.001   7.136 -27.342  1.00  0.00     0.239 S 
HETATM   27  O   UNL     1       1.421   7.025 -27.120  1.00  0.00    -0.206 OA
HETATM   28  O   UNL     1      -0.773   8.265 -26.879  1.00  0.00    -0.206 OA
BRANCH  26  29
HETATM   29  N   UNL     1      -0.688   5.778 -26.634  1.00  0.00    -0.225 NA
HETATM   30  H   UNL     1      -0.827   5.055 -27.343  1.00  0.00     0.136 HD
HETATM   31  H   UNL     1      -0.111   5.470 -25.850  1.00  0.00     0.136 HD
ENDBRANCH  26  29
ENDBRANCH  23  26
ENDBRANCH  19  20
ENDBRANCH  18  19
ENDBRANCH  15  18
ENDBRANCH  13  14
ENDBRANCH  12  13
ENDBRANCH   2  12
BRANCH   1  32
HETATM   32  C   UNL     1      -7.060   1.437 -31.657  1.00  0.00     0.076 A 
HETATM   33  C   UNL     1      -6.420   0.363 -32.292  1.00  0.00     0.096 A 
HETATM   34  C   UNL     1      -5.439  -0.336 -31.593  1.00  0.00     0.039 A 
HETATM   35  C   UNL     1      -5.152   0.011 -30.267  1.00  0.00     0.003 A 
HETATM   36  C   UNL     1      -5.832   1.060 -29.637  1.00  0.00     0.002 A 
HETATM   37  C   UNL     1      -6.800   1.783 -30.331  1.00  0.00     0.033 A 
BRANCH  33  38
HETATM   38  O   UNL     1      -6.731   0.104 -33.600  1.00  0.00    -0.349 OA
BRANCH  38  39
HETATM   39  C   UNL     1      -5.889  -0.870 -34.236  1.00  0.00     0.171 C 
HETATM   40  C   UNL     1      -6.710  -2.096 -34.587  1.00  0.00     0.034 C 
ENDBRANCH  38  39
ENDBRANCH  33  38
ENDBRANCH   1  32
BRANCH   6  41
HETATM   41  N   UNL     1      -9.640   0.379 -31.957  1.00  0.00    -0.384 N 
HETATM   42  H   UNL     1      -8.919  -0.321 -31.817  1.00  0.00     0.157 HD
HETATM   43  H   UNL     1     -10.562  -0.008 -32.122  1.00  0.00     0.157 HD
ENDBRANCH   6  41
TORSDOF 12
ENDMDL
MODEL 7
REMARK VINA RESULT:      -8.1      3.796      8.530
REMARK  12 active torsions:
REMARK  status: ('A' for Active; 'I' for Inactive)
REMARK    1  A    between atoms: C_2  and  O_3 
REMARK    2  A    between atoms: O_3  and  C_4 
REMARK    3  A    between atoms: C_5  and  N_6 
REMARK    4  A    between atoms: C_7  and  S_8 
REMARK    5  A    between atoms: S_8  and  C_9 
REMARK    6  A    between atoms: C_9  and  C_10 
REMARK       I    between atoms: C_10  and  N_11 
REMARK    7  A    between atoms: N_11  and  C_12 
REMARK    8  A    between atoms: C_12  and  C_13 
REMARK    9  A    between atoms: C_13  and  C_14 
REMARK   10  A    between atoms: C_17  and  S_18 
REMARK   11  A    between atoms: S_18  and  N_19 
REMARK   12  A    between atoms: C_28  and  N_29 
ROOT
HETATM    1  N   UNL     1      -4.295   5.653 -31.146  1.00  0.00    -0.273 N 
HETATM    2  C   UNL     1      -4.779   4.525 -30.560  1.00  0.00     0.177 A 
HETATM    3  N   UNL     1      -5.533   4.489 -29.437  1.00  0.00    -0.204 NA
HETATM    4  C   UNL     1      -5.776   5.713 -28.967  1.00  0.00     0.162 A 
HETATM    5  C   UNL     1      -5.357   6.909 -29.512  1.00  0.00     0.081 A 
HETATM    6  C   UNL     1      -4.589   6.901 -30.688  1.00  0.00     0.124 A 
HETATM    7  N   UNL     1      -6.500   6.017 -27.851  1.00  0.00    -0.260 N 
HETATM    8  H   UNL     1      -6.958   5.375 -27.212  1.00  0.00     0.191 HD
HETATM    9  N   UNL     1      -6.581   7.335 -27.618  1.00  0.00    -0.177 NA
HETATM   10  C   UNL     1      -5.881   7.889 -28.615  1.00  0.00     0.068 A 
HETATM   11  C   UNL     1      -5.729   9.367 -28.660  1.00  0.00     0.073 C 
ENDROOT
BRANCH   2  12
HETATM   12  S   UNL     1      -4.481   2.893 -31.267  1.00  0.00    -0.082 SA
BRANCH  12  13
HETATM   13  C   UNL     1      -5.588   1.894 -30.219  1.00  0.00     0.185 C 
BRANCH  13  14
HETATM   14  C   UNL     1      -6.592   1.054 -31.007  1.00  0.00     0.227 C 
HETATM   15  N   UNL     1      -7.083   1.717 -32.114  1.00  0.00    -0.360 N 
HETATM   16  H   UNL     1      -6.802   2.676 -32.288  1.00  0.00     0.162 HD
HETATM   17  O   UNL     1      -6.905  -0.099 -30.716  1.00  0.00    -0.273 OA
BRANCH  15  18
HETATM   18  C   UNL     1      -7.882   1.074 -33.144  1.00  0.00     0.127 C 
BRANCH  18  19
HETATM   19  C   UNL     1      -7.099   0.717 -34.412  1.00  0.00     0.058 C 
BRANCH  19  20
HETATM   20  C   UNL     1      -6.363  -0.595 -34.249  1.00  0.00    -0.057 A 
HETATM   21  C   UNL     1      -5.029  -0.621 -33.813  1.00  0.00     0.009 A 
HETATM   22  C   UNL     1      -4.332  -1.829 -33.732  1.00  0.00     0.025 A 
HETATM   23  C   UNL     1      -4.976  -3.022 -34.069  1.00  0.00     0.074 A 
HETATM   24  C   UNL     1      -6.306  -3.015 -34.493  1.00  0.00     0.025 A 
HETATM   25  C   UNL     1      -6.997  -1.804 -34.578  1.00  0.00     0.009 A 
BRANCH  23  26
HETATM   26  S   UNL     1      -4.065  -4.540 -34.051  1.00  0.00     0.239 S 
HETATM   27  O   UNL     1      -2.889  -4.395 -34.874  1.00  0.00    -0.206 OA
HETATM   28  O   UNL     1      -4.010  -5.035 -32.697  1.00  0.00    -0.206 OA
BRANCH  26  29
HETATM   29  N   UNL     1      -5.090  -5.576 -34.885  1.00  0.00    -0.225 NA
HETATM   30  H   UNL     1      -5.385  -6.336 -34.270  1.00  0.00     0.136 HD
HETATM   31  H   UNL     1      -5.869  -5.046 -35.276  1.00  0.00     0.136 HD
ENDBRANCH  26  29
ENDBRANCH  23  26
ENDBRANCH  19  20
ENDBRANCH  18  19
ENDBRANCH  15  18
ENDBRANCH  13  14
ENDBRANCH  12  13
ENDBRANCH   2  12
BRANCH   1  32
HETATM   32  C   UNL     1      -3.338   5.535 -32.210  1.00  0.00     0.076 A 
HETATM   33  C   UNL     1      -3.800   5.615 -33.532  1.00  0.00     0.096 A 
HETATM   34  C   UNL     1      -2.875   5.518 -34.568  1.00  0.00     0.039 A 
HETATM   35  C   UNL     1      -1.525   5.293 -34.274  1.00  0.00     0.003 A 
HETATM   36  C   UNL     1      -1.090   5.173 -32.950  1.00  0.00     0.002 A 
HETATM   37  C   UNL     1      -1.999   5.291 -31.901  1.00  0.00     0.033 A 
BRANCH  33  38
HETATM   38  O   UNL     1      -5.129   5.869 -33.739  1.00  0.00    -0.349 OA
BRANCH  38  39
HETATM   39  C   UNL     1      -5.892   4.743 -34.199  1.00  0.00     0.171 C 
HETATM   40  C   UNL     1      -7.318   4.858 -33.696  1.00  0.00     0.034 C 
ENDBRANCH  38  39
ENDBRANCH  33  38
ENDBRANCH   1  32
BRANCH   6  41
HETATM   41  N   UNL     1      -4.150   8.066 -31.317  1.00  0.00    -0.384 N 
HETATM   42  H   UNL     1      -4.748   8.464 -32.033  1.00  0.00     0.157 HD
HETATM   43  H   UNL     1      -3.160   8.203 -31.487  1.00  0.00     0.157 HD
ENDBRANCH   6  41
TORSDOF 12
ENDMDL
MODEL 8
REMARK VINA RESULT:      -8.0      2.898      9.281
REMARK  12 active torsions:
REMARK  status: ('A' for Active; 'I' for Inactive)
REMARK    1  A    between atoms: C_2  and  O_3 
REMARK    2  A    between atoms: O_3  and  C_4 
REMARK    3  A    between atoms: C_5  and  N_6 
REMARK    4  A    between atoms: C_7  and  S_8 
REMARK    5  A    between atoms: S_8  and  C_9 
REMARK    6  A    between atoms: C_9  and  C_10 
REMARK       I    between atoms: C_10  and  N_11 
REMARK    7  A    between atoms: N_11  and  C_12 
REMARK    8  A    between atoms: C_12  and  C_13 
REMARK    9  A    between atoms: C_13  and  C_14 
REMARK   10  A    between atoms: C_17  and  S_18 
REMARK   11  A    between atoms: S_18  and  N_19 
REMARK   12  A    between atoms: C_28  and  N_29 
ROOT
HETATM    1  N   UNL     1      -3.794   5.016 -31.434  1.00  0.00    -0.273 N 
HETATM    2  C   UNL     1      -2.772   4.157 -31.696  1.00  0.00     0.177 A 
HETATM    3  N   UNL     1      -1.468   4.386 -31.419  1.00  0.00    -0.204 NA
HETATM    4  C   UNL     1      -1.290   5.565 -30.824  1.00  0.00     0.162 A 
HETATM    5  C   UNL     1      -2.265   6.481 -30.489  1.00  0.00     0.081 A 
HETATM    6  C   UNL     1      -3.610   6.197 -30.782  1.00  0.00     0.124 A 
HETATM    7  N   UNL     1      -0.097   6.092 -30.422  1.00  0.00    -0.260 N 
HETATM    8  H   UNL     1       0.827   5.681 -30.511  1.00  0.00     0.191 HD
HETATM    9  N   UNL     1      -0.219   7.298 -29.850  1.00  0.00    -0.177 NA
HETATM   10  C   UNL     1      -1.532   7.552 -29.894  1.00  0.00     0.068 A 
HETATM   11  C   UNL     1      -2.039   8.845 -29.364  1.00  0.00     0.073 C 
ENDROOT
BRANCH   2  12
HETATM   12  S   UNL     1      -3.066   2.542 -32.443  1.00  0.00    -0.082 SA
BRANCH  12  13
HETATM   13  C   UNL     1      -3.068   1.503 -30.945  1.00  0.00     0.185 C 
BRANCH  13  14
HETATM   14  C   UNL     1      -3.878   0.215 -31.089  1.00  0.00     0.227 C 
HETATM   15  N   UNL     1      -5.237   0.429 -30.986  1.00  0.00    -0.360 N 
HETATM   16  H   UNL     1      -5.582   1.361 -30.781  1.00  0.00     0.162 HD
HETATM   17  O   UNL     1      -3.382  -0.888 -31.311  1.00  0.00    -0.273 OA
BRANCH  15  18
HETATM   18  C   UNL     1      -6.234  -0.582 -31.296  1.00  0.00     0.127 C 
BRANCH  18  19
HETATM   19  C   UNL     1      -6.561  -0.702 -32.788  1.00  0.00     0.058 C 
BRANCH  19  20
HETATM   20  C   UNL     1      -7.798   0.092 -33.142  1.00  0.00    -0.057 A 
HETATM   21  C   UNL     1      -8.787   0.348 -32.179  1.00  0.00     0.009 A 
HETATM   22  C   UNL     1      -9.961   1.021 -32.527  1.00  0.00     0.025 A 
HETATM   23  C   UNL     1     -10.142   1.459 -33.841  1.00  0.00     0.074 A 
HETATM   24  C   UNL     1      -9.163   1.223 -34.809  1.00  0.00     0.025 A 
HETATM   25  C   UNL     1      -7.994   0.545 -34.456  1.00  0.00     0.009 A 
BRANCH  23  26
HETATM   26  S   UNL     1     -11.667   2.232 -34.301  1.00  0.00     0.239 S 
HETATM   27  O   UNL     1     -11.386   3.526 -34.875  1.00  0.00    -0.206 OA
HETATM   28  O   UNL     1     -12.505   1.257 -34.957  1.00  0.00    -0.206 OA
BRANCH  26  29
HETATM   29  N   UNL     1     -12.376   2.530 -32.810  1.00  0.00    -0.225 NA
HETATM   30  H   UNL     1     -11.812   3.206 -32.291  1.00  0.00     0.136 HD
HETATM   31  H   UNL     1     -13.343   2.828 -32.943  1.00  0.00     0.136 HD
ENDBRANCH  26  29
ENDBRANCH  23  26
ENDBRANCH  19  20
ENDBRANCH  18  19
ENDBRANCH  15  18
ENDBRANCH  13  14
ENDBRANCH  12  13
ENDBRANCH   2  12
BRANCH   1  32
HETATM   32  C   UNL     1      -5.098   4.738 -31.968  1.00  0.00     0.076 A 
HETATM   33  C   UNL     1      -5.417   5.245 -33.236  1.00  0.00     0.096 A 
HETATM   34  C   UNL     1      -6.673   4.966 -33.769  1.00  0.00     0.039 A 
HETATM   35  C   UNL     1      -7.601   4.238 -33.013  1.00  0.00     0.003 A 
HETATM   36  C   UNL     1      -7.278   3.777 -31.732  1.00  0.00     0.002 A 
HETATM   37  C   UNL     1      -6.017   4.028 -31.195  1.00  0.00     0.033 A 
BRANCH  33  38
HETATM   38  O   UNL     1      -4.447   5.920 -33.928  1.00  0.00    -0.349 OA
BRANCH  38  39
HETATM   39  C   UNL     1      -3.917   5.215 -35.061  1.00  0.00     0.171 C 
HETATM   40  C   UNL     1      -2.401   5.240 -35.008  1.00  0.00     0.034 C 
ENDBRANCH  38  39
ENDBRANCH  33  38
ENDBRANCH   1  32
BRANCH   6  41
HETATM   41  N   UNL     1      -4.658   7.056 -30.452  1.00  0.00    -0.384 N 
HETATM   42  H   UNL     1      -4.751   7.909 -30.993  1.00  0.00     0.157 HD
HETATM   43  H   UNL     1      -4.944   7.150 -29.483  1.00  0.00     0.157 HD
ENDBRANCH   6  41
TORSDOF 12
ENDMDL
MODEL 9
REMARK VINA RESULT:      -8.0      3.136      8.101
REMARK  12 active torsions:
REMARK  status: ('A' for Active; 'I' for Inactive)
REMARK    1  A    between atoms: C_2  and  O_3 
REMARK    2  A    between atoms: O_3  and  C_4 
REMARK    3  A    between atoms: C_5  and  N_6 
REMARK    4  A    between atoms: C_7  and  S_8 
REMARK    5  A    between atoms: S_8  and  C_9 
REMARK    6  A    between atoms: C_9  and  C_10 
REMARK       I    between atoms: C_10  and  N_11 
REMARK    7  A    between atoms: N_11  and  C_12 
REMARK    8  A    between atoms: C_12  and  C_13 
REMARK    9  A    between atoms: C_13  and  C_14 
REMARK   10  A    between atoms: C_17  and  S_18 
REMARK   11  A    between atoms: S_18  and  N_19 
REMARK   12  A    between atoms: C_28  and  N_29 
ROOT
HETATM    1  N   UNL     1      -4.845   5.054 -31.268  1.00  0.00    -0.273 N 
HETATM    2  C   UNL     1      -4.745   3.699 -31.183  1.00  0.00     0.177 A 
HETATM    3  N   UNL     1      -5.723   2.869 -30.753  1.00  0.00    -0.204 NA
HETATM    4  C   UNL     1      -6.832   3.536 -30.435  1.00  0.00     0.162 A 
HETATM    5  C   UNL     1      -7.035   4.898 -30.522  1.00  0.00     0.081 A 
HETATM    6  C   UNL     1      -5.998   5.722 -30.988  1.00  0.00     0.124 A 
HETATM    7  N   UNL     1      -7.992   2.991 -29.966  1.00  0.00    -0.260 N 
HETATM    8  H   UNL     1      -8.193   2.013 -29.786  1.00  0.00     0.191 HD
HETATM    9  N   UNL     1      -8.946   3.904 -29.731  1.00  0.00    -0.177 NA
HETATM   10  C   UNL     1      -8.374   5.070 -30.055  1.00  0.00     0.068 A 
HETATM   11  C   UNL     1      -9.146   6.328 -29.887  1.00  0.00     0.073 C 
ENDROOT
BRANCH   2  12
HETATM   12  S   UNL     1      -3.247   2.832 -31.686  1.00  0.00    -0.082 SA
BRANCH  12  13
HETATM   13  C   UNL     1      -3.530   1.226 -30.870  1.00  0.00     0.185 C 
BRANCH  13  14
HETATM   14  C   UNL     1      -3.221   0.021 -31.757  1.00  0.00     0.227 C 
HETATM   15  N   UNL     1      -4.222  -0.234 -32.671  1.00  0.00    -0.360 N 
HETATM   16  H   UNL     1      -5.066   0.327 -32.658  1.00  0.00     0.162 HD
HETATM   17  O   UNL     1      -2.180  -0.631 -31.694  1.00  0.00    -0.273 OA
BRANCH  15  18
HETATM   18  C   UNL     1      -4.086  -1.182 -33.765  1.00  0.00     0.127 C 
BRANCH  18  19
HETATM   19  C   UNL     1      -5.404  -1.835 -34.194  1.00  0.00     0.058 C 
BRANCH  19  20
HETATM   20  C   UNL     1      -6.564  -0.876 -34.043  1.00  0.00    -0.057 A 
HETATM   21  C   UNL     1      -7.377  -0.907 -32.900  1.00  0.00     0.009 A 
HETATM   22  C   UNL     1      -8.490  -0.068 -32.796  1.00  0.00     0.025 A 
HETATM   23  C   UNL     1      -8.782   0.822 -33.832  1.00  0.00     0.074 A 
HETATM   24  C   UNL     1      -7.975   0.875 -34.971  1.00  0.00     0.025 A 
HETATM   25  C   UNL     1      -6.868   0.030 -35.072  1.00  0.00     0.009 A 
BRANCH  23  26
HETATM   26  S   UNL     1     -10.241   1.821 -33.739  1.00  0.00     0.239 S 
HETATM   27  O   UNL     1     -10.062   2.995 -34.560  1.00  0.00    -0.206 OA
HETATM   28  O   UNL     1     -11.399   0.967 -33.846  1.00  0.00    -0.206 OA
BRANCH  26  29
HETATM   29  N   UNL     1     -10.201   2.358 -32.149  1.00  0.00    -0.225 NA
HETATM   30  H   UNL     1      -9.931   1.588 -31.533  1.00  0.00     0.136 HD
HETATM   31  H   UNL     1      -9.586   3.169 -32.076  1.00  0.00     0.136 HD
ENDBRANCH  26  29
ENDBRANCH  23  26
ENDBRANCH  19  20
ENDBRANCH  18  19
ENDBRANCH  15  18
ENDBRANCH  13  14
ENDBRANCH  12  13
ENDBRANCH   2  12
BRANCH   1  32
HETATM   32  C   UNL     1      -3.667   5.828 -31.540  1.00  0.00     0.076 A 
HETATM   33  C   UNL     1      -3.489   6.335 -32.835  1.00  0.00     0.096 A 
HETATM   34  C   UNL     1      -2.357   7.101 -33.102  1.00  0.00     0.039 A 
HETATM   35  C   UNL     1      -1.404   7.303 -32.096  1.00  0.00     0.003 A 
HETATM   36  C   UNL     1      -1.579   6.753 -30.821  1.00  0.00     0.002 A 
HETATM   37  C   UNL     1      -2.717   6.004 -30.532  1.00  0.00     0.033 A 
BRANCH  33  38
HETATM   38  O   UNL     1      -4.479   6.123 -33.756  1.00  0.00    -0.349 OA
BRANCH  38  39
HETATM   39  C   UNL     1      -4.225   5.051 -34.677  1.00  0.00     0.171 C 
HETATM   40  C   UNL     1      -5.383   4.073 -34.649  1.00  0.00     0.034 C 
ENDBRANCH  38  39
ENDBRANCH  33  38
ENDBRANCH   1  32
BRANCH   6  41
HETATM   41  N   UNL     1      -6.131   7.103 -31.133  1.00  0.00    -0.384 N 
HETATM   42  H   UNL     1      -6.719   7.440 -31.888  1.00  0.00     0.157 HD
HETATM   43  H   UNL     1      -5.344   7.708 -30.924  1.00  0.00     0.157 HD
ENDBRANCH   6  41
TORSDOF 12
ENDMDL
MODEL 10
REMARK VINA RESULT:      -7.9      1.841      2.369
REMARK  12 active torsions:
REMARK  status: ('A' for Active; 'I' for Inactive)
REMARK    1  A    between atoms: C_2  and  O_3 
REMARK    2  A    between atoms: O_3  and  C_4 
REMARK    3  A    between atoms: C_5  and  N_6 
REMARK    4  A    between atoms: C_7  and  S_8 
REMARK    5  A    between atoms: S_8  and  C_9 
REMARK    6  A    between atoms: C_9  and  C_10 
REMARK       I    between atoms: C_10  and  N_11 
REMARK    7  A    between atoms: N_11  and  C_12 
REMARK    8  A    between atoms: C_12  and  C_13 
REMARK    9  A    between atoms: C_13  and  C_14 
REMARK   10  A    between atoms: C_17  and  S_18 
REMARK   11  A    between atoms: S_18  and  N_19 
REMARK   12  A    between atoms: C_28  and  N_29 
ROOT
HETATM    1  N   UNL     1      -8.428   2.593 -32.857  1.00  0.00    -0.273 N 
HETATM    2  C   UNL     1      -8.102   3.807 -33.378  1.00  0.00     0.177 A 
HETATM    3  N   UNL     1      -8.850   4.503 -34.265  1.00  0.00    -0.204 NA
HETATM    4  C   UNL     1      -9.983   3.865 -34.563  1.00  0.00     0.162 A 
HETATM    5  C   UNL     1     -10.409   2.654 -34.059  1.00  0.00     0.081 A 
HETATM    6  C   UNL     1      -9.608   1.971 -33.129  1.00  0.00     0.124 A 
HETATM    7  N   UNL     1     -10.947   4.298 -35.426  1.00  0.00    -0.260 N 
HETATM    8  H   UNL     1     -10.957   5.155 -35.969  1.00  0.00     0.191 HD
HETATM    9  N   UNL     1     -11.980   3.450 -35.531  1.00  0.00    -0.177 NA
HETATM   10  C   UNL     1     -11.661   2.439 -34.713  1.00  0.00     0.068 A 
HETATM   11  C   UNL     1     -12.583   1.280 -34.599  1.00  0.00     0.073 C 
ENDROOT
BRANCH   2  12
HETATM   12  S   UNL     1      -6.591   4.664 -32.897  1.00  0.00    -0.082 SA
BRANCH  12  13
HETATM   13  C   UNL     1      -5.487   4.129 -34.246  1.00  0.00     0.185 C 
BRANCH  13  14
HETATM   14  C   UNL     1      -4.385   5.133 -34.576  1.00  0.00     0.227 C 
HETATM   15  N   UNL     1      -3.847   5.719 -33.449  1.00  0.00    -0.360 N 
HETATM   16  H   UNL     1      -4.232   5.497 -32.538  1.00  0.00     0.162 HD
HETATM   17  O   UNL     1      -3.989   5.370 -35.716  1.00  0.00    -0.273 OA
BRANCH  15  18
HETATM   18  C   UNL     1      -2.649   6.543 -33.468  1.00  0.00     0.127 C 
BRANCH  18  19
HETATM   19  C   UNL     1      -1.381   5.813 -33.015  1.00  0.00     0.058 C 
BRANCH  19  20
HETATM   20  C   UNL     1      -1.105   6.057 -31.547  1.00  0.00    -0.057 A 
HETATM   21  C   UNL     1      -1.705   7.131 -30.872  1.00  0.00     0.009 A 
HETATM   22  C   UNL     1      -1.393   7.394 -29.536  1.00  0.00     0.025 A 
HETATM   23  C   UNL     1      -0.490   6.568 -28.863  1.00  0.00     0.074 A 
HETATM   24  C   UNL     1       0.106   5.487 -29.516  1.00  0.00     0.025 A 
HETATM   25  C   UNL     1      -0.205   5.233 -30.853  1.00  0.00     0.009 A 
BRANCH  23  26
HETATM   26  S   UNL     1      -0.028   6.955 -27.198  1.00  0.00     0.239 S 
HETATM   27  O   UNL     1       1.411   7.025 -27.111  1.00  0.00    -0.206 OA
HETATM   28  O   UNL     1      -0.888   8.005 -26.707  1.00  0.00    -0.206 OA
BRANCH  26  29
HETATM   29  N   UNL     1      -0.475   5.562 -26.375  1.00  0.00    -0.225 NA
HETATM   30  H   UNL     1       0.361   5.048 -26.089  1.00  0.00     0.136 HD
HETATM   31  H   UNL     1      -1.086   5.805 -25.594  1.00  0.00     0.136 HD
ENDBRANCH  26  29
ENDBRANCH  23  26
ENDBRANCH  19  20
ENDBRANCH  18  19
ENDBRANCH  15  18
ENDBRANCH  13  14
ENDBRANCH  12  13
ENDBRANCH   2  12
BRANCH   1  32
HETATM   32  C   UNL     1      -7.449   1.873 -32.092  1.00  0.00     0.076 A 
HETATM   33  C   UNL     1      -7.354   2.137 -30.718  1.00  0.00     0.096 A 
HETATM   34  C   UNL     1      -6.418   1.431 -29.966  1.00  0.00     0.039 A 
HETATM   35  C   UNL     1      -5.565   0.519 -30.600  1.00  0.00     0.003 A 
HETATM   36  C   UNL     1      -5.647   0.301 -31.980  1.00  0.00     0.002 A 
HETATM   37  C   UNL     1      -6.593   0.982 -32.742  1.00  0.00     0.033 A 
BRANCH  33  38
HETATM   38  O   UNL     1      -8.244   3.018 -30.164  1.00  0.00    -0.349 OA
BRANCH  38  39
HETATM   39  C   UNL     1      -7.649   4.045 -29.357  1.00  0.00     0.171 C 
HETATM   40  C   UNL     1      -8.415   5.341 -29.541  1.00  0.00     0.034 C 
ENDBRANCH  38  39
ENDBRANCH  33  38
ENDBRANCH   1  32
BRANCH   6  41
HETATM   41  N   UNL     1      -9.980   0.757 -32.551  1.00  0.00    -0.384 N 
HETATM   42  H   UNL     1      -9.275   0.029 -32.500  1.00  0.00     0.157 HD
HETATM   43  H   UNL     1     -10.923   0.408 -32.680  1.00  0.00     0.157 HD
ENDBRANCH   6  41
TORSDOF 12
ENDMDL
