MODEL 1
REMARK VINA RESULT:      -8.7      0.000      0.000
REMARK  4 active torsions:
REMARK  status: ('A' for Active; 'I' for Inactive)
REMARK    1  A    between atoms: C_5  and  C_6 
REMARK    2  A    between atoms: C_6  and  N_7 
REMARK    3  A    between atoms: C_13  and  C_14 
REMARK    4  A    between atoms: C_14  and  N_15 
ROOT
HETATM    1  N   UNL     1      -4.518   0.098 -32.844  1.00  0.00    -0.060 N 
HETATM    2  H   UNL     1      -4.461   0.862 -33.524  1.00  0.00     0.280 HD
HETATM    3  C   UNL     1      -5.997  -0.206 -32.629  1.00  0.00     0.274 C 
HETATM    4  C   UNL     1      -6.811  -0.234 -33.965  1.00  0.00     0.092 C 
HETATM    5  C   UNL     1      -8.202  -0.885 -33.753  1.00  0.00     0.041 C 
HETATM    6  C   UNL     1      -9.182  -0.024 -32.957  1.00  0.00     0.009 C 
HETATM    7  C   UNL     1      -9.396   1.354 -33.608  1.00  0.00     0.012 C 
HETATM    8  C   UNL     1      -8.038   2.055 -33.758  1.00  0.00     0.009 C 
HETATM    9  C   UNL     1      -7.031   1.194 -34.531  1.00  0.00     0.041 C 
HETATM   10  O   UNL     1      -6.108  -0.935 -35.024  1.00  0.00    -0.338 OA
HETATM   11  C   UNL     1      -5.627  -2.162 -34.662  1.00  0.00     0.077 A 
HETATM   12  C   UNL     1      -4.467  -2.253 -33.889  1.00  0.00     0.001 A 
HETATM   13  C   UNL     1      -3.714  -1.019 -33.503  1.00  0.00     0.276 C 
HETATM   14  C   UNL     1      -6.274  -3.302 -35.131  1.00  0.00     0.037 A 
HETATM   15  C   UNL     1      -5.793  -4.561 -34.776  1.00  0.00     0.003 A 
HETATM   16  C   UNL     1      -4.657  -4.673 -33.977  1.00  0.00     0.001 A 
HETATM   17  C   UNL     1      -3.988  -3.526 -33.543  1.00  0.00     0.012 A 
ENDROOT
BRANCH   1  18
HETATM   18  C   UNL     1      -3.839   0.625 -31.593  1.00  0.00     0.276 C 
BRANCH  18  19
HETATM   19  C   UNL     1      -3.952   2.089 -31.392  1.00  0.00     0.004 A 
HETATM   20  C   UNL     1      -4.960   2.766 -30.666  1.00  0.00     0.149 A 
HETATM   21  N   UNL     1      -4.757   4.079 -30.614  1.00  0.00    -0.185 NA
HETATM   22  N   UNL     1      -3.670   4.277 -31.377  1.00  0.00    -0.285 N 
HETATM   23  C   UNL     1      -3.190   5.618 -31.618  1.00  0.00     0.179 C 
HETATM   24  C   UNL     1      -3.138   3.108 -31.852  1.00  0.00     0.122 A 
ENDBRANCH  18  19
ENDBRANCH   1  18
BRANCH   7  25
HETATM   25  C   UNL     1     -10.423   2.159 -32.781  1.00  0.00     0.238 C 
BRANCH  25  26
HETATM   26  N   UNL     1     -11.859   1.912 -33.194  1.00  0.00    -0.078 N 
HETATM   27  H   UNL     1     -12.201   1.057 -32.741  1.00  0.00     0.278 HD
HETATM   28  C   UNL     1     -12.805   3.024 -32.812  1.00  0.00     0.269 C 
HETATM   29  C   UNL     1     -11.951   1.644 -34.682  1.00  0.00     0.269 C 
ENDBRANCH  25  26
ENDBRANCH   7  25
TORSDOF 4
ENDMDL
MODEL 2
REMARK VINA RESULT:      -8.7      1.896      5.925
REMARK  4 active torsions:
REMARK  status: ('A' for Active; 'I' for Inactive)
REMARK    1  A    between atoms: C_5  and  C_6 
REMARK    2  A    between atoms: C_6  and  N_7 
REMARK    3  A    between atoms: C_13  and  C_14 
REMARK    4  A    between atoms: C_14  and  N_15 
ROOT
HETATM    1  N   UNL     1      -6.648   2.688 -32.965  1.00  0.00    -0.060 N 
HETATM    2  H   UNL     1      -6.214   2.404 -32.083  1.00  0.00     0.280 HD
HETATM    3  C   UNL     1      -6.693   1.457 -33.864  1.00  0.00     0.274 C 
HETATM    4  C   UNL     1      -7.147   0.167 -33.104  1.00  0.00     0.092 C 
HETATM    5  C   UNL     1      -7.520  -0.960 -34.100  1.00  0.00     0.041 C 
HETATM    6  C   UNL     1      -6.323  -1.581 -34.821  1.00  0.00     0.009 C 
HETATM    7  C   UNL     1      -5.286  -2.143 -33.833  1.00  0.00     0.012 C 
HETATM    8  C   UNL     1      -4.839  -1.023 -32.882  1.00  0.00     0.009 C 
HETATM    9  C   UNL     1      -6.030  -0.369 -32.169  1.00  0.00     0.041 C 
HETATM   10  O   UNL     1      -8.268   0.416 -32.217  1.00  0.00    -0.338 OA
HETATM   11  C   UNL     1      -9.305   1.089 -32.799  1.00  0.00     0.077 A 
HETATM   12  C   UNL     1      -9.212   2.469 -32.999  1.00  0.00     0.001 A 
HETATM   13  C   UNL     1      -8.009   3.225 -32.529  1.00  0.00     0.276 C 
HETATM   14  C   UNL     1     -10.465   0.389 -33.120  1.00  0.00     0.037 A 
HETATM   15  C   UNL     1     -11.534   1.063 -33.708  1.00  0.00     0.003 A 
HETATM   16  C   UNL     1     -11.447   2.433 -33.948  1.00  0.00     0.001 A 
HETATM   17  C   UNL     1     -10.297   3.137 -33.585  1.00  0.00     0.012 A 
ENDROOT
BRANCH   1  18
HETATM   18  C   UNL     1      -5.756   3.786 -33.515  1.00  0.00     0.276 C 
BRANCH  18  19
HETATM   19  C   UNL     1      -4.409   3.860 -32.899  1.00  0.00     0.004 A 
HETATM   20  C   UNL     1      -3.870   2.974 -31.937  1.00  0.00     0.149 A 
HETATM   21  N   UNL     1      -2.613   3.268 -31.620  1.00  0.00    -0.185 NA
HETATM   22  N   UNL     1      -2.353   4.394 -32.303  1.00  0.00    -0.285 N 
HETATM   23  C   UNL     1      -1.081   5.059 -32.143  1.00  0.00     0.179 C 
HETATM   24  C   UNL     1      -3.396   4.780 -33.102  1.00  0.00     0.122 A 
ENDBRANCH  18  19
ENDBRANCH   1  18
BRANCH   7  25
HETATM   25  C   UNL     1      -4.125  -2.790 -34.620  1.00  0.00     0.238 C 
BRANCH  25  26
HETATM   26  N   UNL     1      -3.914  -4.253 -34.295  1.00  0.00    -0.078 N 
HETATM   27  H   UNL     1      -3.272  -4.666 -34.983  1.00  0.00     0.278 HD
HETATM   28  C   UNL     1      -3.317  -4.498 -32.931  1.00  0.00     0.269 C 
HETATM   29  C   UNL     1      -5.209  -5.027 -34.439  1.00  0.00     0.269 C 
ENDBRANCH  25  26
ENDBRANCH   7  25
TORSDOF 4
ENDMDL
MODEL 3
REMARK VINA RESULT:      -8.3      1.594      6.611
REMARK  4 active torsions:
REMARK  status: ('A' for Active; 'I' for Inactive)
REMARK    1  A    between atoms: C_5  and  C_6 
REMARK    2  A    between atoms: C_6  and  N_7 
REMARK    3  A    between atoms: C_13  and  C_14 
REMARK    4  A    between atoms: C_14  and  N_15 
ROOT
HETATM    1  N   UNL     1      -7.656   1.392 -33.332  1.00  0.00    -0.060 N 
HETATM    2  H   UNL     1      -7.965   1.578 -32.374  1.00  0.00     0.280 HD
HETATM    3  C   UNL     1      -6.199   1.835 -33.430  1.00  0.00     0.274 C 
HETATM    4  C   UNL     1      -5.348   1.399 -32.193  1.00  0.00     0.092 C 
HETATM    5  C   UNL     1      -3.833   1.546 -32.482  1.00  0.00     0.041 C 
HETATM    6  C   UNL     1      -3.344   2.994 -32.543  1.00  0.00     0.009 C 
HETATM    7  C   UNL     1      -3.657   3.760 -31.246  1.00  0.00     0.012 C 
HETATM    8  C   UNL     1      -5.167   3.696 -30.975  1.00  0.00     0.009 C 
HETATM    9  C   UNL     1      -5.681   2.251 -30.939  1.00  0.00     0.041 C 
HETATM   10  O   UNL     1      -5.629   0.035 -31.784  1.00  0.00    -0.338 OA
HETATM   11  C   UNL     1      -5.599  -0.874 -32.804  1.00  0.00     0.077 A 
HETATM   12  C   UNL     1      -6.677  -0.962 -33.688  1.00  0.00     0.001 A 
HETATM   13  C   UNL     1      -7.891  -0.107 -33.492  1.00  0.00     0.276 C 
HETATM   14  C   UNL     1      -4.515  -1.742 -32.898  1.00  0.00     0.037 A 
HETATM   15  C   UNL     1      -4.472  -2.679 -33.930  1.00  0.00     0.003 A 
HETATM   16  C   UNL     1      -5.522  -2.759 -34.842  1.00  0.00     0.001 A 
HETATM   17  C   UNL     1      -6.627  -1.913 -34.718  1.00  0.00     0.012 A 
ENDROOT
BRANCH   1  18
HETATM   18  C   UNL     1      -8.579   2.209 -34.217  1.00  0.00     0.276 C 
BRANCH  18  19
HETATM   19  C   UNL     1      -9.976   2.313 -33.731  1.00  0.00     0.004 A 
HETATM   20  C   UNL     1     -10.453   3.174 -32.714  1.00  0.00     0.149 A 
HETATM   21  N   UNL     1     -11.768   3.081 -32.544  1.00  0.00    -0.185 NA
HETATM   22  N   UNL     1     -12.144   2.101 -33.381  1.00  0.00    -0.285 N 
HETATM   23  C   UNL     1     -13.520   1.665 -33.413  1.00  0.00     0.179 C 
HETATM   24  C   UNL     1     -11.104   1.621 -34.131  1.00  0.00     0.122 A 
ENDBRANCH  18  19
ENDBRANCH   1  18
BRANCH   7  25
HETATM   25  C   UNL     1      -3.105   5.199 -31.353  1.00  0.00     0.238 C 
BRANCH  25  26
HETATM   26  N   UNL     1      -1.797   5.402 -30.618  1.00  0.00    -0.078 N 
HETATM   27  H   UNL     1      -1.706   4.691 -29.882  1.00  0.00     0.278 HD
HETATM   28  C   UNL     1      -0.576   5.287 -31.497  1.00  0.00     0.269 C 
HETATM   29  C   UNL     1      -1.790   6.733 -29.894  1.00  0.00     0.269 C 
ENDBRANCH  25  26
ENDBRANCH   7  25
TORSDOF 4
ENDMDL
MODEL 4
REMARK VINA RESULT:      -8.1      1.204      1.676
REMARK  4 active torsions:
REMARK  status: ('A' for Active; 'I' for Inactive)
REMARK    1  A    between atoms: C_5  and  C_6 
REMARK    2  A    between atoms: C_6  and  N_7 
REMARK    3  A    between atoms: C_13  and  C_14 
REMARK    4  A    between atoms: C_14  and  N_15 
ROOT
HETATM    1  N   UNL     1      -4.734   1.346 -32.131  1.00  0.00    -0.060 N 
HETATM    2  H   UNL     1      -4.722   1.997 -32.921  1.00  0.00     0.280 HD
HETATM    3  C   UNL     1      -6.065   0.603 -32.178  1.00  0.00     0.274 C 
HETATM    4  C   UNL     1      -6.455   0.147 -33.622  1.00  0.00     0.092 C 
HETATM    5  C   UNL     1      -7.604  -0.893 -33.584  1.00  0.00     0.041 C 
HETATM    6  C   UNL     1      -8.964  -0.309 -33.200  1.00  0.00     0.009 C 
HETATM    7  C   UNL     1      -9.386   0.832 -34.142  1.00  0.00     0.012 C 
HETATM    8  C   UNL     1      -8.297   1.915 -34.139  1.00  0.00     0.009 C 
HETATM    9  C   UNL     1      -6.919   1.343 -34.494  1.00  0.00     0.041 C 
HETATM   10  O   UNL     1      -5.327  -0.409 -34.347  1.00  0.00    -0.338 OA
HETATM   11  C   UNL     1      -4.627  -1.357 -33.655  1.00  0.00     0.077 A 
HETATM   12  C   UNL     1      -3.736  -0.968 -32.652  1.00  0.00     0.001 A 
HETATM   13  C   UNL     1      -3.498   0.483 -32.369  1.00  0.00     0.276 C 
HETATM   14  C   UNL     1      -4.771  -2.695 -34.014  1.00  0.00     0.037 A 
HETATM   15  C   UNL     1      -4.060  -3.673 -33.322  1.00  0.00     0.003 A 
HETATM   16  C   UNL     1      -3.191  -3.307 -32.295  1.00  0.00     0.001 A 
HETATM   17  C   UNL     1      -3.019  -1.961 -31.967  1.00  0.00     0.012 A 
ENDROOT
BRANCH   1  18
HETATM   18  C   UNL     1      -4.588   2.215 -30.895  1.00  0.00     0.276 C 
BRANCH  18  19
HETATM   19  C   UNL     1      -4.040   3.569 -31.147  1.00  0.00     0.004 A 
HETATM   20  C   UNL     1      -4.721   4.800 -30.989  1.00  0.00     0.149 A 
HETATM   21  N   UNL     1      -3.943   5.849 -31.235  1.00  0.00    -0.185 NA
HETATM   22  N   UNL     1      -2.780   5.312 -31.640  1.00  0.00    -0.285 N 
HETATM   23  C   UNL     1      -1.701   6.169 -32.073  1.00  0.00     0.179 C 
HETATM   24  C   UNL     1      -2.783   3.944 -31.587  1.00  0.00     0.122 A 
ENDBRANCH  18  19
ENDBRANCH   1  18
BRANCH   7  25
HETATM   25  C   UNL     1     -10.781   1.351 -33.728  1.00  0.00     0.238 C 
BRANCH  25  26
HETATM   26  N   UNL     1     -11.230   2.568 -34.508  1.00  0.00    -0.078 N 
HETATM   27  H   UNL     1     -10.456   2.901 -35.095  1.00  0.00     0.278 HD
HETATM   28  C   UNL     1     -12.401   2.309 -35.425  1.00  0.00     0.269 C 
HETATM   29  C   UNL     1     -11.549   3.716 -33.573  1.00  0.00     0.269 C 
ENDBRANCH  25  26
ENDBRANCH   7  25
TORSDOF 4
ENDMDL
MODEL 5
REMARK VINA RESULT:      -7.8      1.461      1.935
REMARK  4 active torsions:
REMARK  status: ('A' for Active; 'I' for Inactive)
REMARK    1  A    between atoms: C_5  and  C_6 
REMARK    2  A    between atoms: C_6  and  N_7 
REMARK    3  A    between atoms: C_13  and  C_14 
REMARK    4  A    between atoms: C_14  and  N_15 
ROOT
HETATM    1  N   UNL     1      -4.880   0.933 -31.664  1.00  0.00    -0.060 N 
HETATM    2  H   UNL     1      -4.794   1.717 -32.317  1.00  0.00     0.280 HD
HETATM    3  C   UNL     1      -6.193   0.224 -31.980  1.00  0.00     0.274 C 
HETATM    4  C   UNL     1      -6.429   0.041 -33.516  1.00  0.00     0.092 C 
HETATM    5  C   UNL     1      -7.566  -0.976 -33.785  1.00  0.00     0.041 C 
HETATM    6  C   UNL     1      -8.964  -0.459 -33.442  1.00  0.00     0.009 C 
HETATM    7  C   UNL     1      -9.298   0.838 -34.199  1.00  0.00     0.012 C 
HETATM    8  C   UNL     1      -8.225   1.893 -33.887  1.00  0.00     0.009 C 
HETATM    9  C   UNL     1      -6.813   1.382 -34.199  1.00  0.00     0.041 C 
HETATM   10  O   UNL     1      -5.228  -0.384 -34.211  1.00  0.00    -0.338 OA
HETATM   11  C   UNL     1      -4.594  -1.449 -33.635  1.00  0.00     0.077 A 
HETATM   12  C   UNL     1      -3.813  -1.257 -32.493  1.00  0.00     0.001 A 
HETATM   13  C   UNL     1      -3.619   0.116 -31.928  1.00  0.00     0.276 C 
HETATM   14  C   UNL     1      -4.688  -2.697 -34.245  1.00  0.00     0.037 A 
HETATM   15  C   UNL     1      -4.042  -3.792 -33.673  1.00  0.00     0.003 A 
HETATM   16  C   UNL     1      -3.287  -3.628 -32.514  1.00  0.00     0.001 A 
HETATM   17  C   UNL     1      -3.161  -2.365 -31.930  1.00  0.00     0.012 A 
ENDROOT
BRANCH   1  18
HETATM   18  C   UNL     1      -4.870   1.561 -30.282  1.00  0.00     0.276 C 
BRANCH  18  19
HETATM   19  C   UNL     1      -5.605   2.844 -30.176  1.00  0.00     0.004 A 
HETATM   20  C   UNL     1      -6.967   3.011 -29.829  1.00  0.00     0.149 A 
HETATM   21  N   UNL     1      -7.323   4.289 -29.759  1.00  0.00    -0.185 NA
HETATM   22  N   UNL     1      -6.226   4.961 -30.144  1.00  0.00    -0.285 N 
HETATM   23  C   UNL     1      -6.264   6.400 -30.264  1.00  0.00     0.179 C 
HETATM   24  C   UNL     1      -5.160   4.136 -30.387  1.00  0.00     0.122 A 
ENDBRANCH  18  19
ENDBRANCH   1  18
BRANCH   7  25
HETATM   25  C   UNL     1     -10.732   1.287 -33.842  1.00  0.00     0.238 C 
BRANCH  25  26
HETATM   26  N   UNL     1     -10.994   2.752 -34.115  1.00  0.00    -0.078 N 
HETATM   27  H   UNL     1     -10.103   3.229 -34.300  1.00  0.00     0.278 HD
HETATM   28  C   UNL     1     -11.886   3.004 -35.307  1.00  0.00     0.269 C 
HETATM   29  C   UNL     1     -11.567   3.433 -32.889  1.00  0.00     0.269 C 
ENDBRANCH  25  26
ENDBRANCH   7  25
TORSDOF 4
ENDMDL
MODEL 6
REMARK VINA RESULT:      -7.8      2.543      5.943
REMARK  4 active torsions:
REMARK  status: ('A' for Active; 'I' for Inactive)
REMARK    1  A    between atoms: C_5  and  C_6 
REMARK    2  A    between atoms: C_6  and  N_7 
REMARK    3  A    between atoms: C_13  and  C_14 
REMARK    4  A    between atoms: C_14  and  N_15 
ROOT
HETATM    1  N   UNL     1      -4.410   2.329 -31.224  1.00  0.00    -0.060 N 
HETATM    2  H   UNL     1      -4.140   1.566 -30.597  1.00  0.00     0.280 HD
HETATM    3  C   UNL     1      -5.107   1.699 -32.426  1.00  0.00     0.274 C 
HETATM    4  C   UNL     1      -6.113   0.572 -32.024  1.00  0.00     0.092 C 
HETATM    5  C   UNL     1      -7.045   0.211 -33.208  1.00  0.00     0.041 C 
HETATM    6  C   UNL     1      -6.355  -0.552 -34.339  1.00  0.00     0.009 C 
HETATM    7  C   UNL     1      -5.698  -1.850 -33.838  1.00  0.00     0.012 C 
HETATM    8  C   UNL     1      -4.708  -1.512 -32.713  1.00  0.00     0.009 C 
HETATM    9  C   UNL     1      -5.377  -0.721 -31.581  1.00  0.00     0.041 C 
HETATM   10  O   UNL     1      -6.918   0.937 -30.872  1.00  0.00    -0.338 OA
HETATM   11  C   UNL     1      -7.501   2.170 -30.964  1.00  0.00     0.077 A 
HETATM   12  C   UNL     1      -6.737   3.318 -30.741  1.00  0.00     0.001 A 
HETATM   13  C   UNL     1      -5.297   3.207 -30.345  1.00  0.00     0.276 C 
HETATM   14  C   UNL     1      -8.868   2.249 -31.214  1.00  0.00     0.037 A 
HETATM   15  C   UNL     1      -9.479   3.499 -31.304  1.00  0.00     0.003 A 
HETATM   16  C   UNL     1      -8.727   4.657 -31.119  1.00  0.00     0.001 A 
HETATM   17  C   UNL     1      -7.364   4.570 -30.827  1.00  0.00     0.012 A 
ENDROOT
BRANCH   1  18
HETATM   18  C   UNL     1      -3.113   3.023 -31.594  1.00  0.00     0.276 C 
BRANCH  18  19
HETATM   19  C   UNL     1      -3.252   4.457 -31.946  1.00  0.00     0.004 A 
HETATM   20  C   UNL     1      -3.856   4.985 -33.111  1.00  0.00     0.149 A 
HETATM   21  N   UNL     1      -3.883   6.314 -33.114  1.00  0.00    -0.185 NA
HETATM   22  N   UNL     1      -3.220   6.662 -31.999  1.00  0.00    -0.285 N 
HETATM   23  C   UNL     1      -2.980   8.056 -31.705  1.00  0.00     0.179 C 
HETATM   24  C   UNL     1      -2.837   5.580 -31.253  1.00  0.00     0.122 A 
ENDBRANCH  18  19
ENDBRANCH   1  18
BRANCH   7  25
HETATM   25  C   UNL     1      -5.054  -2.593 -35.029  1.00  0.00     0.238 C 
BRANCH  25  26
HETATM   26  N   UNL     1      -5.421  -4.060 -35.098  1.00  0.00    -0.078 N 
HETATM   27  H   UNL     1      -5.295  -4.398 -36.059  1.00  0.00     0.278 HD
HETATM   28  C   UNL     1      -4.583  -4.944 -34.205  1.00  0.00     0.269 C 
HETATM   29  C   UNL     1      -6.891  -4.261 -34.790  1.00  0.00     0.269 C 
ENDBRANCH  25  26
ENDBRANCH   7  25
TORSDOF 4
ENDMDL
MODEL 7
REMARK VINA RESULT:      -7.6      2.136      7.155
REMARK  4 active torsions:
REMARK  status: ('A' for Active; 'I' for Inactive)
REMARK    1  A    between atoms: C_5  and  C_6 
REMARK    2  A    between atoms: C_6  and  N_7 
REMARK    3  A    between atoms: C_13  and  C_14 
REMARK    4  A    between atoms: C_14  and  N_15 
ROOT
HETATM    1  N   UNL     1      -8.134   3.255 -32.485  1.00  0.00    -0.060 N 
HETATM    2  H   UNL     1      -8.427   3.278 -33.467  1.00  0.00     0.280 HD
HETATM    3  C   UNL     1      -7.236   2.034 -32.311  1.00  0.00     0.274 C 
HETATM    4  C   UNL     1      -6.208   1.865 -33.478  1.00  0.00     0.092 C 
HETATM    5  C   UNL     1      -5.100   0.850 -33.099  1.00  0.00     0.041 C 
HETATM    6  C   UNL     1      -5.572  -0.604 -33.055  1.00  0.00     0.009 C 
HETATM    7  C   UNL     1      -6.187  -1.049 -34.393  1.00  0.00     0.012 C 
HETATM    8  C   UNL     1      -7.341  -0.103 -34.755  1.00  0.00     0.009 C 
HETATM    9  C   UNL     1      -6.894   1.364 -34.777  1.00  0.00     0.041 C 
HETATM   10  O   UNL     1      -5.596   3.125 -33.860  1.00  0.00    -0.338 OA
HETATM   11  C   UNL     1      -5.104   3.850 -32.810  1.00  0.00     0.077 A 
HETATM   12  C   UNL     1      -5.978   4.571 -31.993  1.00  0.00     0.001 A 
HETATM   13  C   UNL     1      -7.444   4.602 -32.293  1.00  0.00     0.276 C 
HETATM   14  C   UNL     1      -3.726   3.906 -32.620  1.00  0.00     0.037 A 
HETATM   15  C   UNL     1      -3.208   4.645 -31.559  1.00  0.00     0.003 A 
HETATM   16  C   UNL     1      -4.066   5.344 -30.712  1.00  0.00     0.001 A 
HETATM   17  C   UNL     1      -5.444   5.318 -30.932  1.00  0.00     0.012 A 
ENDROOT
BRANCH   1  18
HETATM   18  C   UNL     1      -9.421   3.157 -31.687  1.00  0.00     0.276 C 
BRANCH  18  19
HETATM   19  C   UNL     1     -10.634   2.880 -32.492  1.00  0.00     0.004 A 
HETATM   20  C   UNL     1     -11.882   3.541 -32.395  1.00  0.00     0.149 A 
HETATM   21  N   UNL     1     -12.759   3.109 -33.295  1.00  0.00    -0.185 NA
HETATM   22  N   UNL     1     -12.125   2.108 -33.924  1.00  0.00    -0.285 N 
HETATM   23  C   UNL     1     -12.812   1.338 -34.935  1.00  0.00     0.179 C 
HETATM   24  C   UNL     1     -10.836   1.944 -33.490  1.00  0.00     0.122 A 
ENDBRANCH  18  19
ENDBRANCH   1  18
BRANCH   7  25
HETATM   25  C   UNL     1      -6.605  -2.533 -34.298  1.00  0.00     0.238 C 
BRANCH  25  26
HETATM   26  N   UNL     1      -5.691  -3.469 -35.059  1.00  0.00    -0.078 N 
HETATM   27  H   UNL     1      -5.358  -3.003 -35.911  1.00  0.00     0.278 HD
HETATM   28  C   UNL     1      -4.469  -3.897 -34.283  1.00  0.00     0.269 C 
HETATM   29  C   UNL     1      -6.451  -4.689 -35.539  1.00  0.00     0.269 C 
ENDBRANCH  25  26
ENDBRANCH   7  25
TORSDOF 4
ENDMDL
MODEL 8
REMARK VINA RESULT:      -7.6      1.612      2.392
REMARK  4 active torsions:
REMARK  status: ('A' for Active; 'I' for Inactive)
REMARK    1  A    between atoms: C_5  and  C_6 
REMARK    2  A    between atoms: C_6  and  N_7 
REMARK    3  A    between atoms: C_13  and  C_14 
REMARK    4  A    between atoms: C_14  and  N_15 
ROOT
HETATM    1  N   UNL     1      -6.365   2.394 -32.423  1.00  0.00    -0.060 N 
HETATM    2  H   UNL     1      -6.465   3.196 -33.051  1.00  0.00     0.280 HD
HETATM    3  C   UNL     1      -7.715   1.685 -32.376  1.00  0.00     0.274 C 
HETATM    4  C   UNL     1      -8.376   1.545 -33.786  1.00  0.00     0.092 C 
HETATM    5  C   UNL     1      -9.545   0.528 -33.752  1.00  0.00     0.041 C 
HETATM    6  C   UNL     1     -10.787   1.026 -33.013  1.00  0.00     0.009 C 
HETATM    7  C   UNL     1     -11.319   2.342 -33.607  1.00  0.00     0.012 C 
HETATM    8  C   UNL     1     -10.200   3.394 -33.581  1.00  0.00     0.009 C 
HETATM    9  C   UNL     1      -8.935   2.901 -34.294  1.00  0.00     0.041 C 
HETATM   10  O   UNL     1      -7.422   1.147 -34.805  1.00  0.00    -0.338 OA
HETATM   11  C   UNL     1      -6.652   0.070 -34.463  1.00  0.00     0.077 A 
HETATM   12  C   UNL     1      -5.580   0.234 -33.582  1.00  0.00     0.001 A 
HETATM   13  C   UNL     1      -5.231   1.592 -33.056  1.00  0.00     0.276 C 
HETATM   14  C   UNL     1      -6.918  -1.161 -35.056  1.00  0.00     0.037 A 
HETATM   15  C   UNL     1      -6.139  -2.268 -34.722  1.00  0.00     0.003 A 
HETATM   16  C   UNL     1      -5.086  -2.131 -33.819  1.00  0.00     0.001 A 
HETATM   17  C   UNL     1      -4.798  -0.885 -33.260  1.00  0.00     0.012 A 
ENDROOT
BRANCH   1  18
HETATM   18  C   UNL     1      -5.963   2.983 -31.083  1.00  0.00     0.276 C 
BRANCH  18  19
HETATM   19  C   UNL     1      -5.083   4.173 -31.165  1.00  0.00     0.004 A 
HETATM   20  C   UNL     1      -5.495   5.525 -31.235  1.00  0.00     0.149 A 
HETATM   21  N   UNL     1      -4.471   6.371 -31.239  1.00  0.00    -0.185 NA
HETATM   22  N   UNL     1      -3.386   5.580 -31.260  1.00  0.00    -0.285 N 
HETATM   23  C   UNL     1      -2.067   6.163 -31.347  1.00  0.00     0.179 C 
HETATM   24  C   UNL     1      -3.702   4.249 -31.198  1.00  0.00     0.122 A 
ENDBRANCH  18  19
ENDBRANCH   1  18
BRANCH   7  25
HETATM   25  C   UNL     1     -12.593   2.771 -32.846  1.00  0.00     0.238 C 
BRANCH  25  26
HETATM   26  N   UNL     1     -13.716   1.759 -32.927  1.00  0.00    -0.078 N 
HETATM   27  H   UNL     1     -13.412   0.878 -32.498  1.00  0.00     0.278 HD
HETATM   28  C   UNL     1     -14.977   2.186 -32.215  1.00  0.00     0.269 C 
HETATM   29  C   UNL     1     -14.028   1.418 -34.370  1.00  0.00     0.269 C 
ENDBRANCH  25  26
ENDBRANCH   7  25
TORSDOF 4
ENDMDL
MODEL 9
REMARK VINA RESULT:      -7.5     14.241     16.341
REMARK  4 active torsions:
REMARK  status: ('A' for Active; 'I' for Inactive)
REMARK    1  A    between atoms: C_5  and  C_6 
REMARK    2  A    between atoms: C_6  and  N_7 
REMARK    3  A    between atoms: C_13  and  C_14 
REMARK    4  A    between atoms: C_14  and  N_15 
ROOT
HETATM    1  N   UNL     1      -2.922 -14.529 -39.431  1.00  0.00    -0.060 N 
HETATM    2  H   UNL     1      -2.769 -13.519 -39.376  1.00  0.00     0.280 HD
HETATM    3  C   UNL     1      -4.352 -14.742 -39.917  1.00  0.00     0.274 C 
HETATM    4  C   UNL     1      -4.743 -13.787 -41.093  1.00  0.00     0.092 C 
HETATM    5  C   UNL     1      -6.045 -14.263 -41.785  1.00  0.00     0.041 C 
HETATM    6  C   UNL     1      -7.310 -14.057 -40.950  1.00  0.00     0.009 C 
HETATM    7  C   UNL     1      -7.497 -12.584 -40.545  1.00  0.00     0.012 C 
HETATM    8  C   UNL     1      -6.249 -12.108 -39.787  1.00  0.00     0.009 C 
HETATM    9  C   UNL     1      -4.966 -12.333 -40.598  1.00  0.00     0.041 C 
HETATM   10  O   UNL     1      -3.688 -13.671 -42.082  1.00  0.00    -0.338 OA
HETATM   11  C   UNL     1      -3.183 -14.868 -42.508  1.00  0.00     0.077 A 
HETATM   12  C   UNL     1      -2.289 -15.572 -41.698  1.00  0.00     0.001 A 
HETATM   13  C   UNL     1      -1.833 -14.998 -40.392  1.00  0.00     0.276 C 
HETATM   14  C   UNL     1      -3.525 -15.328 -43.776  1.00  0.00     0.037 A 
HETATM   15  C   UNL     1      -3.014 -16.544 -44.227  1.00  0.00     0.003 A 
HETATM   16  C   UNL     1      -2.147 -17.278 -43.420  1.00  0.00     0.001 A 
HETATM   17  C   UNL     1      -1.775 -16.791 -42.165  1.00  0.00     0.012 A 
ENDROOT
BRANCH   1  18
HETATM   18  C   UNL     1      -2.697 -15.046 -38.023  1.00  0.00     0.276 C 
BRANCH  18  19
HETATM   19  C   UNL     1      -3.426 -14.308 -36.964  1.00  0.00     0.004 A 
HETATM   20  C   UNL     1      -3.604 -12.906 -36.882  1.00  0.00     0.149 A 
HETATM   21  N   UNL     1      -4.357 -12.548 -35.847  1.00  0.00    -0.185 NA
HETATM   22  N   UNL     1      -4.601 -13.698 -35.199  1.00  0.00    -0.285 N 
HETATM   23  C   UNL     1      -5.341 -13.687 -33.959  1.00  0.00     0.179 C 
HETATM   24  C   UNL     1      -4.078 -14.788 -35.843  1.00  0.00     0.122 A 
ENDBRANCH  18  19
ENDBRANCH   1  18
BRANCH   7  25
HETATM   25  C   UNL     1      -8.807 -12.434 -39.741  1.00  0.00     0.238 C 
BRANCH  25  26
HETATM   26  N   UNL     1     -10.055 -12.533 -40.593  1.00  0.00    -0.078 N 
HETATM   27  H   UNL     1      -9.787 -12.645 -41.578  1.00  0.00     0.278 HD
HETATM   28  C   UNL     1     -10.946 -13.700 -40.242  1.00  0.00     0.269 C 
HETATM   29  C   UNL     1     -10.847 -11.243 -40.536  1.00  0.00     0.269 C 
ENDBRANCH  25  26
ENDBRANCH   7  25
TORSDOF 4
ENDMDL
MODEL 10
REMARK VINA RESULT:      -7.4      2.795      7.070
REMARK  4 active torsions:
REMARK  status: ('A' for Active; 'I' for Inactive)
REMARK    1  A    between atoms: C_5  and  C_6 
REMARK    2  A    between atoms: C_6  and  N_7 
REMARK    3  A    between atoms: C_13  and  C_14 
REMARK    4  A    between atoms: C_14  and  N_15 
ROOT
HETATM    1  N   UNL     1     -10.064   1.435 -33.122  1.00  0.00    -0.060 N 
HETATM    2  H   UNL     1     -10.582   1.406 -32.239  1.00  0.00     0.280 HD
HETATM    3  C   UNL     1      -8.985   2.504 -32.977  1.00  0.00     0.274 C 
HETATM    4  C   UNL     1      -8.252   2.444 -31.597  1.00  0.00     0.092 C 
HETATM    5  C   UNL     1      -6.953   3.288 -31.622  1.00  0.00     0.041 C 
HETATM    6  C   UNL     1      -7.187   4.799 -31.643  1.00  0.00     0.009 C 
HETATM    7  C   UNL     1      -8.034   5.265 -30.445  1.00  0.00     0.012 C 
HETATM    8  C   UNL     1      -9.364   4.498 -30.441  1.00  0.00     0.009 C 
HETATM    9  C   UNL     1      -9.149   2.979 -30.449  1.00  0.00     0.041 C 
HETATM   10  O   UNL     1      -7.935   1.085 -31.200  1.00  0.00    -0.338 OA
HETATM   11  C   UNL     1      -7.315   0.347 -32.170  1.00  0.00     0.077 A 
HETATM   12  C   UNL     1      -8.063  -0.180 -33.226  1.00  0.00     0.001 A 
HETATM   13  C   UNL     1      -9.548   0.007 -33.272  1.00  0.00     0.276 C 
HETATM   14  C   UNL     1      -5.954   0.082 -32.046  1.00  0.00     0.037 A 
HETATM   15  C   UNL     1      -5.309  -0.673 -33.023  1.00  0.00     0.003 A 
HETATM   16  C   UNL     1      -6.031  -1.179 -34.102  1.00  0.00     0.001 A 
HETATM   17  C   UNL     1      -7.404  -0.946 -34.199  1.00  0.00     0.012 A 
ENDROOT
BRANCH   1  18
HETATM   18  C   UNL     1     -11.095   1.780 -34.180  1.00  0.00     0.276 C 
BRANCH  18  19
HETATM   19  C   UNL     1     -12.502   1.538 -33.780  1.00  0.00     0.004 A 
HETATM   20  C   UNL     1     -13.260   0.368 -34.022  1.00  0.00     0.149 A 
HETATM   21  N   UNL     1     -14.475   0.428 -33.488  1.00  0.00    -0.185 NA
HETATM   22  N   UNL     1     -14.551   1.666 -32.973  1.00  0.00    -0.285 N 
HETATM   23  C   UNL     1     -15.780   2.123 -32.367  1.00  0.00     0.179 C 
HETATM   24  C   UNL     1     -13.382   2.366 -33.107  1.00  0.00     0.122 A 
ENDBRANCH  18  19
ENDBRANCH   1  18
BRANCH   7  25
HETATM   25  C   UNL     1      -8.201   6.799 -30.500  1.00  0.00     0.238 C 
BRANCH  25  26
HETATM   26  N   UNL     1      -6.976   7.524 -31.016  1.00  0.00    -0.078 N 
HETATM   27  H   UNL     1      -6.391   6.868 -31.547  1.00  0.00     0.278 HD
HETATM   28  C   UNL     1      -7.290   8.681 -31.934  1.00  0.00     0.269 C 
HETATM   29  C   UNL     1      -6.108   7.996 -29.867  1.00  0.00     0.269 C 
ENDBRANCH  25  26
ENDBRANCH   7  25
TORSDOF 4
ENDMDL
