MODEL 1
REMARK VINA RESULT:      -8.2      0.000      0.000
REMARK  4 active torsions:
REMARK  status: ('A' for Active; 'I' for Inactive)
REMARK    1  A    between atoms: N_1  and  C_2 
REMARK    2  A    between atoms: C_2  and  C_3 
REMARK    3  A    between atoms: C_3  and  C_4 
REMARK    4  A    between atoms: N_13  and  C_16 
ROOT
HETATM    1  C   UNL     1      -6.895   2.346 -32.939  1.00  0.00     0.162 C 
HETATM    2  C   UNL     1      -6.459   1.334 -31.847  1.00  0.00     0.061 C 
HETATM    3  C   UNL     1      -6.691  -0.131 -32.225  1.00  0.00     0.125 C 
HETATM    4  N   UNL     1      -6.062  -0.394 -33.523  1.00  0.00    -0.380 N 
HETATM    5  C   UNL     1      -6.616   0.423 -34.618  1.00  0.00     0.125 C 
HETATM    6  C   UNL     1      -6.351   1.896 -34.314  1.00  0.00     0.061 C 
ENDROOT
BRANCH   1   7
HETATM    7  N   UNL     1      -8.369   2.412 -32.986  1.00  0.00     0.088 N 
HETATM    8  H   UNL     1      -8.673   3.333 -33.302  1.00  0.00     0.313 HD
HETATM    9  H   UNL     1      -8.790   2.259 -32.075  1.00  0.00     0.313 HD
ENDBRANCH   1   7
BRANCH   1  10
HETATM   10  C   UNL     1      -6.318   3.747 -32.547  1.00  0.00     0.079 C 
BRANCH  10  11
HETATM   11  C   UNL     1      -4.997   4.145 -33.171  1.00  0.00    -0.056 A 
HETATM   12  C   UNL     1      -4.960   4.937 -34.328  1.00  0.00     0.009 A 
HETATM   13  C   UNL     1      -3.739   5.309 -34.894  1.00  0.00     0.024 A 
HETATM   14  C   UNL     1      -2.547   4.891 -34.308  1.00  0.00     0.034 A 
HETATM   15 CL   UNL     1      -1.043   5.348 -35.006  1.00  0.00    -0.084 Cl
HETATM   16  C   UNL     1      -2.566   4.104 -33.160  1.00  0.00     0.024 A 
HETATM   17  C   UNL     1      -3.787   3.734 -32.591  1.00  0.00     0.009 A 
ENDBRANCH  10  11
ENDBRANCH   1  10
BRANCH   4  18
HETATM   18  C   UNL     1      -5.647  -1.674 -33.865  1.00  0.00     0.045 A 
HETATM   19  C   UNL     1      -6.289  -2.445 -34.854  1.00  0.00     0.047 A 
HETATM   20  C   UNL     1      -5.883  -3.741 -35.155  1.00  0.00     0.092 A 
HETATM   21  N   UNL     1      -4.863  -4.312 -34.509  1.00  0.00    -0.351 N 
HETATM   22  H   UNL     1      -4.576  -5.263 -34.732  1.00  0.00     0.166 HD
HETATM   23  C   UNL     1      -4.227  -3.606 -33.542  1.00  0.00     0.117 A 
HETATM   24  N   UNL     1      -3.179  -4.022 -32.764  1.00  0.00    -0.352 N 
HETATM   25  C   UNL     1      -4.575  -2.311 -33.186  1.00  0.00     0.036 A 
HETATM   26  H   UNL     1      -2.711  -4.920 -32.798  1.00  0.00     0.166 HD
HETATM   27  C   UNL     1      -2.852  -3.021 -31.885  1.00  0.00     0.090 A 
HETATM   28  C   UNL     1      -3.703  -1.960 -32.114  1.00  0.00     0.034 A 
ENDBRANCH   4  18
TORSDOF 4
ENDMDL
MODEL 2
REMARK VINA RESULT:      -8.1      4.679      8.072
REMARK  4 active torsions:
REMARK  status: ('A' for Active; 'I' for Inactive)
REMARK    1  A    between atoms: N_1  and  C_2 
REMARK    2  A    between atoms: C_2  and  C_3 
REMARK    3  A    between atoms: C_3  and  C_4 
REMARK    4  A    between atoms: N_13  and  C_16 
ROOT
HETATM    1  C   UNL     1      -7.785   0.901 -33.761  1.00  0.00     0.162 C 
HETATM    2  C   UNL     1      -9.025  -0.008 -33.548  1.00  0.00     0.061 C 
HETATM    3  C   UNL     1     -10.109   0.613 -32.664  1.00  0.00     0.125 C 
HETATM    4  N   UNL     1     -10.460   1.933 -33.197  1.00  0.00    -0.380 N 
HETATM    5  C   UNL     1      -9.329   2.878 -33.211  1.00  0.00     0.125 C 
HETATM    6  C   UNL     1      -8.244   2.329 -34.134  1.00  0.00     0.061 C 
ENDROOT
BRANCH   1   7
HETATM    7  N   UNL     1      -6.990   0.944 -32.518  1.00  0.00     0.088 N 
HETATM    8  H   UNL     1      -6.372   1.755 -32.520  1.00  0.00     0.313 HD
HETATM    9  H   UNL     1      -6.400   0.124 -32.410  1.00  0.00     0.313 HD
ENDBRANCH   1   7
BRANCH   1  10
HETATM   10  C   UNL     1      -6.928   0.275 -34.911  1.00  0.00     0.079 C 
BRANCH  10  11
HETATM   11  C   UNL     1      -6.118  -0.958 -34.571  1.00  0.00    -0.056 A 
HETATM   12  C   UNL     1      -6.546  -2.232 -34.970  1.00  0.00     0.009 A 
HETATM   13  C   UNL     1      -5.789  -3.364 -34.662  1.00  0.00     0.024 A 
HETATM   14  C   UNL     1      -4.600  -3.231 -33.951  1.00  0.00     0.034 A 
HETATM   15 CL   UNL     1      -3.668  -4.625 -33.568  1.00  0.00    -0.084 Cl
HETATM   16  C   UNL     1      -4.160  -1.973 -33.546  1.00  0.00     0.024 A 
HETATM   17  C   UNL     1      -4.915  -0.840 -33.857  1.00  0.00     0.009 A 
ENDBRANCH  10  11
ENDBRANCH   1  10
BRANCH   4  18
HETATM   18  C   UNL     1     -11.713   2.483 -32.961  1.00  0.00     0.045 A 
HETATM   19  C   UNL     1     -11.900   3.664 -32.214  1.00  0.00     0.047 A 
HETATM   20  C   UNL     1     -13.166   4.178 -31.956  1.00  0.00     0.092 A 
HETATM   21  N   UNL     1     -14.265   3.565 -32.405  1.00  0.00    -0.351 N 
HETATM   22  H   UNL     1     -15.188   3.946 -32.207  1.00  0.00     0.166 HD
HETATM   23  C   UNL     1     -14.127   2.420 -33.118  1.00  0.00     0.117 A 
HETATM   24  N   UNL     1     -15.126   1.645 -33.645  1.00  0.00    -0.352 N 
HETATM   25  C   UNL     1     -12.898   1.846 -33.415  1.00  0.00     0.036 A 
HETATM   26  H   UNL     1     -16.123   1.814 -33.590  1.00  0.00     0.166 HD
HETATM   27  C   UNL     1     -14.566   0.556 -34.263  1.00  0.00     0.090 A 
HETATM   28  C   UNL     1     -13.197   0.648 -34.127  1.00  0.00     0.034 A 
ENDBRANCH   4  18
TORSDOF 4
ENDMDL
MODEL 3
REMARK VINA RESULT:      -7.9      5.050      6.765
REMARK  4 active torsions:
REMARK  status: ('A' for Active; 'I' for Inactive)
REMARK    1  A    between atoms: N_1  and  C_2 
REMARK    2  A    between atoms: C_2  and  C_3 
REMARK    3  A    between atoms: C_3  and  C_4 
REMARK    4  A    between atoms: N_13  and  C_16 
ROOT
HETATM    1  C   UNL     1      -9.795   1.821 -33.094  1.00  0.00     0.162 C 
HETATM    2  C   UNL     1      -8.466   2.370 -33.678  1.00  0.00     0.061 C 
HETATM    3  C   UNL     1      -7.217   1.926 -32.912  1.00  0.00     0.125 C 
HETATM    4  N   UNL     1      -7.223   0.464 -32.797  1.00  0.00    -0.380 N 
HETATM    5  C   UNL     1      -8.386  -0.060 -32.058  1.00  0.00     0.125 C 
HETATM    6  C   UNL     1      -9.657   0.306 -32.821  1.00  0.00     0.061 C 
ENDROOT
BRANCH   1   7
HETATM    7  N   UNL     1     -10.105   2.526 -31.835  1.00  0.00     0.088 N 
HETATM    8  H   UNL     1     -10.998   2.207 -31.460  1.00  0.00     0.313 HD
HETATM    9  H   UNL     1     -10.183   3.530 -31.966  1.00  0.00     0.313 HD
ENDBRANCH   1   7
BRANCH   1  10
HETATM   10  C   UNL     1     -10.925   2.095 -34.142  1.00  0.00     0.079 C 
BRANCH  10  11
HETATM   11  C   UNL     1     -12.346   2.146 -33.622  1.00  0.00    -0.056 A 
HETATM   12  C   UNL     1     -12.868   3.328 -33.078  1.00  0.00     0.009 A 
HETATM   13  C   UNL     1     -14.183   3.372 -32.609  1.00  0.00     0.024 A 
HETATM   14  C   UNL     1     -14.983   2.235 -32.679  1.00  0.00     0.034 A 
HETATM   15 CL   UNL     1     -16.602   2.288 -32.099  1.00  0.00    -0.084 Cl
HETATM   16  C   UNL     1     -14.479   1.053 -33.215  1.00  0.00     0.024 A 
HETATM   17  C   UNL     1     -13.165   1.009 -33.688  1.00  0.00     0.009 A 
ENDBRANCH  10  11
ENDBRANCH   1  10
BRANCH   4  18
HETATM   18  C   UNL     1      -6.037  -0.240 -32.650  1.00  0.00     0.045 A 
HETATM   19  C   UNL     1      -5.066   0.094 -31.685  1.00  0.00     0.047 A 
HETATM   20  C   UNL     1      -3.864  -0.600 -31.578  1.00  0.00     0.092 A 
HETATM   21  N   UNL     1      -3.580  -1.616 -32.395  1.00  0.00    -0.351 N 
HETATM   22  H   UNL     1      -2.697  -2.116 -32.313  1.00  0.00     0.166 HD
HETATM   23  C   UNL     1      -4.485  -1.962 -33.344  1.00  0.00     0.117 A 
HETATM   24  N   UNL     1      -4.368  -2.958 -34.279  1.00  0.00    -0.352 N 
HETATM   25  C   UNL     1      -5.702  -1.317 -33.513  1.00  0.00     0.036 A 
HETATM   26  H   UNL     1      -3.591  -3.596 -34.398  1.00  0.00     0.166 HD
HETATM   27  C   UNL     1      -5.487  -2.955 -35.073  1.00  0.00     0.090 A 
HETATM   28  C   UNL     1      -6.319  -1.948 -34.632  1.00  0.00     0.034 A 
ENDBRANCH   4  18
TORSDOF 4
ENDMDL
MODEL 4
REMARK VINA RESULT:      -7.9      3.606      7.157
REMARK  4 active torsions:
REMARK  status: ('A' for Active; 'I' for Inactive)
REMARK    1  A    between atoms: N_1  and  C_2 
REMARK    2  A    between atoms: C_2  and  C_3 
REMARK    3  A    between atoms: C_3  and  C_4 
REMARK    4  A    between atoms: N_13  and  C_16 
ROOT
HETATM    1  C   UNL     1      -4.691   1.174 -32.079  1.00  0.00     0.162 C 
HETATM    2  C   UNL     1      -5.801   0.348 -31.377  1.00  0.00     0.061 C 
HETATM    3  C   UNL     1      -6.891   1.199 -30.720  1.00  0.00     0.125 C 
HETATM    4  N   UNL     1      -7.425   2.137 -31.712  1.00  0.00    -0.380 N 
HETATM    5  C   UNL     1      -6.414   3.071 -32.239  1.00  0.00     0.125 C 
HETATM    6  C   UNL     1      -5.335   2.268 -32.961  1.00  0.00     0.061 C 
ENDROOT
BRANCH   1   7
HETATM    7  N   UNL     1      -3.827   1.802 -31.060  1.00  0.00     0.088 N 
HETATM    8  H   UNL     1      -3.694   2.791 -31.268  1.00  0.00     0.313 HD
HETATM    9  H   UNL     1      -2.904   1.381 -31.027  1.00  0.00     0.313 HD
ENDBRANCH   1   7
BRANCH   1  10
HETATM   10  C   UNL     1      -3.844   0.187 -32.950  1.00  0.00     0.079 C 
BRANCH  10  11
HETATM   11  C   UNL     1      -4.578  -0.981 -33.575  1.00  0.00    -0.056 A 
HETATM   12  C   UNL     1      -4.023  -2.268 -33.559  1.00  0.00     0.009 A 
HETATM   13  C   UNL     1      -4.709  -3.343 -34.127  1.00  0.00     0.024 A 
HETATM   14  C   UNL     1      -5.953  -3.139 -34.717  1.00  0.00     0.034 A 
HETATM   15 CL   UNL     1      -6.798  -4.462 -35.420  1.00  0.00    -0.084 Cl
HETATM   16  C   UNL     1      -6.518  -1.866 -34.742  1.00  0.00     0.024 A 
HETATM   17  C   UNL     1      -5.834  -0.791 -34.170  1.00  0.00     0.009 A 
ENDBRANCH  10  11
ENDBRANCH   1  10
BRANCH   4  18
HETATM   18  C   UNL     1      -8.715   2.636 -31.593  1.00  0.00     0.045 A 
HETATM   19  C   UNL     1      -9.076   3.598 -30.628  1.00  0.00     0.047 A 
HETATM   20  C   UNL     1     -10.383   4.057 -30.498  1.00  0.00     0.092 A 
HETATM   21  N   UNL     1     -11.356   3.597 -31.288  1.00  0.00    -0.351 N 
HETATM   22  H   UNL     1     -12.311   3.935 -31.184  1.00  0.00     0.166 HD
HETATM   23  C   UNL     1     -11.051   2.663 -32.223  1.00  0.00     0.117 A 
HETATM   24  N   UNL     1     -11.909   2.063 -33.107  1.00  0.00    -0.352 N 
HETATM   25  C   UNL     1      -9.773   2.156 -32.410  1.00  0.00     0.036 A 
HETATM   26  H   UNL     1     -12.903   2.233 -33.206  1.00  0.00     0.166 HD
HETATM   27  C   UNL     1     -11.209   1.151 -33.856  1.00  0.00     0.090 A 
HETATM   28  C   UNL     1      -9.895   1.179 -33.440  1.00  0.00     0.034 A 
ENDBRANCH   4  18
TORSDOF 4
ENDMDL
MODEL 5
REMARK VINA RESULT:      -7.8      4.764      7.905
REMARK  4 active torsions:
REMARK  status: ('A' for Active; 'I' for Inactive)
REMARK    1  A    between atoms: N_1  and  C_2 
REMARK    2  A    between atoms: C_2  and  C_3 
REMARK    3  A    between atoms: C_3  and  C_4 
REMARK    4  A    between atoms: N_13  and  C_16 
ROOT
HETATM    1  C   UNL     1      -7.879   0.978 -33.620  1.00  0.00     0.162 C 
HETATM    2  C   UNL     1      -8.791  -0.274 -33.524  1.00  0.00     0.061 C 
HETATM    3  C   UNL     1     -10.143  -0.011 -32.856  1.00  0.00     0.125 C 
HETATM    4  N   UNL     1     -10.796   1.115 -33.531  1.00  0.00    -0.380 N 
HETATM    5  C   UNL     1     -10.029   2.371 -33.451  1.00  0.00     0.125 C 
HETATM    6  C   UNL     1      -8.693   2.175 -34.163  1.00  0.00     0.061 C 
ENDROOT
BRANCH   1   7
HETATM    7  N   UNL     1      -7.349   1.304 -32.282  1.00  0.00     0.088 N 
HETATM    8  H   UNL     1      -7.843   0.774 -31.565  1.00  0.00     0.313 HD
HETATM    9  H   UNL     1      -7.462   2.287 -32.052  1.00  0.00     0.313 HD
ENDBRANCH   1   7
BRANCH   1  10
HETATM   10  C   UNL     1      -6.695   0.631 -34.584  1.00  0.00     0.079 C 
BRANCH  10  11
HETATM   11  C   UNL     1      -5.946  -0.658 -34.315  1.00  0.00    -0.056 A 
HETATM   12  C   UNL     1      -6.319  -1.850 -34.952  1.00  0.00     0.009 A 
HETATM   13  C   UNL     1      -5.619  -3.033 -34.708  1.00  0.00     0.024 A 
HETATM   14  C   UNL     1      -4.543  -3.033 -33.825  1.00  0.00     0.034 A 
HETATM   15 CL   UNL     1      -3.681  -4.491 -33.522  1.00  0.00    -0.084 Cl
HETATM   16  C   UNL     1      -4.160  -1.858 -33.183  1.00  0.00     0.024 A 
HETATM   17  C   UNL     1      -4.858  -0.673 -33.430  1.00  0.00     0.009 A 
ENDBRANCH  10  11
ENDBRANCH   1  10
BRANCH   4  18
HETATM   18  C   UNL     1     -12.179   1.241 -33.522  1.00  0.00     0.045 A 
HETATM   19  C   UNL     1     -13.042   0.206 -33.935  1.00  0.00     0.047 A 
HETATM   20  C   UNL     1     -14.424   0.365 -33.956  1.00  0.00     0.092 A 
HETATM   21  N   UNL     1     -14.992   1.516 -33.586  1.00  0.00    -0.351 N 
HETATM   22  H   UNL     1     -16.004   1.625 -33.609  1.00  0.00     0.166 HD
HETATM   23  C   UNL     1     -14.194   2.539 -33.193  1.00  0.00     0.117 A 
HETATM   24  N   UNL     1     -14.585   3.792 -32.797  1.00  0.00    -0.352 N 
HETATM   25  C   UNL     1     -12.809   2.457 -33.147  1.00  0.00     0.036 A 
HETATM   26  H   UNL     1     -15.532   4.143 -32.728  1.00  0.00     0.166 HD
HETATM   27  C   UNL     1     -13.468   4.537 -32.515  1.00  0.00     0.090 A 
HETATM   28  C   UNL     1     -12.361   3.745 -32.733  1.00  0.00     0.034 A 
ENDBRANCH   4  18
TORSDOF 4
ENDMDL
MODEL 6
REMARK VINA RESULT:      -7.8      5.203      7.218
REMARK  4 active torsions:
REMARK  status: ('A' for Active; 'I' for Inactive)
REMARK    1  A    between atoms: N_1  and  C_2 
REMARK    2  A    between atoms: C_2  and  C_3 
REMARK    3  A    between atoms: C_3  and  C_4 
REMARK    4  A    between atoms: N_13  and  C_16 
ROOT
HETATM    1  C   UNL     1      -9.781   0.827 -33.379  1.00  0.00     0.162 C 
HETATM    2  C   UNL     1      -9.227   1.784 -32.290  1.00  0.00     0.061 C 
HETATM    3  C   UNL     1      -8.057   1.207 -31.488  1.00  0.00     0.125 C 
HETATM    4  N   UNL     1      -7.021   0.749 -32.420  1.00  0.00    -0.380 N 
HETATM    5  C   UNL     1      -7.481  -0.315 -33.330  1.00  0.00     0.125 C 
HETATM    6  C   UNL     1      -8.610   0.236 -34.198  1.00  0.00     0.061 C 
ENDROOT
BRANCH   1   7
HETATM    7  N   UNL     1     -10.536  -0.265 -32.734  1.00  0.00     0.088 N 
HETATM    8  H   UNL     1     -10.365  -1.148 -33.215  1.00  0.00     0.313 HD
HETATM    9  H   UNL     1     -11.539  -0.105 -32.759  1.00  0.00     0.313 HD
ENDBRANCH   1   7
BRANCH   1  10
HETATM   10  C   UNL     1     -10.738   1.656 -34.299  1.00  0.00     0.079 C 
BRANCH  10  11
HETATM   11  C   UNL     1     -12.178   1.786 -33.851  1.00  0.00    -0.056 A 
HETATM   12  C   UNL     1     -13.164   0.920 -34.344  1.00  0.00     0.009 A 
HETATM   13  C   UNL     1     -14.489   1.038 -33.920  1.00  0.00     0.024 A 
HETATM   14  C   UNL     1     -14.838   2.024 -33.001  1.00  0.00     0.034 A 
HETATM   15 CL   UNL     1     -16.471   2.171 -32.480  1.00  0.00    -0.084 Cl
HETATM   16  C   UNL     1     -13.871   2.893 -32.502  1.00  0.00     0.024 A 
HETATM   17  C   UNL     1     -12.545   2.773 -32.923  1.00  0.00     0.009 A 
ENDBRANCH  10  11
ENDBRANCH   1  10
BRANCH   4  18
HETATM   18  C   UNL     1      -5.692   0.684 -32.026  1.00  0.00     0.045 A 
HETATM   19  C   UNL     1      -5.027  -0.534 -31.781  1.00  0.00     0.047 A 
HETATM   20  C   UNL     1      -3.705  -0.578 -31.349  1.00  0.00     0.092 A 
HETATM   21  N   UNL     1      -3.010   0.543 -31.142  1.00  0.00    -0.351 N 
HETATM   22  H   UNL     1      -2.045   0.503 -30.821  1.00  0.00     0.166 HD
HETATM   23  C   UNL     1      -3.618   1.736 -31.356  1.00  0.00     0.117 A 
HETATM   24  N   UNL     1      -3.080   2.985 -31.185  1.00  0.00    -0.352 N 
HETATM   25  C   UNL     1      -4.932   1.860 -31.786  1.00  0.00     0.036 A 
HETATM   26  H   UNL     1      -2.140   3.209 -30.882  1.00  0.00     0.166 HD
HETATM   27  C   UNL     1      -4.036   3.925 -31.476  1.00  0.00     0.090 A 
HETATM   28  C   UNL     1      -5.189   3.261 -31.837  1.00  0.00     0.034 A 
ENDBRANCH   4  18
TORSDOF 4
ENDMDL
MODEL 7
REMARK VINA RESULT:      -7.7      3.336      4.678
REMARK  4 active torsions:
REMARK  status: ('A' for Active; 'I' for Inactive)
REMARK    1  A    between atoms: N_1  and  C_2 
REMARK    2  A    between atoms: C_2  and  C_3 
REMARK    3  A    between atoms: C_3  and  C_4 
REMARK    4  A    between atoms: N_13  and  C_16 
ROOT
HETATM    1  C   UNL     1      -3.072   4.329 -31.875  1.00  0.00     0.162 C 
HETATM    2  C   UNL     1      -2.952   2.868 -31.366  1.00  0.00     0.061 C 
HETATM    3  C   UNL     1      -4.289   2.128 -31.273  1.00  0.00     0.125 C 
HETATM    4  N   UNL     1      -4.977   2.222 -32.564  1.00  0.00    -0.380 N 
HETATM    5  C   UNL     1      -5.283   3.607 -32.965  1.00  0.00     0.125 C 
HETATM    6  C   UNL     1      -3.971   4.370 -33.132  1.00  0.00     0.061 C 
ENDROOT
BRANCH   1   7
HETATM    7  N   UNL     1      -3.662   5.171 -30.816  1.00  0.00     0.088 N 
HETATM    8  H   UNL     1      -3.791   4.629 -29.962  1.00  0.00     0.313 HD
HETATM    9  H   UNL     1      -4.574   5.533 -31.076  1.00  0.00     0.313 HD
ENDBRANCH   1   7
BRANCH   1  10
HETATM   10  C   UNL     1      -1.629   4.837 -32.208  1.00  0.00     0.079 C 
BRANCH  10  11
HETATM   11  C   UNL     1      -0.920   5.638 -31.137  1.00  0.00    -0.056 A 
HETATM   12  C   UNL     1      -0.133   5.000 -30.167  1.00  0.00     0.009 A 
HETATM   13  C   UNL     1       0.527   5.745 -29.188  1.00  0.00     0.024 A 
HETATM   14  C   UNL     1       0.405   7.131 -29.170  1.00  0.00     0.034 A 
HETATM   15 CL   UNL     1       1.216   8.049 -27.963  1.00  0.00    -0.084 Cl
HETATM   16  C   UNL     1      -0.373   7.780 -30.126  1.00  0.00     0.024 A 
HETATM   17  C   UNL     1      -1.031   7.036 -31.108  1.00  0.00     0.009 A 
ENDBRANCH  10  11
ENDBRANCH   1  10
BRANCH   4  18
HETATM   18  C   UNL     1      -5.896   1.257 -32.950  1.00  0.00     0.045 A 
HETATM   19  C   UNL     1      -7.288   1.479 -32.934  1.00  0.00     0.047 A 
HETATM   20  C   UNL     1      -8.196   0.485 -33.287  1.00  0.00     0.092 A 
HETATM   21  N   UNL     1      -7.781  -0.729 -33.654  1.00  0.00    -0.351 N 
HETATM   22  H   UNL     1      -8.453  -1.452 -33.906  1.00  0.00     0.166 HD
HETATM   23  C   UNL     1      -6.449  -0.985 -33.672  1.00  0.00     0.117 A 
HETATM   24  N   UNL     1      -5.836  -2.166 -34.002  1.00  0.00    -0.352 N 
HETATM   25  C   UNL     1      -5.485  -0.048 -33.333  1.00  0.00     0.036 A 
HETATM   26  H   UNL     1      -6.283  -3.026 -34.293  1.00  0.00     0.166 HD
HETATM   27  C   UNL     1      -4.480  -2.016 -33.859  1.00  0.00     0.090 A 
HETATM   28  C   UNL     1      -4.236  -0.727 -33.437  1.00  0.00     0.034 A 
ENDBRANCH   4  18
TORSDOF 4
ENDMDL
MODEL 8
REMARK VINA RESULT:      -7.6      3.654      7.538
REMARK  4 active torsions:
REMARK  status: ('A' for Active; 'I' for Inactive)
REMARK    1  A    between atoms: N_1  and  C_2 
REMARK    2  A    between atoms: C_2  and  C_3 
REMARK    3  A    between atoms: C_3  and  C_4 
REMARK    4  A    between atoms: N_13  and  C_16 
ROOT
HETATM    1  C   UNL     1      -6.077   2.041 -31.137  1.00  0.00     0.162 C 
HETATM    2  C   UNL     1      -5.432   2.299 -32.524  1.00  0.00     0.061 C 
HETATM    3  C   UNL     1      -5.249   3.781 -32.861  1.00  0.00     0.125 C 
HETATM    4  N   UNL     1      -4.518   4.431 -31.768  1.00  0.00    -0.380 N 
HETATM    5  C   UNL     1      -5.225   4.371 -30.475  1.00  0.00     0.125 C 
HETATM    6  C   UNL     1      -5.375   2.908 -30.066  1.00  0.00     0.061 C 
ENDROOT
BRANCH   1   7
HETATM    7  N   UNL     1      -7.512   2.384 -31.191  1.00  0.00     0.088 N 
HETATM    8  H   UNL     1      -7.960   2.180 -30.298  1.00  0.00     0.313 HD
HETATM    9  H   UNL     1      -8.008   1.850 -31.898  1.00  0.00     0.313 HD
ENDBRANCH   1   7
BRANCH   1  10
HETATM   10  C   UNL     1      -5.913   0.518 -30.812  1.00  0.00     0.079 C 
BRANCH  10  11
HETATM   11  C   UNL     1      -5.790  -0.425 -31.990  1.00  0.00    -0.056 A 
HETATM   12  C   UNL     1      -6.881  -0.661 -32.837  1.00  0.00     0.009 A 
HETATM   13  C   UNL     1      -6.759  -1.524 -33.928  1.00  0.00     0.024 A 
HETATM   14  C   UNL     1      -5.546  -2.160 -34.177  1.00  0.00     0.034 A 
HETATM   15 CL   UNL     1      -5.395  -3.225 -35.519  1.00  0.00    -0.084 Cl
HETATM   16  C   UNL     1      -4.452  -1.937 -33.345  1.00  0.00     0.024 A 
HETATM   17  C   UNL     1      -4.572  -1.071 -32.255  1.00  0.00     0.009 A 
ENDBRANCH  10  11
ENDBRANCH   1  10
BRANCH   4  18
HETATM   18  C   UNL     1      -3.763   5.572 -31.999  1.00  0.00     0.045 A 
HETATM   19  C   UNL     1      -3.971   6.779 -31.302  1.00  0.00     0.047 A 
HETATM   20  C   UNL     1      -3.229   7.924 -31.576  1.00  0.00     0.092 A 
HETATM   21  N   UNL     1      -2.287   7.926 -32.522  1.00  0.00    -0.351 N 
HETATM   22  H   UNL     1      -1.752   8.770 -32.719  1.00  0.00     0.166 HD
HETATM   23  C   UNL     1      -2.065   6.786 -33.222  1.00  0.00     0.117 A 
HETATM   24  N   UNL     1      -1.160   6.597 -34.234  1.00  0.00    -0.352 N 
HETATM   25  C   UNL     1      -2.764   5.607 -33.008  1.00  0.00     0.036 A 
HETATM   26  H   UNL     1      -0.510   7.278 -34.608  1.00  0.00     0.166 HD
HETATM   27  C   UNL     1      -1.277   5.312 -34.700  1.00  0.00     0.090 A 
HETATM   28  C   UNL     1      -2.264   4.684 -33.971  1.00  0.00     0.034 A 
ENDBRANCH   4  18
TORSDOF 4
ENDMDL
MODEL 9
REMARK VINA RESULT:      -7.6      3.852      6.308
REMARK  4 active torsions:
REMARK  status: ('A' for Active; 'I' for Inactive)
REMARK    1  A    between atoms: N_1  and  C_2 
REMARK    2  A    between atoms: C_2  and  C_3 
REMARK    3  A    between atoms: C_3  and  C_4 
REMARK    4  A    between atoms: N_13  and  C_16 
ROOT
HETATM    1  C   UNL     1      -2.214   5.569 -33.709  1.00  0.00     0.162 C 
HETATM    2  C   UNL     1      -3.729   5.903 -33.726  1.00  0.00     0.061 C 
HETATM    3  C   UNL     1      -4.639   4.672 -33.671  1.00  0.00     0.125 C 
HETATM    4  N   UNL     1      -4.253   3.845 -32.523  1.00  0.00    -0.380 N 
HETATM    5  C   UNL     1      -2.868   3.349 -32.599  1.00  0.00     0.125 C 
HETATM    6  C   UNL     1      -1.917   4.543 -32.592  1.00  0.00     0.061 C 
ENDROOT
BRANCH   1   7
HETATM    7  N   UNL     1      -1.821   5.007 -35.016  1.00  0.00     0.088 N 
HETATM    8  H   UNL     1      -1.105   5.588 -35.453  1.00  0.00     0.313 HD
HETATM    9  H   UNL     1      -2.601   4.962 -35.666  1.00  0.00     0.313 HD
ENDBRANCH   1   7
BRANCH   1  10
HETATM   10  C   UNL     1      -1.436   6.904 -33.457  1.00  0.00     0.079 C 
BRANCH  10  11
HETATM   11  C   UNL     1      -1.063   7.221 -32.023  1.00  0.00    -0.056 A 
HETATM   12  C   UNL     1      -1.928   7.959 -31.203  1.00  0.00     0.009 A 
HETATM   13  C   UNL     1      -1.584   8.239 -29.880  1.00  0.00     0.024 A 
HETATM   14  C   UNL     1      -0.372   7.784 -29.367  1.00  0.00     0.034 A 
HETATM   15 CL   UNL     1       0.053   8.131 -27.736  1.00  0.00    -0.084 Cl
HETATM   16  C   UNL     1       0.499   7.050 -30.168  1.00  0.00     0.024 A 
HETATM   17  C   UNL     1       0.153   6.767 -31.491  1.00  0.00     0.009 A 
ENDBRANCH  10  11
ENDBRANCH   1  10
BRANCH   4  18
HETATM   18  C   UNL     1      -5.173   3.001 -31.917  1.00  0.00     0.045 A 
HETATM   19  C   UNL     1      -5.416   1.688 -32.367  1.00  0.00     0.047 A 
HETATM   20  C   UNL     1      -6.371   0.870 -31.770  1.00  0.00     0.092 A 
HETATM   21  N   UNL     1      -7.104   1.303 -30.741  1.00  0.00    -0.351 N 
HETATM   22  H   UNL     1      -7.804   0.700 -30.313  1.00  0.00     0.166 HD
HETATM   23  C   UNL     1      -6.907   2.566 -30.286  1.00  0.00     0.117 A 
HETATM   24  N   UNL     1      -7.567   3.190 -29.261  1.00  0.00    -0.352 N 
HETATM   25  C   UNL     1      -5.976   3.439 -30.830  1.00  0.00     0.036 A 
HETATM   26  H   UNL     1      -8.298   2.801 -28.678  1.00  0.00     0.166 HD
HETATM   27  C   UNL     1      -7.094   4.473 -29.143  1.00  0.00     0.090 A 
HETATM   28  C   UNL     1      -6.122   4.657 -30.104  1.00  0.00     0.034 A 
ENDBRANCH   4  18
TORSDOF 4
ENDMDL
MODEL 10
REMARK VINA RESULT:      -7.6      4.132      5.682
REMARK  4 active torsions:
REMARK  status: ('A' for Active; 'I' for Inactive)
REMARK    1  A    between atoms: N_1  and  C_2 
REMARK    2  A    between atoms: C_2  and  C_3 
REMARK    3  A    between atoms: C_3  and  C_4 
REMARK    4  A    between atoms: N_13  and  C_16 
ROOT
HETATM    1  C   UNL     1      -9.352   1.258 -33.320  1.00  0.00     0.162 C 
HETATM    2  C   UNL     1      -8.772   0.649 -34.624  1.00  0.00     0.061 C 
HETATM    3  C   UNL     1      -7.275   0.337 -34.555  1.00  0.00     0.125 C 
HETATM    4  N   UNL     1      -7.017  -0.498 -33.377  1.00  0.00    -0.380 N 
HETATM    5  C   UNL     1      -7.376   0.157 -32.106  1.00  0.00     0.125 C 
HETATM    6  C   UNL     1      -8.878   0.432 -32.103  1.00  0.00     0.061 C 
ENDROOT
BRANCH   1   7
HETATM    7  N   UNL     1      -8.891   2.654 -33.183  1.00  0.00     0.088 N 
HETATM    8  H   UNL     1      -8.073   2.817 -33.769  1.00  0.00     0.313 HD
HETATM    9  H   UNL     1      -8.620   2.876 -32.230  1.00  0.00     0.313 HD
ENDBRANCH   1   7
BRANCH   1  10
HETATM   10  C   UNL     1     -10.913   1.229 -33.435  1.00  0.00     0.079 C 
BRANCH  10  11
HETATM   11  C   UNL     1     -11.583   2.468 -33.991  1.00  0.00    -0.056 A 
HETATM   12  C   UNL     1     -11.790   2.614 -35.370  1.00  0.00     0.009 A 
HETATM   13  C   UNL     1     -12.418   3.753 -35.876  1.00  0.00     0.024 A 
HETATM   14  C   UNL     1     -12.841   4.756 -35.008  1.00  0.00     0.034 A 
HETATM   15 CL   UNL     1     -13.613   6.162 -35.631  1.00  0.00    -0.084 Cl
HETATM   16  C   UNL     1     -12.643   4.627 -33.636  1.00  0.00     0.024 A 
HETATM   17  C   UNL     1     -12.018   3.485 -33.128  1.00  0.00     0.009 A 
ENDBRANCH  10  11
ENDBRANCH   1  10
BRANCH   4  18
HETATM   18  C   UNL     1      -5.922  -1.350 -33.338  1.00  0.00     0.045 A 
HETATM   19  C   UNL     1      -4.718  -1.017 -32.685  1.00  0.00     0.047 A 
HETATM   20  C   UNL     1      -3.618  -1.868 -32.690  1.00  0.00     0.092 A 
HETATM   21  N   UNL     1      -3.658  -3.044 -33.323  1.00  0.00    -0.351 N 
HETATM   22  H   UNL     1      -2.847  -3.659 -33.326  1.00  0.00     0.166 HD
HETATM   23  C   UNL     1      -4.796  -3.396 -33.972  1.00  0.00     0.117 A 
HETATM   24  N   UNL     1      -5.022  -4.543 -34.687  1.00  0.00    -0.352 N 
HETATM   25  C   UNL     1      -5.932  -2.600 -34.013  1.00  0.00     0.036 A 
HETATM   26  H   UNL     1      -4.377  -5.310 -34.831  1.00  0.00     0.166 HD
HETATM   27  C   UNL     1      -6.288  -4.495 -35.214  1.00  0.00     0.090 A 
HETATM   28  C   UNL     1      -6.866  -3.306 -34.825  1.00  0.00     0.034 A 
ENDBRANCH   4  18
TORSDOF 4
ENDMDL
