MODEL 1
REMARK VINA RESULT:      -9.9      0.000      0.000
REMARK  9 active torsions:
REMARK  status: ('A' for Active; 'I' for Inactive)
REMARK    1  A    between atoms: C_2  and  O_3 
REMARK    2  A    between atoms: O_3  and  C_4 
REMARK    3  A    between atoms: C_7  and  C_8 
REMARK    4  A    between atoms: C_9  and  C_10 
REMARK       I    between atoms: C_10  and  N_11 
REMARK    5  A    between atoms: N_11  and  C_12 
REMARK    6  A    between atoms: C_22  and  S_23 
REMARK    7  A    between atoms: S_23  and  C_24 
REMARK    8  A    between atoms: C_24  and  C_25 
REMARK       I    between atoms: C_25  and  N_26 
REMARK    9  A    between atoms: N_26  and  C_27 
ROOT
HETATM    1  C   UNL     1      -6.884   2.764 -32.314  1.00  0.00     0.104 C 
HETATM    2  C   UNL     1      -8.076   3.529 -32.889  1.00  0.00     0.046 C 
HETATM    3  C   UNL     1      -7.907   4.699 -33.548  1.00  0.00     0.019 C 
HETATM    4  C   UNL     1      -9.008   5.584 -34.075  1.00  0.00     0.069 C 
HETATM    5  N   UNL     1      -6.627   5.173 -33.747  1.00  0.00    -0.353 N 
HETATM    6  C   UNL     1      -5.481   4.648 -33.192  1.00  0.00     0.087 C 
HETATM    7  C   UNL     1      -5.567   3.550 -32.406  1.00  0.00     0.055 C 
HETATM    8  C   UNL     1      -4.335   2.957 -31.743  1.00  0.00     0.019 C 
HETATM    9  N   UNL     1      -3.312   2.465 -31.192  1.00  0.00    -0.096 N 
HETATM   10  H   UNL     1      -6.477   5.933 -34.414  1.00  0.00     0.166 HD
ENDROOT
BRANCH   1  11
HETATM   11  C   UNL     1      -6.666   1.414 -33.021  1.00  0.00    -0.044 A 
HETATM   12  C   UNL     1      -6.588   0.209 -32.299  1.00  0.00     0.011 A 
HETATM   13  C   UNL     1      -6.567  -1.021 -32.962  1.00  0.00     0.037 A 
HETATM   14  C   UNL     1      -6.676  -1.073 -34.350  1.00  0.00     0.068 A 
HETATM   15  C   UNL     1      -6.700   0.116 -35.077  1.00  0.00     0.037 A 
HETATM   16  C   UNL     1      -6.691   1.351 -34.423  1.00  0.00     0.011 A 
BRANCH  14  17
HETATM   17  O   UNL     1      -6.763  -2.220 -35.089  1.00  0.00    -0.352 OA
BRANCH  17  18
HETATM   18  C   UNL     1      -5.639  -3.097 -35.009  1.00  0.00     0.171 C 
HETATM   19  C   UNL     1      -6.128  -4.522 -35.196  1.00  0.00     0.034 C 
ENDBRANCH  17  18
ENDBRANCH  14  17
ENDBRANCH   1  11
BRANCH   6  20
HETATM   20  S   UNL     1      -3.939   5.388 -33.582  1.00  0.00    -0.102 SA
BRANCH  20  21
HETATM   21  C   UNL     1      -4.100   6.939 -32.631  1.00  0.00     0.184 C 
BRANCH  21  22
HETATM   22  C   UNL     1      -2.761   7.495 -32.135  1.00  0.00     0.231 C 
HETATM   23  N   UNL     1      -2.507   7.125 -30.818  1.00  0.00    -0.326 N 
HETATM   24  H   UNL     1      -3.029   6.323 -30.485  1.00  0.00     0.169 HD
HETATM   25  O   UNL     1      -2.016   8.164 -32.846  1.00  0.00    -0.272 OA
BRANCH  23  26
HETATM   26  C   UNL     1      -1.409   7.500 -30.004  1.00  0.00     0.040 A 
HETATM   27  C   UNL     1      -0.126   6.927 -30.012  1.00  0.00    -0.035 A 
HETATM   28  C   UNL     1       0.353   5.907 -31.007  1.00  0.00     0.050 C 
HETATM   29  C   UNL     1       0.826   7.370 -29.068  1.00  0.00     0.009 A 
HETATM   30  C   UNL     1       0.545   8.406 -28.180  1.00  0.00     0.001 A 
HETATM   31  C   UNL     1      -0.692   9.031 -28.230  1.00  0.00     0.002 A 
HETATM   32  C   UNL     1      -1.652   8.588 -29.144  1.00  0.00     0.030 A 
ENDBRANCH  23  26
ENDBRANCH  21  22
ENDBRANCH  20  21
ENDBRANCH   6  20
BRANCH   2  33
HETATM   33  C   UNL     1      -9.415   2.918 -32.646  1.00  0.00     0.255 C 
HETATM   34  N   UNL     1      -9.900   2.248 -33.751  1.00  0.00    -0.323 N 
HETATM   35  H   UNL     1      -9.295   2.210 -34.560  1.00  0.00     0.169 HD
HETATM   36  O   UNL     1      -9.932   3.021 -31.541  1.00  0.00    -0.268 OA
BRANCH  34  37
HETATM   37  C   UNL     1     -11.174   1.673 -33.923  1.00  0.00     0.035 A 
HETATM   38  C   UNL     1     -11.528   0.407 -33.457  1.00  0.00     0.029 A 
HETATM   39  C   UNL     1     -12.829  -0.072 -33.641  1.00  0.00     0.002 A 
HETATM   40  C   UNL     1     -13.785   0.711 -34.285  1.00  0.00     0.000 A 
HETATM   41  C   UNL     1     -13.440   1.974 -34.756  1.00  0.00     0.002 A 
HETATM   42  C   UNL     1     -12.138   2.450 -34.580  1.00  0.00     0.029 A 
ENDBRANCH  34  37
ENDBRANCH   2  33
TORSDOF 9
ENDMDL
MODEL 2
REMARK VINA RESULT:      -9.8      3.504      8.991
REMARK  9 active torsions:
REMARK  status: ('A' for Active; 'I' for Inactive)
REMARK    1  A    between atoms: C_2  and  O_3 
REMARK    2  A    between atoms: O_3  and  C_4 
REMARK    3  A    between atoms: C_7  and  C_8 
REMARK    4  A    between atoms: C_9  and  C_10 
REMARK       I    between atoms: C_10  and  N_11 
REMARK    5  A    between atoms: N_11  and  C_12 
REMARK    6  A    between atoms: C_22  and  S_23 
REMARK    7  A    between atoms: S_23  and  C_24 
REMARK    8  A    between atoms: C_24  and  C_25 
REMARK       I    between atoms: C_25  and  N_26 
REMARK    9  A    between atoms: N_26  and  C_27 
ROOT
HETATM    1  C   UNL     1      -6.937   2.056 -30.885  1.00  0.00     0.104 C 
HETATM    2  C   UNL     1      -7.619   0.874 -31.577  1.00  0.00     0.046 C 
HETATM    3  C   UNL     1      -8.948   0.883 -31.830  1.00  0.00     0.019 C 
HETATM    4  C   UNL     1      -9.742  -0.256 -32.419  1.00  0.00     0.069 C 
HETATM    5  N   UNL     1      -9.682   2.003 -31.502  1.00  0.00    -0.353 N 
HETATM    6  C   UNL     1      -9.222   3.083 -30.781  1.00  0.00     0.087 C 
HETATM    7  C   UNL     1      -7.934   3.104 -30.368  1.00  0.00     0.055 C 
HETATM    8  C   UNL     1      -7.391   4.256 -29.538  1.00  0.00     0.019 C 
HETATM    9  N   UNL     1      -6.940   5.212 -28.850  1.00  0.00    -0.096 N 
HETATM   10  H   UNL     1     -10.629   2.102 -31.873  1.00  0.00     0.166 HD
ENDROOT
BRANCH   1  11
HETATM   11  C   UNL     1      -5.946   2.779 -31.814  1.00  0.00    -0.044 A 
HETATM   12  C   UNL     1      -6.367   3.383 -33.013  1.00  0.00     0.011 A 
HETATM   13  C   UNL     1      -5.494   4.184 -33.755  1.00  0.00     0.037 A 
HETATM   14  C   UNL     1      -4.206   4.436 -33.290  1.00  0.00     0.068 A 
HETATM   15  C   UNL     1      -3.761   3.799 -32.132  1.00  0.00     0.037 A 
HETATM   16  C   UNL     1      -4.619   2.974 -31.400  1.00  0.00     0.011 A 
BRANCH  14  17
HETATM   17  O   UNL     1      -3.307   5.278 -33.884  1.00  0.00    -0.352 OA
BRANCH  17  18
HETATM   18  C   UNL     1      -1.952   4.825 -33.904  1.00  0.00     0.171 C 
HETATM   19  C   UNL     1      -1.101   5.891 -34.570  1.00  0.00     0.034 C 
ENDBRANCH  17  18
ENDBRANCH  14  17
ENDBRANCH   1  11
BRANCH   6  20
HETATM   20  S   UNL     1     -10.312   4.423 -30.481  1.00  0.00    -0.102 SA
BRANCH  20  21
HETATM   21  C   UNL     1     -10.428   5.103 -32.172  1.00  0.00     0.184 C 
BRANCH  21  22
HETATM   22  C   UNL     1     -11.627   4.573 -32.964  1.00  0.00     0.231 C 
HETATM   23  N   UNL     1     -12.214   3.478 -32.338  1.00  0.00    -0.326 N 
HETATM   24  H   UNL     1     -12.008   3.382 -31.351  1.00  0.00     0.169 HD
HETATM   25  O   UNL     1     -12.010   5.088 -34.011  1.00  0.00    -0.272 OA
BRANCH  23  26
HETATM   26  C   UNL     1     -13.296   2.687 -32.799  1.00  0.00     0.040 A 
HETATM   27  C   UNL     1     -13.286   1.818 -33.904  1.00  0.00    -0.035 A 
HETATM   28  C   UNL     1     -12.065   1.459 -34.704  1.00  0.00     0.050 C 
HETATM   29  C   UNL     1     -14.485   1.169 -34.273  1.00  0.00     0.009 A 
HETATM   30  C   UNL     1     -15.653   1.317 -33.528  1.00  0.00     0.001 A 
HETATM   31  C   UNL     1     -15.640   2.105 -32.387  1.00  0.00     0.002 A 
HETATM   32  C   UNL     1     -14.467   2.771 -32.023  1.00  0.00     0.030 A 
ENDBRANCH  23  26
ENDBRANCH  21  22
ENDBRANCH  20  21
ENDBRANCH   6  20
BRANCH   2  33
HETATM   33  C   UNL     1      -6.732  -0.276 -31.917  1.00  0.00     0.255 C 
HETATM   34  N   UNL     1      -6.835  -0.651 -33.241  1.00  0.00    -0.323 N 
HETATM   35  H   UNL     1      -7.447  -0.095 -33.824  1.00  0.00     0.169 HD
HETATM   36  O   UNL     1      -6.000  -0.746 -31.056  1.00  0.00    -0.268 OA
BRANCH  34  37
HETATM   37  C   UNL     1      -6.253  -1.768 -33.871  1.00  0.00     0.035 A 
HETATM   38  C   UNL     1      -4.878  -1.961 -34.003  1.00  0.00     0.029 A 
HETATM   39  C   UNL     1      -4.385  -3.119 -34.612  1.00  0.00     0.002 A 
HETATM   40  C   UNL     1      -5.260  -4.094 -35.088  1.00  0.00     0.000 A 
HETATM   41  C   UNL     1      -6.633  -3.908 -34.963  1.00  0.00     0.002 A 
HETATM   42  C   UNL     1      -7.127  -2.748 -34.362  1.00  0.00     0.029 A 
ENDBRANCH  34  37
ENDBRANCH   2  33
TORSDOF 9
ENDMDL
MODEL 3
REMARK VINA RESULT:      -9.7      2.512      5.685
REMARK  9 active torsions:
REMARK  status: ('A' for Active; 'I' for Inactive)
REMARK    1  A    between atoms: C_2  and  O_3 
REMARK    2  A    between atoms: O_3  and  C_4 
REMARK    3  A    between atoms: C_7  and  C_8 
REMARK    4  A    between atoms: C_9  and  C_10 
REMARK       I    between atoms: C_10  and  N_11 
REMARK    5  A    between atoms: N_11  and  C_12 
REMARK    6  A    between atoms: C_22  and  S_23 
REMARK    7  A    between atoms: S_23  and  C_24 
REMARK    8  A    between atoms: C_24  and  C_25 
REMARK       I    between atoms: C_25  and  N_26 
REMARK    9  A    between atoms: N_26  and  C_27 
ROOT
HETATM    1  C   UNL     1      -5.614   2.157 -32.649  1.00  0.00     0.104 C 
HETATM    2  C   UNL     1      -4.774   1.008 -32.087  1.00  0.00     0.046 C 
HETATM    3  C   UNL     1      -3.577   1.238 -31.500  1.00  0.00     0.019 C 
HETATM    4  C   UNL     1      -2.624   0.183 -30.996  1.00  0.00     0.069 C 
HETATM    5  N   UNL     1      -3.140   2.538 -31.362  1.00  0.00    -0.353 N 
HETATM    6  C   UNL     1      -3.737   3.649 -31.916  1.00  0.00     0.087 C 
HETATM    7  C   UNL     1      -4.873   3.503 -32.636  1.00  0.00     0.055 C 
HETATM    8  C   UNL     1      -5.547   4.694 -33.297  1.00  0.00     0.019 C 
HETATM    9  N   UNL     1      -6.106   5.682 -33.845  1.00  0.00    -0.096 N 
HETATM   10  H   UNL     1      -2.350   2.734 -30.743  1.00  0.00     0.166 HD
ENDROOT
BRANCH   1  11
HETATM   11  C   UNL     1      -6.929   2.346 -31.873  1.00  0.00    -0.044 A 
HETATM   12  C   UNL     1      -6.947   2.884 -30.573  1.00  0.00     0.011 A 
HETATM   13  C   UNL     1      -8.155   3.213 -29.951  1.00  0.00     0.037 A 
HETATM   14  C   UNL     1      -9.360   3.060 -30.633  1.00  0.00     0.068 A 
HETATM   15  C   UNL     1      -9.358   2.479 -31.901  1.00  0.00     0.037 A 
HETATM   16  C   UNL     1      -8.156   2.120 -32.517  1.00  0.00     0.011 A 
BRANCH  14  17
HETATM   17  O   UNL     1     -10.584   3.440 -30.159  1.00  0.00    -0.352 OA
BRANCH  17  18
HETATM   18  C   UNL     1     -11.366   4.251 -31.037  1.00  0.00     0.171 C 
HETATM   19  C   UNL     1     -12.794   4.277 -30.522  1.00  0.00     0.034 C 
ENDBRANCH  17  18
ENDBRANCH  14  17
ENDBRANCH   1  11
BRANCH   6  20
HETATM   20  S   UNL     1      -3.033   5.226 -31.609  1.00  0.00    -0.102 SA
BRANCH  20  21
HETATM   21  C   UNL     1      -1.322   4.722 -31.216  1.00  0.00     0.184 C 
BRANCH  21  22
HETATM   22  C   UNL     1      -0.462   5.860 -30.657  1.00  0.00     0.231 C 
HETATM   23  N   UNL     1      -0.698   6.067 -29.302  1.00  0.00    -0.326 N 
HETATM   24  H   UNL     1      -1.123   5.287 -28.814  1.00  0.00     0.169 HD
HETATM   25  O   UNL     1       0.344   6.481 -31.345  1.00  0.00    -0.272 OA
BRANCH  23  26
HETATM   26  C   UNL     1      -0.143   7.064 -28.462  1.00  0.00     0.040 A 
HETATM   27  C   UNL     1      -0.522   8.417 -28.406  1.00  0.00    -0.035 A 
HETATM   28  C   UNL     1      -1.700   9.010 -29.126  1.00  0.00     0.050 C 
HETATM   29  C   UNL     1       0.201   9.294 -27.567  1.00  0.00     0.009 A 
HETATM   30  C   UNL     1       1.230   8.835 -26.746  1.00  0.00     0.001 A 
HETATM   31  C   UNL     1       1.545   7.485 -26.738  1.00  0.00     0.002 A 
HETATM   32  C   UNL     1       0.854   6.610 -27.579  1.00  0.00     0.030 A 
ENDBRANCH  23  26
ENDBRANCH  21  22
ENDBRANCH  20  21
ENDBRANCH   6  20
BRANCH   2  33
HETATM   33  C   UNL     1      -5.349  -0.357 -32.260  1.00  0.00     0.255 C 
HETATM   34  N   UNL     1      -4.865  -0.997 -33.384  1.00  0.00    -0.323 N 
HETATM   35  H   UNL     1      -4.165  -0.502 -33.921  1.00  0.00     0.169 HD
HETATM   36  O   UNL     1      -6.130  -0.792 -31.425  1.00  0.00    -0.268 OA
BRANCH  34  37
HETATM   37  C   UNL     1      -5.282  -2.228 -33.925  1.00  0.00     0.035 A 
HETATM   38  C   UNL     1      -6.542  -2.448 -34.483  1.00  0.00     0.029 A 
HETATM   39  C   UNL     1      -6.861  -3.694 -35.031  1.00  0.00     0.002 A 
HETATM   40  C   UNL     1      -5.924  -4.725 -35.033  1.00  0.00     0.000 A 
HETATM   41  C   UNL     1      -4.666  -4.516 -34.477  1.00  0.00     0.002 A 
HETATM   42  C   UNL     1      -4.349  -3.274 -33.921  1.00  0.00     0.029 A 
ENDBRANCH  34  37
ENDBRANCH   2  33
TORSDOF 9
ENDMDL
MODEL 4
REMARK VINA RESULT:      -9.5      3.063      8.107
REMARK  9 active torsions:
REMARK  status: ('A' for Active; 'I' for Inactive)
REMARK    1  A    between atoms: C_2  and  O_3 
REMARK    2  A    between atoms: O_3  and  C_4 
REMARK    3  A    between atoms: C_7  and  C_8 
REMARK    4  A    between atoms: C_9  and  C_10 
REMARK       I    between atoms: C_10  and  N_11 
REMARK    5  A    between atoms: N_11  and  C_12 
REMARK    6  A    between atoms: C_22  and  S_23 
REMARK    7  A    between atoms: S_23  and  C_24 
REMARK    8  A    between atoms: C_24  and  C_25 
REMARK       I    between atoms: C_25  and  N_26 
REMARK    9  A    between atoms: N_26  and  C_27 
ROOT
HETATM    1  C   UNL     1      -6.072   2.436 -30.736  1.00  0.00     0.104 C 
HETATM    2  C   UNL     1      -6.977   1.356 -31.332  1.00  0.00     0.046 C 
HETATM    3  C   UNL     1      -8.304   1.564 -31.492  1.00  0.00     0.019 C 
HETATM    4  C   UNL     1      -9.305   0.547 -31.978  1.00  0.00     0.069 C 
HETATM    5  N   UNL     1      -8.831   2.794 -31.159  1.00  0.00    -0.353 N 
HETATM    6  C   UNL     1      -8.158   3.809 -30.515  1.00  0.00     0.087 C 
HETATM    7  C   UNL     1      -6.855   3.642 -30.194  1.00  0.00     0.055 C 
HETATM    8  C   UNL     1      -6.081   4.718 -29.451  1.00  0.00     0.019 C 
HETATM    9  N   UNL     1      -5.439   5.612 -28.834  1.00  0.00    -0.096 N 
HETATM   10  H   UNL     1      -9.777   3.029 -31.467  1.00  0.00     0.166 HD
ENDROOT
BRANCH   1  11
HETATM   11  C   UNL     1      -5.054   2.969 -31.760  1.00  0.00    -0.044 A 
HETATM   12  C   UNL     1      -5.465   3.641 -32.926  1.00  0.00     0.011 A 
HETATM   13  C   UNL     1      -4.532   4.271 -33.755  1.00  0.00     0.037 A 
HETATM   14  C   UNL     1      -3.183   4.286 -33.409  1.00  0.00     0.068 A 
HETATM   15  C   UNL     1      -2.759   3.578 -32.285  1.00  0.00     0.037 A 
HETATM   16  C   UNL     1      -3.682   2.921 -31.468  1.00  0.00     0.011 A 
BRANCH  14  17
HETATM   17  O   UNL     1      -2.204   4.952 -34.092  1.00  0.00    -0.352 OA
BRANCH  17  18
HETATM   18  C   UNL     1      -1.311   5.732 -33.295  1.00  0.00     0.171 C 
HETATM   19  C   UNL     1      -1.636   7.199 -33.508  1.00  0.00     0.034 C 
ENDBRANCH  17  18
ENDBRANCH  14  17
ENDBRANCH   1  11
BRANCH   6  20
HETATM   20  S   UNL     1      -9.005   5.312 -30.194  1.00  0.00    -0.102 SA
BRANCH  20  21
HETATM   21  C   UNL     1      -8.491   6.268 -31.663  1.00  0.00     0.184 C 
BRANCH  21  22
HETATM   22  C   UNL     1      -8.954   5.653 -32.987  1.00  0.00     0.231 C 
HETATM   23  N   UNL     1     -10.292   5.275 -32.939  1.00  0.00    -0.326 N 
HETATM   24  H   UNL     1     -10.842   5.722 -32.215  1.00  0.00     0.169 HD
HETATM   25  O   UNL     1      -8.214   5.540 -33.961  1.00  0.00    -0.272 OA
BRANCH  23  26
HETATM   26  C   UNL     1     -11.049   4.618 -33.941  1.00  0.00     0.040 A 
HETATM   27  C   UNL     1     -11.841   5.231 -34.928  1.00  0.00    -0.035 A 
HETATM   28  C   UNL     1     -11.900   6.710 -35.187  1.00  0.00     0.050 C 
HETATM   29  C   UNL     1     -12.600   4.415 -35.797  1.00  0.00     0.009 A 
HETATM   30  C   UNL     1     -12.525   3.025 -35.743  1.00  0.00     0.001 A 
HETATM   31  C   UNL     1     -11.677   2.422 -34.828  1.00  0.00     0.002 A 
HETATM   32  C   UNL     1     -10.937   3.215 -33.947  1.00  0.00     0.030 A 
ENDBRANCH  23  26
ENDBRANCH  21  22
ENDBRANCH  20  21
ENDBRANCH   6  20
BRANCH   2  33
HETATM   33  C   UNL     1      -6.304   0.073 -31.686  1.00  0.00     0.255 C 
HETATM   34  N   UNL     1      -6.397  -0.220 -33.031  1.00  0.00    -0.323 N 
HETATM   35  H   UNL     1      -6.857   0.467 -33.614  1.00  0.00     0.169 HD
HETATM   36  O   UNL     1      -5.727  -0.565 -30.815  1.00  0.00    -0.268 OA
BRANCH  34  37
HETATM   37  C   UNL     1      -6.000  -1.401 -33.689  1.00  0.00     0.035 A 
HETATM   38  C   UNL     1      -4.673  -1.800 -33.841  1.00  0.00     0.029 A 
HETATM   39  C   UNL     1      -4.369  -3.008 -34.478  1.00  0.00     0.002 A 
HETATM   40  C   UNL     1      -5.388  -3.827 -34.960  1.00  0.00     0.000 A 
HETATM   41  C   UNL     1      -6.715  -3.435 -34.815  1.00  0.00     0.002 A 
HETATM   42  C   UNL     1      -7.019  -2.225 -34.187  1.00  0.00     0.029 A 
ENDBRANCH  34  37
ENDBRANCH   2  33
TORSDOF 9
ENDMDL
MODEL 5
REMARK VINA RESULT:      -9.4      2.541      5.632
REMARK  9 active torsions:
REMARK  status: ('A' for Active; 'I' for Inactive)
REMARK    1  A    between atoms: C_2  and  O_3 
REMARK    2  A    between atoms: O_3  and  C_4 
REMARK    3  A    between atoms: C_7  and  C_8 
REMARK    4  A    between atoms: C_9  and  C_10 
REMARK       I    between atoms: C_10  and  N_11 
REMARK    5  A    between atoms: N_11  and  C_12 
REMARK    6  A    between atoms: C_22  and  S_23 
REMARK    7  A    between atoms: S_23  and  C_24 
REMARK    8  A    between atoms: C_24  and  C_25 
REMARK       I    between atoms: C_25  and  N_26 
REMARK    9  A    between atoms: N_26  and  C_27 
ROOT
HETATM    1  C   UNL     1      -6.611   2.496 -32.157  1.00  0.00     0.104 C 
HETATM    2  C   UNL     1      -7.556   2.062 -33.279  1.00  0.00     0.046 C 
HETATM    3  C   UNL     1      -8.743   2.682 -33.476  1.00  0.00     0.019 C 
HETATM    4  C   UNL     1      -9.791   2.283 -34.484  1.00  0.00     0.069 C 
HETATM    5  N   UNL     1      -9.073   3.758 -32.679  1.00  0.00    -0.353 N 
HETATM    6  C   UNL     1      -8.373   4.182 -31.570  1.00  0.00     0.087 C 
HETATM    7  C   UNL     1      -7.239   3.537 -31.216  1.00  0.00     0.055 C 
HETATM    8  C   UNL     1      -6.453   3.945 -29.980  1.00  0.00     0.019 C 
HETATM    9  N   UNL     1      -5.802   4.283 -28.954  1.00  0.00    -0.096 N 
HETATM   10  H   UNL     1      -9.857   4.354 -32.951  1.00  0.00     0.166 HD
ENDROOT
BRANCH   1  11
HETATM   11  C   UNL     1      -5.302   3.095 -32.701  1.00  0.00    -0.044 A 
HETATM   12  C   UNL     1      -5.300   4.227 -33.535  1.00  0.00     0.011 A 
HETATM   13  C   UNL     1      -4.103   4.862 -33.877  1.00  0.00     0.037 A 
HETATM   14  C   UNL     1      -2.895   4.411 -33.351  1.00  0.00     0.068 A 
HETATM   15  C   UNL     1      -2.879   3.259 -32.566  1.00  0.00     0.037 A 
HETATM   16  C   UNL     1      -4.069   2.601 -32.245  1.00  0.00     0.011 A 
BRANCH  14  17
HETATM   17  O   UNL     1      -1.682   5.014 -33.540  1.00  0.00    -0.352 OA
BRANCH  17  18
HETATM   18  C   UNL     1      -1.666   6.100 -34.468  1.00  0.00     0.171 C 
HETATM   19  C   UNL     1      -1.577   7.398 -33.686  1.00  0.00     0.034 C 
ENDBRANCH  17  18
ENDBRANCH  14  17
ENDBRANCH   1  11
BRANCH   6  20
HETATM   20  S   UNL     1      -8.951   5.588 -30.696  1.00  0.00    -0.102 SA
BRANCH  20  21
HETATM   21  C   UNL     1      -7.975   6.885 -31.533  1.00  0.00     0.184 C 
BRANCH  21  22
HETATM   22  C   UNL     1      -6.807   7.411 -30.692  1.00  0.00     0.231 C 
HETATM   23  N   UNL     1      -5.601   7.336 -31.382  1.00  0.00    -0.326 N 
HETATM   24  H   UNL     1      -5.683   7.267 -32.389  1.00  0.00     0.169 HD
HETATM   25  O   UNL     1      -6.954   7.857 -29.557  1.00  0.00    -0.272 OA
BRANCH  23  26
HETATM   26  C   UNL     1      -4.306   7.665 -30.911  1.00  0.00     0.040 A 
HETATM   27  C   UNL     1      -3.778   8.958 -30.746  1.00  0.00    -0.035 A 
HETATM   28  C   UNL     1      -4.563  10.231 -30.896  1.00  0.00     0.050 C 
HETATM   29  C   UNL     1      -2.431   9.100 -30.345  1.00  0.00     0.009 A 
HETATM   30  C   UNL     1      -1.639   7.993 -30.045  1.00  0.00     0.001 A 
HETATM   31  C   UNL     1      -2.186   6.722 -30.124  1.00  0.00     0.002 A 
HETATM   32  C   UNL     1      -3.510   6.565 -30.540  1.00  0.00     0.030 A 
ENDBRANCH  23  26
ENDBRANCH  21  22
ENDBRANCH  20  21
ENDBRANCH   6  20
BRANCH   2  33
HETATM   33  C   UNL     1      -7.093   0.907 -34.102  1.00  0.00     0.255 C 
HETATM   34  N   UNL     1      -6.920  -0.240 -33.355  1.00  0.00    -0.323 N 
HETATM   35  H   UNL     1      -7.159  -0.183 -32.373  1.00  0.00     0.169 HD
HETATM   36  O   UNL     1      -6.946   1.049 -35.309  1.00  0.00    -0.268 OA
BRANCH  34  37
HETATM   37  C   UNL     1      -6.371  -1.469 -33.771  1.00  0.00     0.035 A 
HETATM   38  C   UNL     1      -7.101  -2.476 -34.401  1.00  0.00     0.029 A 
HETATM   39  C   UNL     1      -6.467  -3.652 -34.814  1.00  0.00     0.002 A 
HETATM   40  C   UNL     1      -5.101  -3.828 -34.606  1.00  0.00     0.000 A 
HETATM   41  C   UNL     1      -4.365  -2.829 -33.976  1.00  0.00     0.002 A 
HETATM   42  C   UNL     1      -4.998  -1.657 -33.555  1.00  0.00     0.029 A 
ENDBRANCH  34  37
ENDBRANCH   2  33
TORSDOF 9
ENDMDL
MODEL 6
REMARK VINA RESULT:      -9.3      2.321      5.673
REMARK  9 active torsions:
REMARK  status: ('A' for Active; 'I' for Inactive)
REMARK    1  A    between atoms: C_2  and  O_3 
REMARK    2  A    between atoms: O_3  and  C_4 
REMARK    3  A    between atoms: C_7  and  C_8 
REMARK    4  A    between atoms: C_9  and  C_10 
REMARK       I    between atoms: C_10  and  N_11 
REMARK    5  A    between atoms: N_11  and  C_12 
REMARK    6  A    between atoms: C_22  and  S_23 
REMARK    7  A    between atoms: S_23  and  C_24 
REMARK    8  A    between atoms: C_24  and  C_25 
REMARK       I    between atoms: C_25  and  N_26 
REMARK    9  A    between atoms: N_26  and  C_27 
ROOT
HETATM    1  C   UNL     1      -7.410   2.720 -33.067  1.00  0.00     0.104 C 
HETATM    2  C   UNL     1      -6.579   1.512 -32.633  1.00  0.00     0.046 C 
HETATM    3  C   UNL     1      -6.047   1.437 -31.390  1.00  0.00     0.019 C 
HETATM    4  C   UNL     1      -5.139   0.346 -30.883  1.00  0.00     0.069 C 
HETATM    5  N   UNL     1      -6.311   2.448 -30.490  1.00  0.00    -0.353 N 
HETATM    6  C   UNL     1      -6.946   3.636 -30.780  1.00  0.00     0.087 C 
HETATM    7  C   UNL     1      -7.398   3.858 -32.035  1.00  0.00     0.055 C 
HETATM    8  C   UNL     1      -8.070   5.168 -32.411  1.00  0.00     0.019 C 
HETATM    9  N   UNL     1      -8.629   6.255 -32.723  1.00  0.00    -0.096 N 
HETATM   10  H   UNL     1      -6.094   2.302 -29.502  1.00  0.00     0.166 HD
ENDROOT
BRANCH   1  11
HETATM   11  C   UNL     1      -8.881   2.348 -33.327  1.00  0.00    -0.044 A 
HETATM   12  C   UNL     1      -9.657   3.033 -34.280  1.00  0.00     0.011 A 
HETATM   13  C   UNL     1     -10.930   2.573 -34.630  1.00  0.00     0.037 A 
HETATM   14  C   UNL     1     -11.428   1.397 -34.074  1.00  0.00     0.068 A 
HETATM   15  C   UNL     1     -10.691   0.740 -33.089  1.00  0.00     0.037 A 
HETATM   16  C   UNL     1      -9.429   1.211 -32.713  1.00  0.00     0.011 A 
BRANCH  14  17
HETATM   17  O   UNL     1     -12.614   0.808 -34.416  1.00  0.00    -0.352 OA
BRANCH  17  18
HETATM   18  C   UNL     1     -13.711   1.067 -33.539  1.00  0.00     0.171 C 
HETATM   19  C   UNL     1     -14.996   0.692 -34.254  1.00  0.00     0.034 C 
ENDBRANCH  17  18
ENDBRANCH  14  17
ENDBRANCH   1  11
BRANCH   6  20
HETATM   20  S   UNL     1      -7.202   4.792 -29.486  1.00  0.00    -0.102 SA
BRANCH  20  21
HETATM   21  C   UNL     1      -5.480   5.339 -29.223  1.00  0.00     0.184 C 
BRANCH  21  22
HETATM   22  C   UNL     1      -4.825   5.924 -30.478  1.00  0.00     0.231 C 
HETATM   23  N   UNL     1      -3.688   5.211 -30.847  1.00  0.00    -0.326 N 
HETATM   24  H   UNL     1      -3.628   4.271 -30.474  1.00  0.00     0.169 HD
HETATM   25  O   UNL     1      -5.284   6.894 -31.075  1.00  0.00    -0.272 OA
BRANCH  23  26
HETATM   26  C   UNL     1      -2.790   5.490 -31.907  1.00  0.00     0.040 A 
HETATM   27  C   UNL     1      -1.847   6.531 -31.954  1.00  0.00    -0.035 A 
HETATM   28  C   UNL     1      -1.522   7.448 -30.808  1.00  0.00     0.050 C 
HETATM   29  C   UNL     1      -1.089   6.713 -33.131  1.00  0.00     0.009 A 
HETATM   30  C   UNL     1      -1.204   5.844 -34.214  1.00  0.00     0.001 A 
HETATM   31  C   UNL     1      -2.071   4.765 -34.134  1.00  0.00     0.002 A 
HETATM   32  C   UNL     1      -2.844   4.586 -32.985  1.00  0.00     0.030 A 
ENDBRANCH  23  26
ENDBRANCH  21  22
ENDBRANCH  20  21
ENDBRANCH   6  20
BRANCH   2  33
HETATM   33  C   UNL     1      -6.376   0.460 -33.670  1.00  0.00     0.255 C 
HETATM   34  N   UNL     1      -6.304  -0.809 -33.131  1.00  0.00    -0.323 N 
HETATM   35  H   UNL     1      -6.435  -0.885 -32.131  1.00  0.00     0.169 HD
HETATM   36  O   UNL     1      -6.327   0.780 -34.851  1.00  0.00    -0.268 OA
BRANCH  34  37
HETATM   37  C   UNL     1      -5.987  -2.012 -33.792  1.00  0.00     0.035 A 
HETATM   38  C   UNL     1      -4.696  -2.525 -33.901  1.00  0.00     0.029 A 
HETATM   39  C   UNL     1      -4.476  -3.747 -34.544  1.00  0.00     0.002 A 
HETATM   40  C   UNL     1      -5.544  -4.467 -35.076  1.00  0.00     0.000 A 
HETATM   41  C   UNL     1      -6.836  -3.962 -34.973  1.00  0.00     0.002 A 
HETATM   42  C   UNL     1      -7.056  -2.737 -34.338  1.00  0.00     0.029 A 
ENDBRANCH  34  37
ENDBRANCH   2  33
TORSDOF 9
ENDMDL
MODEL 7
REMARK VINA RESULT:      -9.2      2.614      9.168
REMARK  9 active torsions:
REMARK  status: ('A' for Active; 'I' for Inactive)
REMARK    1  A    between atoms: C_2  and  O_3 
REMARK    2  A    between atoms: O_3  and  C_4 
REMARK    3  A    between atoms: C_7  and  C_8 
REMARK    4  A    between atoms: C_9  and  C_10 
REMARK       I    between atoms: C_10  and  N_11 
REMARK    5  A    between atoms: N_11  and  C_12 
REMARK    6  A    between atoms: C_22  and  S_23 
REMARK    7  A    between atoms: S_23  and  C_24 
REMARK    8  A    between atoms: C_24  and  C_25 
REMARK       I    between atoms: C_25  and  N_26 
REMARK    9  A    between atoms: N_26  and  C_27 
ROOT
HETATM    1  C   UNL     1      -6.630   2.502 -32.415  1.00  0.00     0.104 C 
HETATM    2  C   UNL     1      -7.551   1.865 -33.457  1.00  0.00     0.046 C 
HETATM    3  C   UNL     1      -8.818   2.305 -33.636  1.00  0.00     0.019 C 
HETATM    4  C   UNL     1      -9.841   1.697 -34.562  1.00  0.00     0.069 C 
HETATM    5  N   UNL     1      -9.259   3.383 -32.899  1.00  0.00    -0.353 N 
HETATM    6  C   UNL     1      -8.580   3.977 -31.857  1.00  0.00     0.087 C 
HETATM    7  C   UNL     1      -7.355   3.517 -31.517  1.00  0.00     0.055 C 
HETATM    8  C   UNL     1      -6.584   4.115 -30.352  1.00  0.00     0.019 C 
HETATM    9  N   UNL     1      -5.944   4.612 -29.385  1.00  0.00    -0.096 N 
HETATM   10  H   UNL     1     -10.127   3.849 -33.172  1.00  0.00     0.166 HD
ENDROOT
BRANCH   1  11
HETATM   11  C   UNL     1      -5.437   3.228 -33.062  1.00  0.00    -0.044 A 
HETATM   12  C   UNL     1      -5.623   4.257 -34.003  1.00  0.00     0.011 A 
HETATM   13  C   UNL     1      -4.542   5.023 -34.448  1.00  0.00     0.037 A 
HETATM   14  C   UNL     1      -3.268   4.810 -33.926  1.00  0.00     0.068 A 
HETATM   15  C   UNL     1      -3.063   3.758 -33.034  1.00  0.00     0.037 A 
HETATM   16  C   UNL     1      -4.135   2.969 -32.606  1.00  0.00     0.011 A 
BRANCH  14  17
HETATM   17  O   UNL     1      -2.164   5.561 -34.217  1.00  0.00    -0.352 OA
BRANCH  17  18
HETATM   18  C   UNL     1      -2.290   6.966 -33.989  1.00  0.00     0.171 C 
HETATM   19  C   UNL     1      -1.702   7.285 -32.626  1.00  0.00     0.034 C 
ENDBRANCH  17  18
ENDBRANCH  14  17
ENDBRANCH   1  11
BRANCH   6  20
HETATM   20  S   UNL     1      -9.308   5.355 -31.053  1.00  0.00    -0.102 SA
BRANCH  20  21
HETATM   21  C   UNL     1     -10.829   5.520 -32.051  1.00  0.00     0.184 C 
BRANCH  21  22
HETATM   22  C   UNL     1     -11.972   4.616 -31.578  1.00  0.00     0.231 C 
HETATM   23  N   UNL     1     -12.916   4.414 -32.579  1.00  0.00    -0.326 N 
HETATM   24  H   UNL     1     -12.592   4.593 -33.522  1.00  0.00     0.169 HD
HETATM   25  O   UNL     1     -12.010   4.129 -30.451  1.00  0.00    -0.272 OA
BRANCH  23  26
HETATM   26  C   UNL     1     -14.135   3.695 -32.496  1.00  0.00     0.040 A 
HETATM   27  C   UNL     1     -14.350   2.364 -32.891  1.00  0.00    -0.035 A 
HETATM   28  C   UNL     1     -13.273   1.413 -33.333  1.00  0.00     0.050 C 
HETATM   29  C   UNL     1     -15.657   1.832 -32.816  1.00  0.00     0.009 A 
HETATM   30  C   UNL     1     -16.717   2.573 -32.296  1.00  0.00     0.001 A 
HETATM   31  C   UNL     1     -16.486   3.856 -31.825  1.00  0.00     0.002 A 
HETATM   32  C   UNL     1     -15.204   4.403 -31.914  1.00  0.00     0.030 A 
ENDBRANCH  23  26
ENDBRANCH  21  22
ENDBRANCH  20  21
ENDBRANCH   6  20
BRANCH   2  33
HETATM   33  C   UNL     1      -6.968   0.724 -34.222  1.00  0.00     0.255 C 
HETATM   34  N   UNL     1      -6.809  -0.407 -33.446  1.00  0.00    -0.323 N 
HETATM   35  H   UNL     1      -7.134  -0.351 -32.490  1.00  0.00     0.169 HD
HETATM   36  O   UNL     1      -6.725   0.860 -35.413  1.00  0.00    -0.268 OA
BRANCH  34  37
HETATM   37  C   UNL     1      -6.172  -1.613 -33.798  1.00  0.00     0.035 A 
HETATM   38  C   UNL     1      -6.783  -2.635 -34.524  1.00  0.00     0.029 A 
HETATM   39  C   UNL     1      -6.065  -3.787 -34.860  1.00  0.00     0.002 A 
HETATM   40  C   UNL     1      -4.731  -3.923 -34.480  1.00  0.00     0.000 A 
HETATM   41  C   UNL     1      -4.114  -2.909 -33.753  1.00  0.00     0.002 A 
HETATM   42  C   UNL     1      -4.833  -1.762 -33.409  1.00  0.00     0.029 A 
ENDBRANCH  34  37
ENDBRANCH   2  33
TORSDOF 9
ENDMDL
MODEL 8
REMARK VINA RESULT:      -8.9      3.394     11.000
REMARK  9 active torsions:
REMARK  status: ('A' for Active; 'I' for Inactive)
REMARK    1  A    between atoms: C_2  and  O_3 
REMARK    2  A    between atoms: O_3  and  C_4 
REMARK    3  A    between atoms: C_7  and  C_8 
REMARK    4  A    between atoms: C_9  and  C_10 
REMARK       I    between atoms: C_10  and  N_11 
REMARK    5  A    between atoms: N_11  and  C_12 
REMARK    6  A    between atoms: C_22  and  S_23 
REMARK    7  A    between atoms: S_23  and  C_24 
REMARK    8  A    between atoms: C_24  and  C_25 
REMARK       I    between atoms: C_25  and  N_26 
REMARK    9  A    between atoms: N_26  and  C_27 
ROOT
HETATM    1  C   UNL     1      -4.138   5.624 -30.241  1.00  0.00     0.104 C 
HETATM    2  C   UNL     1      -2.777   5.926 -30.870  1.00  0.00     0.046 C 
HETATM    3  C   UNL     1      -2.306   5.197 -31.908  1.00  0.00     0.019 C 
HETATM    4  C   UNL     1      -0.947   5.342 -32.545  1.00  0.00     0.069 C 
HETATM    5  N   UNL     1      -3.099   4.200 -32.437  1.00  0.00    -0.353 N 
HETATM    6  C   UNL     1      -4.288   3.752 -31.903  1.00  0.00     0.087 C 
HETATM    7  C   UNL     1      -4.774   4.335 -30.784  1.00  0.00     0.055 C 
HETATM    8  C   UNL     1      -6.062   3.850 -30.138  1.00  0.00     0.019 C 
HETATM    9  N   UNL     1      -7.130   3.447 -29.602  1.00  0.00    -0.096 N 
HETATM   10  H   UNL     1      -2.847   3.791 -33.338  1.00  0.00     0.166 HD
ENDROOT
BRANCH   1  11
HETATM   11  C   UNL     1      -5.146   6.765 -30.464  1.00  0.00    -0.044 A 
HETATM   12  C   UNL     1      -5.618   7.092 -31.748  1.00  0.00     0.011 A 
HETATM   13  C   UNL     1      -6.660   8.008 -31.915  1.00  0.00     0.037 A 
HETATM   14  C   UNL     1      -7.281   8.575 -30.805  1.00  0.00     0.068 A 
HETATM   15  C   UNL     1      -6.786   8.300 -29.531  1.00  0.00     0.037 A 
HETATM   16  C   UNL     1      -5.725   7.407 -29.357  1.00  0.00     0.011 A 
BRANCH  14  17
HETATM   17  O   UNL     1      -8.368   9.404 -30.850  1.00  0.00    -0.352 OA
BRANCH  17  18
HETATM   18  C   UNL     1      -8.082  10.804 -30.815  1.00  0.00     0.171 C 
HETATM   19  C   UNL     1      -8.846  11.419 -29.656  1.00  0.00     0.034 C 
ENDBRANCH  17  18
ENDBRANCH  14  17
ENDBRANCH   1  11
BRANCH   6  20
HETATM   20  S   UNL     1      -5.159   2.479 -32.738  1.00  0.00    -0.102 SA
BRANCH  20  21
HETATM   21  C   UNL     1      -4.179   1.036 -32.198  1.00  0.00     0.184 C 
BRANCH  21  22
HETATM   22  C   UNL     1      -4.922  -0.296 -32.338  1.00  0.00     0.231 C 
HETATM   23  N   UNL     1      -4.541  -0.980 -33.488  1.00  0.00    -0.326 N 
HETATM   24  H   UNL     1      -3.651  -0.700 -33.883  1.00  0.00     0.169 HD
HETATM   25  O   UNL     1      -5.734  -0.693 -31.507  1.00  0.00    -0.272 OA
BRANCH  23  26
HETATM   26  C   UNL     1      -5.053  -2.204 -33.984  1.00  0.00     0.040 A 
HETATM   27  C   UNL     1      -6.319  -2.411 -34.559  1.00  0.00    -0.035 A 
HETATM   28  C   UNL     1      -7.301  -1.322 -34.890  1.00  0.00     0.050 C 
HETATM   29  C   UNL     1      -6.699  -3.722 -34.923  1.00  0.00     0.009 A 
HETATM   30  C   UNL     1      -5.822  -4.798 -34.790  1.00  0.00     0.001 A 
HETATM   31  C   UNL     1      -4.542  -4.579 -34.304  1.00  0.00     0.002 A 
HETATM   32  C   UNL     1      -4.161  -3.292 -33.919  1.00  0.00     0.030 A 
ENDBRANCH  23  26
ENDBRANCH  21  22
ENDBRANCH  20  21
ENDBRANCH   6  20
BRANCH   2  33
HETATM   33  C   UNL     1      -2.010   7.042 -30.244  1.00  0.00     0.255 C 
HETATM   34  N   UNL     1      -1.262   6.629 -29.160  1.00  0.00    -0.323 N 
HETATM   35  H   UNL     1      -1.283   5.640 -28.945  1.00  0.00     0.169 HD
HETATM   36  O   UNL     1      -2.071   8.163 -30.732  1.00  0.00    -0.268 OA
BRANCH  34  37
HETATM   37  C   UNL     1      -0.531   7.427 -28.259  1.00  0.00     0.035 A 
HETATM   38  C   UNL     1      -1.003   7.824 -27.008  1.00  0.00     0.029 A 
HETATM   39  C   UNL     1      -0.195   8.588 -26.161  1.00  0.00     0.002 A 
HETATM   40  C   UNL     1       1.091   8.954 -26.553  1.00  0.00     0.000 A 
HETATM   41  C   UNL     1       1.570   8.564 -27.799  1.00  0.00     0.002 A 
HETATM   42  C   UNL     1       0.760   7.808 -28.651  1.00  0.00     0.029 A 
ENDBRANCH  34  37
ENDBRANCH   2  33
TORSDOF 9
ENDMDL
MODEL 9
REMARK VINA RESULT:      -8.8      3.362      8.213
REMARK  9 active torsions:
REMARK  status: ('A' for Active; 'I' for Inactive)
REMARK    1  A    between atoms: C_2  and  O_3 
REMARK    2  A    between atoms: O_3  and  C_4 
REMARK    3  A    between atoms: C_7  and  C_8 
REMARK    4  A    between atoms: C_9  and  C_10 
REMARK       I    between atoms: C_10  and  N_11 
REMARK    5  A    between atoms: N_11  and  C_12 
REMARK    6  A    between atoms: C_22  and  S_23 
REMARK    7  A    between atoms: S_23  and  C_24 
REMARK    8  A    between atoms: C_24  and  C_25 
REMARK       I    between atoms: C_25  and  N_26 
REMARK    9  A    between atoms: N_26  and  C_27 
ROOT
HETATM    1  C   UNL     1      -7.250   2.794 -30.966  1.00  0.00     0.104 C 
HETATM    2  C   UNL     1      -7.891   1.726 -31.855  1.00  0.00     0.046 C 
HETATM    3  C   UNL     1      -9.058   1.959 -32.499  1.00  0.00     0.019 C 
HETATM    4  C   UNL     1      -9.827   0.957 -33.322  1.00  0.00     0.069 C 
HETATM    5  N   UNL     1      -9.644   3.202 -32.387  1.00  0.00    -0.353 N 
HETATM    6  C   UNL     1      -9.238   4.209 -31.540  1.00  0.00     0.087 C 
HETATM    7  C   UNL     1      -8.153   4.019 -30.756  1.00  0.00     0.055 C 
HETATM    8  C   UNL     1      -7.689   5.087 -29.779  1.00  0.00     0.019 C 
HETATM    9  N   UNL     1      -7.303   5.973 -28.968  1.00  0.00    -0.096 N 
HETATM   10  H   UNL     1     -10.402   3.453 -33.027  1.00  0.00     0.166 HD
ENDROOT
BRANCH   1  11
HETATM   11  C   UNL     1      -5.913   3.297 -31.537  1.00  0.00    -0.044 A 
HETATM   12  C   UNL     1      -4.696   3.083 -30.864  1.00  0.00     0.011 A 
HETATM   13  C   UNL     1      -3.477   3.389 -31.475  1.00  0.00     0.037 A 
HETATM   14  C   UNL     1      -3.447   3.863 -32.784  1.00  0.00     0.068 A 
HETATM   15  C   UNL     1      -4.648   4.129 -33.441  1.00  0.00     0.037 A 
HETATM   16  C   UNL     1      -5.872   3.854 -32.825  1.00  0.00     0.011 A 
BRANCH  14  17
HETATM   17  O   UNL     1      -2.312   4.100 -33.508  1.00  0.00    -0.352 OA
BRANCH  17  18
HETATM   18  C   UNL     1      -1.455   5.124 -33.001  1.00  0.00     0.171 C 
HETATM   19  C   UNL     1      -1.432   6.268 -34.000  1.00  0.00     0.034 C 
ENDBRANCH  17  18
ENDBRANCH  14  17
ENDBRANCH   1  11
BRANCH   6  20
HETATM   20  S   UNL     1     -10.110   5.731 -31.559  1.00  0.00    -0.102 SA
BRANCH  20  21
HETATM   21  C   UNL     1      -9.293   6.530 -32.983  1.00  0.00     0.184 C 
BRANCH  21  22
HETATM   22  C   UNL     1     -10.219   7.455 -33.780  1.00  0.00     0.231 C 
HETATM   23  N   UNL     1     -10.265   7.102 -35.125  1.00  0.00    -0.326 N 
HETATM   24  H   UNL     1      -9.975   6.154 -35.334  1.00  0.00     0.169 HD
HETATM   25  O   UNL     1     -10.845   8.374 -33.261  1.00  0.00    -0.272 OA
BRANCH  23  26
HETATM   26  C   UNL     1     -10.955   7.757 -36.175  1.00  0.00     0.040 A 
HETATM   27  C   UNL     1     -12.335   7.696 -36.437  1.00  0.00    -0.035 A 
HETATM   28  C   UNL     1     -13.351   7.038 -35.545  1.00  0.00     0.050 C 
HETATM   29  C   UNL     1     -12.843   8.347 -37.584  1.00  0.00     0.009 A 
HETATM   30  C   UNL     1     -12.020   9.103 -38.416  1.00  0.00     0.001 A 
HETATM   31  C   UNL     1     -10.674   9.235 -38.109  1.00  0.00     0.002 A 
HETATM   32  C   UNL     1     -10.154   8.579 -36.991  1.00  0.00     0.030 A 
ENDBRANCH  23  26
ENDBRANCH  21  22
ENDBRANCH  20  21
ENDBRANCH   6  20
BRANCH   2  33
HETATM   33  C   UNL     1      -7.163   0.427 -31.931  1.00  0.00     0.255 C 
HETATM   34  N   UNL     1      -6.791   0.103 -33.221  1.00  0.00    -0.323 N 
HETATM   35  H   UNL     1      -7.008   0.781 -33.939  1.00  0.00     0.169 HD
HETATM   36  O   UNL     1      -6.934  -0.197 -30.903  1.00  0.00    -0.268 OA
BRANCH  34  37
HETATM   37  C   UNL     1      -6.214  -1.098 -33.679  1.00  0.00     0.035 A 
HETATM   38  C   UNL     1      -4.867  -1.424 -33.526  1.00  0.00     0.029 A 
HETATM   39  C   UNL     1      -4.386  -2.656 -33.980  1.00  0.00     0.002 A 
HETATM   40  C   UNL     1      -5.246  -3.571 -34.584  1.00  0.00     0.000 A 
HETATM   41  C   UNL     1      -6.591  -3.252 -34.743  1.00  0.00     0.002 A 
HETATM   42  C   UNL     1      -7.071  -2.019 -34.298  1.00  0.00     0.029 A 
ENDBRANCH  34  37
ENDBRANCH   2  33
TORSDOF 9
ENDMDL
MODEL 10
REMARK VINA RESULT:      -8.8      2.868      8.342
REMARK  9 active torsions:
REMARK  status: ('A' for Active; 'I' for Inactive)
REMARK    1  A    between atoms: C_2  and  O_3 
REMARK    2  A    between atoms: O_3  and  C_4 
REMARK    3  A    between atoms: C_7  and  C_8 
REMARK    4  A    between atoms: C_9  and  C_10 
REMARK       I    between atoms: C_10  and  N_11 
REMARK    5  A    between atoms: N_11  and  C_12 
REMARK    6  A    between atoms: C_22  and  S_23 
REMARK    7  A    between atoms: S_23  and  C_24 
REMARK    8  A    between atoms: C_24  and  C_25 
REMARK       I    between atoms: C_25  and  N_26 
REMARK    9  A    between atoms: N_26  and  C_27 
ROOT
HETATM    1  C   UNL     1      -6.620   2.512 -32.292  1.00  0.00     0.104 C 
HETATM    2  C   UNL     1      -7.615   1.873 -33.262  1.00  0.00     0.046 C 
HETATM    3  C   UNL     1      -8.902   2.288 -33.320  1.00  0.00     0.019 C 
HETATM    4  C   UNL     1      -9.990   1.674 -34.165  1.00  0.00     0.069 C 
HETATM    5  N   UNL     1      -9.299   3.342 -32.525  1.00  0.00    -0.353 N 
HETATM    6  C   UNL     1      -8.544   3.931 -31.535  1.00  0.00     0.087 C 
HETATM    7  C   UNL     1      -7.284   3.493 -31.313  1.00  0.00     0.055 C 
HETATM    8  C   UNL     1      -6.425   4.087 -30.208  1.00  0.00     0.019 C 
HETATM    9  N   UNL     1      -5.713   4.580 -29.291  1.00  0.00    -0.096 N 
HETATM   10  H   UNL     1     -10.198   3.792 -32.711  1.00  0.00     0.166 HD
ENDROOT
BRANCH   1  11
HETATM   11  C   UNL     1      -5.504   3.277 -33.027  1.00  0.00    -0.044 A 
HETATM   12  C   UNL     1      -5.796   4.256 -33.994  1.00  0.00     0.011 A 
HETATM   13  C   UNL     1      -4.784   5.062 -34.523  1.00  0.00     0.037 A 
HETATM   14  C   UNL     1      -3.476   4.941 -34.060  1.00  0.00     0.068 A 
HETATM   15  C   UNL     1      -3.167   3.939 -33.141  1.00  0.00     0.037 A 
HETATM   16  C   UNL     1      -4.168   3.109 -32.630  1.00  0.00     0.011 A 
BRANCH  14  17
HETATM   17  O   UNL     1      -2.433   5.741 -34.435  1.00  0.00    -0.352 OA
BRANCH  17  18
HETATM   18  C   UNL     1      -1.260   5.653 -33.624  1.00  0.00     0.171 C 
HETATM   19  C   UNL     1      -0.999   7.016 -33.010  1.00  0.00     0.034 C 
ENDBRANCH  17  18
ENDBRANCH  14  17
ENDBRANCH   1  11
BRANCH   6  20
HETATM   20  S   UNL     1      -9.227   5.277 -30.642  1.00  0.00    -0.102 SA
BRANCH  20  21
HETATM   21  C   UNL     1      -9.254   6.536 -31.964  1.00  0.00     0.184 C 
BRANCH  21  22
HETATM   22  C   UNL     1     -10.634   6.725 -32.601  1.00  0.00     0.231 C 
HETATM   23  N   UNL     1     -10.574   6.657 -33.989  1.00  0.00    -0.326 N 
HETATM   24  H   UNL     1      -9.756   6.194 -34.365  1.00  0.00     0.169 HD
HETATM   25  O   UNL     1     -11.653   6.893 -31.938  1.00  0.00    -0.272 OA
BRANCH  23  26
HETATM   26  C   UNL     1     -11.628   6.848 -34.918  1.00  0.00     0.040 A 
HETATM   27  C   UNL     1     -12.574   5.890 -35.319  1.00  0.00    -0.035 A 
HETATM   28  C   UNL     1     -12.726   4.524 -34.710  1.00  0.00     0.050 C 
HETATM   29  C   UNL     1     -13.507   6.230 -36.325  1.00  0.00     0.009 A 
HETATM   30  C   UNL     1     -13.553   7.510 -36.872  1.00  0.00     0.001 A 
HETATM   31  C   UNL     1     -12.677   8.481 -36.414  1.00  0.00     0.002 A 
HETATM   32  C   UNL     1     -11.734   8.153 -35.436  1.00  0.00     0.030 A 
ENDBRANCH  23  26
ENDBRANCH  21  22
ENDBRANCH  20  21
ENDBRANCH   6  20
BRANCH   2  33
HETATM   33  C   UNL     1      -7.079   0.761 -34.099  1.00  0.00     0.255 C 
HETATM   34  N   UNL     1      -6.970  -0.424 -33.398  1.00  0.00    -0.323 N 
HETATM   35  H   UNL     1      -7.296  -0.416 -32.441  1.00  0.00     0.169 HD
HETATM   36  O   UNL     1      -6.826   0.963 -35.279  1.00  0.00    -0.268 OA
BRANCH  34  37
HETATM   37  C   UNL     1      -6.384  -1.631 -33.826  1.00  0.00     0.035 A 
HETATM   38  C   UNL     1      -7.093  -2.674 -34.422  1.00  0.00     0.029 A 
HETATM   39  C   UNL     1      -6.424  -3.825 -34.850  1.00  0.00     0.002 A 
HETATM   40  C   UNL     1      -5.044  -3.940 -34.692  1.00  0.00     0.000 A 
HETATM   41  C   UNL     1      -4.330  -2.905 -34.096  1.00  0.00     0.002 A 
HETATM   42  C   UNL     1      -4.998  -1.758 -33.660  1.00  0.00     0.029 A 
ENDBRANCH  34  37
ENDBRANCH   2  33
TORSDOF 9
ENDMDL
