MODEL 1
REMARK VINA RESULT:      -8.8      0.000      0.000
REMARK  6 active torsions:
REMARK  status: ('A' for Active; 'I' for Inactive)
REMARK    1  A    between atoms: O_2  and  C_3 
REMARK    2  A    between atoms: C_6  and  C_7 
REMARK    3  A    between atoms: C_11  and  C_12 
REMARK       I    between atoms: C_12  and  N_13 
REMARK    4  A    between atoms: N_13  and  N_14 
REMARK       I    between atoms: N_14  and  C_15 
REMARK    5  A    between atoms: C_15  and  C_16 
REMARK    6  A    between atoms: C_17  and  C_18 
ROOT
HETATM    1  C   UNL     1      -1.527   4.808 -31.661  1.00  0.00     0.288 C 
HETATM    2  N   UNL     1      -2.545   3.979 -31.247  1.00  0.00    -0.262 N 
HETATM    3  O   UNL     1      -1.233   4.953 -32.844  1.00  0.00    -0.264 OA
HETATM    4  H   UNL     1      -2.844   3.895 -30.278  1.00  0.00     0.190 HD
ENDROOT
BRANCH   1   5
HETATM    5  C   UNL     1      -0.829   5.474 -30.595  1.00  0.00     0.121 A 
HETATM    6  N   UNL     1       0.017   4.819 -29.745  1.00  0.00    -0.272 N 
HETATM    7  N   UNL     1       0.558   5.601 -28.797  1.00  0.00    -0.174 NA
HETATM    8  H   UNL     1       0.261   3.833 -29.766  1.00  0.00     0.189 HD
HETATM    9  C   UNL     1       0.021   6.814 -29.007  1.00  0.00     0.089 A 
HETATM   10  C   UNL     1      -0.831   6.779 -30.146  1.00  0.00     0.071 A 
BRANCH   9  11
HETATM   11  C   UNL     1       0.309   7.959 -28.138  1.00  0.00    -0.005 A 
HETATM   12  C   UNL     1      -0.601   9.019 -28.022  1.00  0.00     0.016 A 
HETATM   13  C   UNL     1      -0.329  10.116 -27.192  1.00  0.00     0.037 A 
HETATM   14  C   UNL     1       0.862  10.171 -26.471  1.00  0.00     0.068 A 
HETATM   15  C   UNL     1       1.776   9.124 -26.587  1.00  0.00     0.037 A 
HETATM   16  C   UNL     1       1.505   8.028 -27.412  1.00  0.00     0.016 A 
BRANCH  14  17
HETATM   17  O   UNL     1       1.254  11.177 -25.632  1.00  0.00    -0.356 OA
HETATM   18  C   UNL     1       2.182  10.836 -24.610  1.00  0.00     0.210 C 
ENDBRANCH  14  17
ENDBRANCH   9  11
ENDBRANCH   1   5
BRANCH   2  19
HETATM   19  N   UNL     1      -3.248   3.198 -32.171  1.00  0.00    -0.263 N 
HETATM   20  C   UNL     1      -4.403   2.600 -31.712  1.00  0.00     0.271 C 
HETATM   21  O   UNL     1      -4.840   2.811 -30.582  1.00  0.00    -0.266 OA
HETATM   22  H   UNL     1      -2.769   2.986 -33.047  1.00  0.00     0.190 HD
BRANCH  20  23
HETATM   23  C   UNL     1      -5.076   1.605 -32.589  1.00  0.00     0.048 A 
HETATM   24  C   UNL     1      -4.856   0.217 -32.549  1.00  0.00     0.063 A 
HETATM   25  C   UNL     1      -5.574  -0.604 -33.443  1.00  0.00     0.017 A 
HETATM   26  C   UNL     1      -6.465  -0.060 -34.367  1.00  0.00     0.001 A 
HETATM   27  C   UNL     1      -6.657   1.315 -34.421  1.00  0.00     0.001 A 
HETATM   28  C   UNL     1      -5.965   2.143 -33.539  1.00  0.00     0.018 A 
BRANCH  24  29
HETATM   29  C   UNL     1      -3.868  -0.412 -31.606  1.00  0.00     0.418 C 
HETATM   30  F   UNL     1      -4.142  -0.162 -30.299  1.00  0.00    -0.166 F 
HETATM   31  F   UNL     1      -3.837  -1.768 -31.743  1.00  0.00    -0.166 F 
HETATM   32  F   UNL     1      -2.586   0.005 -31.802  1.00  0.00    -0.166 F 
ENDBRANCH  24  29
ENDBRANCH  20  23
ENDBRANCH   2  19
TORSDOF 6
ENDMDL
MODEL 2
REMARK VINA RESULT:      -8.7      1.317      1.532
REMARK  6 active torsions:
REMARK  status: ('A' for Active; 'I' for Inactive)
REMARK    1  A    between atoms: O_2  and  C_3 
REMARK    2  A    between atoms: C_6  and  C_7 
REMARK    3  A    between atoms: C_11  and  C_12 
REMARK       I    between atoms: C_12  and  N_13 
REMARK    4  A    between atoms: N_13  and  N_14 
REMARK       I    between atoms: N_14  and  C_15 
REMARK    5  A    between atoms: C_15  and  C_16 
REMARK    6  A    between atoms: C_17  and  C_18 
ROOT
HETATM    1  C   UNL     1      -1.958   4.651 -32.601  1.00  0.00     0.288 C 
HETATM    2  N   UNL     1      -2.637   3.624 -31.988  1.00  0.00    -0.262 N 
HETATM    3  O   UNL     1      -2.006   4.845 -33.813  1.00  0.00    -0.264 OA
HETATM    4  H   UNL     1      -2.661   3.487 -30.980  1.00  0.00     0.190 HD
ENDROOT
BRANCH   1   5
HETATM    5  C   UNL     1      -1.178   5.467 -31.711  1.00  0.00     0.121 A 
HETATM    6  N   UNL     1      -0.121   6.221 -32.137  1.00  0.00    -0.272 N 
HETATM    7  N   UNL     1       0.503   6.896 -31.159  1.00  0.00    -0.174 NA
HETATM    8  H   UNL     1       0.220   6.311 -33.090  1.00  0.00     0.189 HD
HETATM    9  C   UNL     1      -0.145   6.547 -30.036  1.00  0.00     0.089 A 
HETATM   10  C   UNL     1      -1.225   5.675 -30.347  1.00  0.00     0.071 A 
BRANCH   9  11
HETATM   11  C   UNL     1       0.267   7.027 -28.713  1.00  0.00    -0.005 A 
HETATM   12  C   UNL     1      -0.178   6.387 -27.547  1.00  0.00     0.016 A 
HETATM   13  C   UNL     1       0.213   6.843 -26.280  1.00  0.00     0.037 A 
HETATM   14  C   UNL     1       1.051   7.950 -26.161  1.00  0.00     0.068 A 
HETATM   15  C   UNL     1       1.491   8.596 -27.316  1.00  0.00     0.037 A 
HETATM   16  C   UNL     1       1.105   8.141 -28.580  1.00  0.00     0.016 A 
BRANCH  14  17
HETATM   17  O   UNL     1       1.505   8.499 -24.994  1.00  0.00    -0.356 OA
HETATM   18  C   UNL     1       2.847   8.969 -24.985  1.00  0.00     0.210 C 
ENDBRANCH  14  17
ENDBRANCH   9  11
ENDBRANCH   1   5
BRANCH   2  19
HETATM   19  N   UNL     1      -3.362   2.697 -32.745  1.00  0.00    -0.263 N 
HETATM   20  C   UNL     1      -4.445   2.112 -32.122  1.00  0.00     0.271 C 
HETATM   21  O   UNL     1      -4.807   2.448 -30.996  1.00  0.00    -0.266 OA
HETATM   22  H   UNL     1      -2.939   2.394 -33.624  1.00  0.00     0.190 HD
BRANCH  20  23
HETATM   23  C   UNL     1      -5.124   0.980 -32.808  1.00  0.00     0.048 A 
HETATM   24  C   UNL     1      -4.778  -0.375 -32.662  1.00  0.00     0.063 A 
HETATM   25  C   UNL     1      -5.519  -1.339 -33.376  1.00  0.00     0.017 A 
HETATM   26  C   UNL     1      -6.557  -0.966 -34.231  1.00  0.00     0.001 A 
HETATM   27  C   UNL     1      -6.875   0.377 -34.392  1.00  0.00     0.001 A 
HETATM   28  C   UNL     1      -6.161   1.344 -33.687  1.00  0.00     0.018 A 
BRANCH  24  29
HETATM   29  C   UNL     1      -3.636  -0.823 -31.793  1.00  0.00     0.418 C 
HETATM   30  F   UNL     1      -3.726  -0.372 -30.515  1.00  0.00    -0.166 F 
HETATM   31  F   UNL     1      -3.563  -2.182 -31.720  1.00  0.00    -0.166 F 
HETATM   32  F   UNL     1      -2.416  -0.416 -32.245  1.00  0.00    -0.166 F 
ENDBRANCH  24  29
ENDBRANCH  20  23
ENDBRANCH   2  19
TORSDOF 6
ENDMDL
MODEL 3
REMARK VINA RESULT:      -8.6      9.004     10.674
REMARK  6 active torsions:
REMARK  status: ('A' for Active; 'I' for Inactive)
REMARK    1  A    between atoms: O_2  and  C_3 
REMARK    2  A    between atoms: C_6  and  C_7 
REMARK    3  A    between atoms: C_11  and  C_12 
REMARK       I    between atoms: C_12  and  N_13 
REMARK    4  A    between atoms: N_13  and  N_14 
REMARK       I    between atoms: N_14  and  C_15 
REMARK    5  A    between atoms: C_15  and  C_16 
REMARK    6  A    between atoms: C_17  and  C_18 
ROOT
HETATM    1  C   UNL     1      -9.845   0.396 -33.206  1.00  0.00     0.288 C 
HETATM    2  N   UNL     1      -8.510   0.408 -33.539  1.00  0.00    -0.262 N 
HETATM    3  O   UNL     1     -10.397  -0.589 -32.721  1.00  0.00    -0.264 OA
HETATM    4  H   UNL     1      -8.023   1.234 -33.881  1.00  0.00     0.190 HD
ENDROOT
BRANCH   1   5
HETATM    5  C   UNL     1     -10.542   1.622 -33.486  1.00  0.00     0.121 A 
HETATM    6  N   UNL     1     -11.837   1.838 -33.106  1.00  0.00    -0.272 N 
HETATM    7  N   UNL     1     -12.328   3.030 -33.478  1.00  0.00    -0.174 NA
HETATM    8  H   UNL     1     -12.435   1.200 -32.588  1.00  0.00     0.189 HD
HETATM    9  C   UNL     1     -11.330   3.612 -34.162  1.00  0.00     0.089 A 
HETATM   10  C   UNL     1     -10.183   2.770 -34.163  1.00  0.00     0.071 A 
BRANCH   9  11
HETATM   11  C   UNL     1     -11.478   4.924 -34.800  1.00  0.00    -0.005 A 
HETATM   12  C   UNL     1     -10.354   5.701 -35.112  1.00  0.00     0.016 A 
HETATM   13  C   UNL     1     -10.492   6.957 -35.721  1.00  0.00     0.037 A 
HETATM   14  C   UNL     1     -11.758   7.455 -36.023  1.00  0.00     0.068 A 
HETATM   15  C   UNL     1     -12.881   6.690 -35.709  1.00  0.00     0.037 A 
HETATM   16  C   UNL     1     -12.746   5.437 -35.103  1.00  0.00     0.016 A 
BRANCH  14  17
HETATM   17  O   UNL     1     -12.035   8.658 -36.611  1.00  0.00    -0.356 OA
HETATM   18  C   UNL     1     -11.362   8.948 -37.829  1.00  0.00     0.210 C 
ENDBRANCH  14  17
ENDBRANCH   9  11
ENDBRANCH   1   5
BRANCH   2  19
HETATM   19  N   UNL     1      -7.731  -0.747 -33.405  1.00  0.00    -0.263 N 
HETATM   20  C   UNL     1      -6.819  -0.989 -34.411  1.00  0.00     0.271 C 
HETATM   21  O   UNL     1      -6.636  -0.192 -35.329  1.00  0.00    -0.266 OA
HETATM   22  H   UNL     1      -8.015  -1.407 -32.679  1.00  0.00     0.190 HD
BRANCH  20  23
HETATM   23  C   UNL     1      -6.113  -2.298 -34.418  1.00  0.00     0.048 A 
HETATM   24  C   UNL     1      -4.883  -2.553 -33.785  1.00  0.00     0.063 A 
HETATM   25  C   UNL     1      -4.337  -3.850 -33.875  1.00  0.00     0.017 A 
HETATM   26  C   UNL     1      -4.979  -4.857 -34.596  1.00  0.00     0.001 A 
HETATM   27  C   UNL     1      -6.179  -4.589 -35.244  1.00  0.00     0.001 A 
HETATM   28  C   UNL     1      -6.741  -3.317 -35.157  1.00  0.00     0.018 A 
BRANCH  24  29
HETATM   29  C   UNL     1      -4.128  -1.488 -33.039  1.00  0.00     0.418 C 
HETATM   30  F   UNL     1      -3.738  -0.456 -33.830  1.00  0.00    -0.166 F 
HETATM   31  F   UNL     1      -4.879  -0.948 -32.038  1.00  0.00    -0.166 F 
HETATM   32  F   UNL     1      -2.993  -1.945 -32.439  1.00  0.00    -0.166 F 
ENDBRANCH  24  29
ENDBRANCH  20  23
ENDBRANCH   2  19
TORSDOF 6
ENDMDL
MODEL 4
REMARK VINA RESULT:      -8.6      2.246      2.933
REMARK  6 active torsions:
REMARK  status: ('A' for Active; 'I' for Inactive)
REMARK    1  A    between atoms: O_2  and  C_3 
REMARK    2  A    between atoms: C_6  and  C_7 
REMARK    3  A    between atoms: C_11  and  C_12 
REMARK       I    between atoms: C_12  and  N_13 
REMARK    4  A    between atoms: N_13  and  N_14 
REMARK       I    between atoms: N_14  and  C_15 
REMARK    5  A    between atoms: C_15  and  C_16 
REMARK    6  A    between atoms: C_17  and  C_18 
ROOT
HETATM    1  C   UNL     1      -2.481   4.079 -32.273  1.00  0.00     0.288 C 
HETATM    2  N   UNL     1      -3.293   3.053 -31.848  1.00  0.00    -0.262 N 
HETATM    3  O   UNL     1      -2.095   4.180 -33.435  1.00  0.00    -0.264 OA
HETATM    4  H   UNL     1      -3.673   2.989 -30.906  1.00  0.00     0.190 HD
ENDROOT
BRANCH   1   5
HETATM    5  C   UNL     1      -2.109   5.012 -31.244  1.00  0.00     0.121 A 
HETATM    6  N   UNL     1      -2.887   6.082 -30.903  1.00  0.00    -0.272 N 
HETATM    7  N   UNL     1      -2.366   6.856 -29.939  1.00  0.00    -0.174 NA
HETATM    8  H   UNL     1      -3.789   6.332 -31.299  1.00  0.00     0.189 HD
HETATM    9  C   UNL     1      -1.178   6.297 -29.657  1.00  0.00     0.089 A 
HETATM   10  C   UNL     1      -0.996   5.120 -30.435  1.00  0.00     0.071 A 
BRANCH   9  11
HETATM   11  C   UNL     1      -0.250   6.879 -28.682  1.00  0.00    -0.005 A 
HETATM   12  C   UNL     1      -0.216   6.416 -27.359  1.00  0.00     0.016 A 
HETATM   13  C   UNL     1       0.670   6.970 -26.423  1.00  0.00     0.037 A 
HETATM   14  C   UNL     1       1.531   7.999 -26.797  1.00  0.00     0.068 A 
HETATM   15  C   UNL     1       1.498   8.470 -28.110  1.00  0.00     0.037 A 
HETATM   16  C   UNL     1       0.617   7.917 -29.045  1.00  0.00     0.016 A 
BRANCH  14  17
HETATM   17  O   UNL     1       2.438   8.628 -25.990  1.00  0.00    -0.356 OA
HETATM   18  C   UNL     1       1.970   9.079 -24.726  1.00  0.00     0.210 C 
ENDBRANCH  14  17
ENDBRANCH   9  11
ENDBRANCH   1   5
BRANCH   2  19
HETATM   19  N   UNL     1      -3.657   2.023 -32.723  1.00  0.00    -0.263 N 
HETATM   20  C   UNL     1      -4.691   1.209 -32.312  1.00  0.00     0.271 C 
HETATM   21  O   UNL     1      -5.318   1.427 -31.276  1.00  0.00    -0.266 OA
HETATM   22  H   UNL     1      -3.024   1.842 -33.504  1.00  0.00     0.190 HD
BRANCH  20  23
HETATM   23  C   UNL     1      -4.982  -0.014 -33.107  1.00  0.00     0.048 A 
HETATM   24  C   UNL     1      -6.024  -0.137 -34.043  1.00  0.00     0.063 A 
HETATM   25  C   UNL     1      -6.173  -1.361 -34.726  1.00  0.00     0.017 A 
HETATM   26  C   UNL     1      -5.328  -2.441 -34.469  1.00  0.00     0.001 A 
HETATM   27  C   UNL     1      -4.318  -2.321 -33.522  1.00  0.00     0.001 A 
HETATM   28  C   UNL     1      -4.148  -1.116 -32.844  1.00  0.00     0.018 A 
BRANCH  24  29
HETATM   29  C   UNL     1      -6.992   0.980 -34.318  1.00  0.00     0.418 C 
HETATM   30  F   UNL     1      -7.763   1.297 -33.246  1.00  0.00    -0.166 F 
HETATM   31  F   UNL     1      -6.348   2.124 -34.683  1.00  0.00    -0.166 F 
HETATM   32  F   UNL     1      -7.861   0.710 -35.333  1.00  0.00    -0.166 F 
ENDBRANCH  24  29
ENDBRANCH  20  23
ENDBRANCH   2  19
TORSDOF 6
ENDMDL
MODEL 5
REMARK VINA RESULT:      -8.5      3.774     10.814
REMARK  6 active torsions:
REMARK  status: ('A' for Active; 'I' for Inactive)
REMARK    1  A    between atoms: O_2  and  C_3 
REMARK    2  A    between atoms: C_6  and  C_7 
REMARK    3  A    between atoms: C_11  and  C_12 
REMARK       I    between atoms: C_12  and  N_13 
REMARK    4  A    between atoms: N_13  and  N_14 
REMARK       I    between atoms: N_14  and  C_15 
REMARK    5  A    between atoms: C_15  and  C_16 
REMARK    6  A    between atoms: C_17  and  C_18 
ROOT
HETATM    1  C   UNL     1      -4.825   3.865 -31.573  1.00  0.00     0.288 C 
HETATM    2  N   UNL     1      -3.458   3.973 -31.458  1.00  0.00    -0.262 N 
HETATM    3  O   UNL     1      -5.599   4.656 -31.040  1.00  0.00    -0.264 OA
HETATM    4  H   UNL     1      -2.802   3.366 -31.945  1.00  0.00     0.190 HD
ENDROOT
BRANCH   1   5
HETATM    5  C   UNL     1      -5.272   2.743 -32.354  1.00  0.00     0.121 A 
HETATM    6  N   UNL     1      -6.388   2.791 -33.141  1.00  0.00    -0.272 N 
HETATM    7  N   UNL     1      -6.663   1.640 -33.776  1.00  0.00    -0.174 NA
HETATM    8  H   UNL     1      -7.003   3.588 -33.282  1.00  0.00     0.189 HD
HETATM    9  C   UNL     1      -5.711   0.787 -33.363  1.00  0.00     0.089 A 
HETATM   10  C   UNL     1      -4.802   1.453 -32.494  1.00  0.00     0.071 A 
BRANCH   9  11
HETATM   11  C   UNL     1      -5.683  -0.617 -33.784  1.00  0.00    -0.005 A 
HETATM   12  C   UNL     1      -6.855  -1.267 -34.193  1.00  0.00     0.016 A 
HETATM   13  C   UNL     1      -6.833  -2.610 -34.595  1.00  0.00     0.037 A 
HETATM   14  C   UNL     1      -5.637  -3.325 -34.588  1.00  0.00     0.068 A 
HETATM   15  C   UNL     1      -4.467  -2.687 -34.175  1.00  0.00     0.037 A 
HETATM   16  C   UNL     1      -4.487  -1.347 -33.776  1.00  0.00     0.016 A 
BRANCH  14  17
HETATM   17  O   UNL     1      -5.473  -4.633 -34.951  1.00  0.00    -0.356 OA
HETATM   18  C   UNL     1      -4.512  -5.386 -34.223  1.00  0.00     0.210 C 
ENDBRANCH  14  17
ENDBRANCH   9  11
ENDBRANCH   1   5
BRANCH   2  19
HETATM   19  N   UNL     1      -2.887   4.964 -30.652  1.00  0.00    -0.263 N 
HETATM   20  C   UNL     1      -1.596   5.336 -30.962  1.00  0.00     0.271 C 
HETATM   21  O   UNL     1      -1.009   4.887 -31.945  1.00  0.00    -0.266 OA
HETATM   22  H   UNL     1      -3.394   5.207 -29.799  1.00  0.00     0.190 HD
BRANCH  20  23
HETATM   23  C   UNL     1      -0.878   6.234 -30.019  1.00  0.00     0.048 A 
HETATM   24  C   UNL     1      -1.016   7.633 -29.976  1.00  0.00     0.063 A 
HETATM   25  C   UNL     1      -0.270   8.353 -29.020  1.00  0.00     0.017 A 
HETATM   26  C   UNL     1       0.607   7.706 -28.149  1.00  0.00     0.001 A 
HETATM   27  C   UNL     1       0.759   6.326 -28.216  1.00  0.00     0.001 A 
HETATM   28  C   UNL     1       0.024   5.596 -29.147  1.00  0.00     0.018 A 
BRANCH  24  29
HETATM   29  C   UNL     1      -1.909   8.381 -30.926  1.00  0.00     0.418 C 
HETATM   30  F   UNL     1      -3.214   8.016 -30.835  1.00  0.00    -0.166 F 
HETATM   31  F   UNL     1      -1.866   9.725 -30.703  1.00  0.00    -0.166 F 
HETATM   32  F   UNL     1      -1.569   8.217 -32.236  1.00  0.00    -0.166 F 
ENDBRANCH  24  29
ENDBRANCH  20  23
ENDBRANCH   2  19
TORSDOF 6
ENDMDL
MODEL 6
REMARK VINA RESULT:      -8.3      3.220     10.605
REMARK  6 active torsions:
REMARK  status: ('A' for Active; 'I' for Inactive)
REMARK    1  A    between atoms: O_2  and  C_3 
REMARK    2  A    between atoms: C_6  and  C_7 
REMARK    3  A    between atoms: C_11  and  C_12 
REMARK       I    between atoms: C_12  and  N_13 
REMARK    4  A    between atoms: N_13  and  N_14 
REMARK       I    between atoms: N_14  and  C_15 
REMARK    5  A    between atoms: C_15  and  C_16 
REMARK    6  A    between atoms: C_17  and  C_18 
ROOT
HETATM    1  C   UNL     1      -5.164   4.138 -30.697  1.00  0.00     0.288 C 
HETATM    2  N   UNL     1      -3.898   4.614 -30.950  1.00  0.00    -0.262 N 
HETATM    3  O   UNL     1      -5.863   4.570 -29.785  1.00  0.00    -0.264 OA
HETATM    4  H   UNL     1      -3.330   4.313 -31.740  1.00  0.00     0.190 HD
ENDROOT
BRANCH   1   5
HETATM    5  C   UNL     1      -5.592   3.084 -31.577  1.00  0.00     0.121 A 
HETATM    6  N   UNL     1      -6.827   3.068 -32.162  1.00  0.00    -0.272 N 
HETATM    7  N   UNL     1      -7.058   1.992 -32.930  1.00  0.00    -0.174 NA
HETATM    8  H   UNL     1      -7.556   3.771 -32.069  1.00  0.00     0.189 HD
HETATM    9  C   UNL     1      -5.945   1.249 -32.821  1.00  0.00     0.089 A 
HETATM   10  C   UNL     1      -4.991   1.917 -32.004  1.00  0.00     0.071 A 
BRANCH   9  11
HETATM   11  C   UNL     1      -5.809  -0.058 -33.470  1.00  0.00    -0.005 A 
HETATM   12  C   UNL     1      -4.616  -0.788 -33.371  1.00  0.00     0.016 A 
HETATM   13  C   UNL     1      -4.482  -2.039 -33.991  1.00  0.00     0.037 A 
HETATM   14  C   UNL     1      -5.539  -2.575 -34.725  1.00  0.00     0.068 A 
HETATM   15  C   UNL     1      -6.726  -1.851 -34.834  1.00  0.00     0.037 A 
HETATM   16  C   UNL     1      -6.863  -0.605 -34.214  1.00  0.00     0.016 A 
BRANCH  14  17
HETATM   17  O   UNL     1      -5.543  -3.776 -35.378  1.00  0.00    -0.356 OA
HETATM   18  C   UNL     1      -6.711  -4.574 -35.247  1.00  0.00     0.210 C 
ENDBRANCH  14  17
ENDBRANCH   9  11
ENDBRANCH   1   5
BRANCH   2  19
HETATM   19  N   UNL     1      -3.318   5.576 -30.115  1.00  0.00    -0.263 N 
HETATM   20  C   UNL     1      -2.353   6.379 -30.686  1.00  0.00     0.271 C 
HETATM   21  O   UNL     1      -2.079   6.316 -31.883  1.00  0.00    -0.266 OA
HETATM   22  H   UNL     1      -3.519   5.495 -29.117  1.00  0.00     0.190 HD
BRANCH  20  23
HETATM   23  C   UNL     1      -1.570   7.277 -29.796  1.00  0.00     0.048 A 
HETATM   24  C   UNL     1      -0.266   7.017 -29.335  1.00  0.00     0.063 A 
HETATM   25  C   UNL     1       0.353   7.967 -28.498  1.00  0.00     0.017 A 
HETATM   26  C   UNL     1      -0.312   9.130 -28.108  1.00  0.00     0.001 A 
HETATM   27  C   UNL     1      -1.610   9.367 -28.544  1.00  0.00     0.001 A 
HETATM   28  C   UNL     1      -2.236   8.445 -29.380  1.00  0.00     0.018 A 
BRANCH  24  29
HETATM   29  C   UNL     1       0.472   5.755 -29.686  1.00  0.00     0.418 C 
HETATM   30  F   UNL     1       1.188   5.856 -30.836  1.00  0.00    -0.166 F 
HETATM   31  F   UNL     1       1.355   5.402 -28.710  1.00  0.00    -0.166 F 
HETATM   32  F   UNL     1      -0.342   4.675 -29.850  1.00  0.00    -0.166 F 
ENDBRANCH  24  29
ENDBRANCH  20  23
ENDBRANCH   2  19
TORSDOF 6
ENDMDL
MODEL 7
REMARK VINA RESULT:      -8.1      6.378     12.688
REMARK  6 active torsions:
REMARK  status: ('A' for Active; 'I' for Inactive)
REMARK    1  A    between atoms: O_2  and  C_3 
REMARK    2  A    between atoms: C_6  and  C_7 
REMARK    3  A    between atoms: C_11  and  C_12 
REMARK       I    between atoms: C_12  and  N_13 
REMARK    4  A    between atoms: N_13  and  N_14 
REMARK       I    between atoms: N_14  and  C_15 
REMARK    5  A    between atoms: C_15  and  C_16 
REMARK    6  A    between atoms: C_17  and  C_18 
ROOT
HETATM    1  C   UNL     1       2.191   8.987 -24.319  1.00  0.00     0.288 C 
HETATM    2  N   UNL     1       3.223   8.145 -23.975  1.00  0.00    -0.262 N 
HETATM    3  O   UNL     1       1.782   9.872 -23.571  1.00  0.00    -0.264 OA
HETATM    4  H   UNL     1       3.617   7.450 -24.606  1.00  0.00     0.190 HD
ENDROOT
BRANCH   1   5
HETATM    5  C   UNL     1       1.621   8.737 -25.615  1.00  0.00     0.121 A 
HETATM    6  N   UNL     1       0.840   9.649 -26.266  1.00  0.00    -0.272 N 
HETATM    7  N   UNL     1       0.377   9.229 -27.454  1.00  0.00    -0.174 NA
HETATM    8  H   UNL     1       0.588  10.579 -25.942  1.00  0.00     0.189 HD
HETATM    9  C   UNL     1       0.841   7.975 -27.577  1.00  0.00     0.089 A 
HETATM   10  C   UNL     1       1.652   7.642 -26.456  1.00  0.00     0.071 A 
BRANCH   9  11
HETATM   11  C   UNL     1       0.510   7.127 -28.726  1.00  0.00    -0.005 A 
HETATM   12  C   UNL     1       0.712   5.741 -28.676  1.00  0.00     0.016 A 
HETATM   13  C   UNL     1       0.397   4.925 -29.773  1.00  0.00     0.037 A 
HETATM   14  C   UNL     1      -0.122   5.487 -30.939  1.00  0.00     0.068 A 
HETATM   15  C   UNL     1      -0.320   6.867 -30.997  1.00  0.00     0.037 A 
HETATM   16  C   UNL     1      -0.008   7.681 -29.904  1.00  0.00     0.016 A 
BRANCH  14  17
HETATM   17  O   UNL     1      -0.469   4.814 -32.076  1.00  0.00    -0.356 OA
HETATM   18  C   UNL     1      -1.841   4.844 -32.447  1.00  0.00     0.210 C 
ENDBRANCH  14  17
ENDBRANCH   9  11
ENDBRANCH   1   5
BRANCH   2  19
HETATM   19  N   UNL     1       3.809   8.216 -22.707  1.00  0.00    -0.263 N 
HETATM   20  C   UNL     1       5.082   8.743 -22.650  1.00  0.00     0.271 C 
HETATM   21  O   UNL     1       5.639   9.206 -23.643  1.00  0.00    -0.266 OA
HETATM   22  H   UNL     1       3.331   7.717 -21.955  1.00  0.00     0.190 HD
BRANCH  20  23
HETATM   23  C   UNL     1       5.822   8.656 -21.362  1.00  0.00     0.048 A 
HETATM   24  C   UNL     1       6.682   7.605 -20.997  1.00  0.00     0.063 A 
HETATM   25  C   UNL     1       7.320   7.665 -19.741  1.00  0.00     0.017 A 
HETATM   26  C   UNL     1       7.090   8.723 -18.862  1.00  0.00     0.001 A 
HETATM   27  C   UNL     1       6.217   9.744 -19.218  1.00  0.00     0.001 A 
HETATM   28  C   UNL     1       5.585   9.709 -20.459  1.00  0.00     0.018 A 
BRANCH  24  29
HETATM   29  C   UNL     1       6.923   6.418 -21.888  1.00  0.00     0.418 C 
HETATM   30  F   UNL     1       7.743   5.489 -21.331  1.00  0.00    -0.166 F 
HETATM   31  F   UNL     1       5.761   5.777 -22.194  1.00  0.00    -0.166 F 
HETATM   32  F   UNL     1       7.488   6.742 -23.085  1.00  0.00    -0.166 F 
ENDBRANCH  24  29
ENDBRANCH  20  23
ENDBRANCH   2  19
TORSDOF 6
ENDMDL
MODEL 8
REMARK VINA RESULT:      -8.0      2.753      3.775
REMARK  6 active torsions:
REMARK  status: ('A' for Active; 'I' for Inactive)
REMARK    1  A    between atoms: O_2  and  C_3 
REMARK    2  A    between atoms: C_6  and  C_7 
REMARK    3  A    between atoms: C_11  and  C_12 
REMARK       I    between atoms: C_12  and  N_13 
REMARK    4  A    between atoms: N_13  and  N_14 
REMARK       I    between atoms: N_14  and  C_15 
REMARK    5  A    between atoms: C_15  and  C_16 
REMARK    6  A    between atoms: C_17  and  C_18 
ROOT
HETATM    1  C   UNL     1      -4.699   4.219 -32.986  1.00  0.00     0.288 C 
HETATM    2  N   UNL     1      -4.780   2.976 -32.401  1.00  0.00    -0.262 N 
HETATM    3  O   UNL     1      -5.159   4.458 -34.100  1.00  0.00    -0.264 OA
HETATM    4  H   UNL     1      -4.462   2.777 -31.455  1.00  0.00     0.190 HD
ENDROOT
BRANCH   1   5
HETATM    5  C   UNL     1      -4.018   5.208 -32.195  1.00  0.00     0.121 A 
HETATM    6  N   UNL     1      -4.462   6.496 -32.082  1.00  0.00    -0.272 N 
HETATM    7  N   UNL     1      -3.683   7.281 -31.322  1.00  0.00    -0.174 NA
HETATM    8  H   UNL     1      -5.295   6.893 -32.507  1.00  0.00     0.189 HD
HETATM    9  C   UNL     1      -2.664   6.491 -30.946  1.00  0.00     0.089 A 
HETATM   10  C   UNL     1      -2.856   5.175 -31.450  1.00  0.00     0.071 A 
BRANCH   9  11
HETATM   11  C   UNL     1      -1.544   6.988 -30.141  1.00  0.00    -0.005 A 
HETATM   12  C   UNL     1      -0.220   6.809 -30.565  1.00  0.00     0.016 A 
HETATM   13  C   UNL     1       0.854   7.282 -29.798  1.00  0.00     0.037 A 
HETATM   14  C   UNL     1       0.619   7.938 -28.591  1.00  0.00     0.068 A 
HETATM   15  C   UNL     1      -0.696   8.113 -28.159  1.00  0.00     0.037 A 
HETATM   16  C   UNL     1      -1.768   7.645 -28.924  1.00  0.00     0.016 A 
BRANCH  14  17
HETATM   17  O   UNL     1       1.567   8.445 -27.747  1.00  0.00    -0.356 OA
HETATM   18  C   UNL     1       1.655   7.860 -26.454  1.00  0.00     0.210 C 
ENDBRANCH  14  17
ENDBRANCH   9  11
ENDBRANCH   1   5
BRANCH   2  19
HETATM   19  N   UNL     1      -5.335   1.896 -33.097  1.00  0.00    -0.263 N 
HETATM   20  C   UNL     1      -5.304   0.675 -32.457  1.00  0.00     0.271 C 
HETATM   21  O   UNL     1      -4.892   0.556 -31.304  1.00  0.00    -0.266 OA
HETATM   22  H   UNL     1      -5.556   2.053 -34.082  1.00  0.00     0.190 HD
BRANCH  20  23
HETATM   23  C   UNL     1      -5.696  -0.533 -33.229  1.00  0.00     0.048 A 
HETATM   24  C   UNL     1      -7.020  -0.905 -33.527  1.00  0.00     0.063 A 
HETATM   25  C   UNL     1      -7.236  -2.080 -34.275  1.00  0.00     0.017 A 
HETATM   26  C   UNL     1      -6.171  -2.878 -34.693  1.00  0.00     0.001 A 
HETATM   27  C   UNL     1      -4.867  -2.520 -34.371  1.00  0.00     0.001 A 
HETATM   28  C   UNL     1      -4.632  -1.357 -33.641  1.00  0.00     0.018 A 
BRANCH  24  29
HETATM   29  C   UNL     1      -8.203  -0.106 -33.055  1.00  0.00     0.418 C 
HETATM   30  F   UNL     1      -8.116   0.261 -31.750  1.00  0.00    -0.166 F 
HETATM   31  F   UNL     1      -8.349   1.044 -33.772  1.00  0.00    -0.166 F 
HETATM   32  F   UNL     1      -9.388  -0.766 -33.176  1.00  0.00    -0.166 F 
ENDBRANCH  24  29
ENDBRANCH  20  23
ENDBRANCH   2  19
TORSDOF 6
ENDMDL
MODEL 9
REMARK VINA RESULT:      -8.0      1.871      2.259
REMARK  6 active torsions:
REMARK  status: ('A' for Active; 'I' for Inactive)
REMARK    1  A    between atoms: O_2  and  C_3 
REMARK    2  A    between atoms: C_6  and  C_7 
REMARK    3  A    between atoms: C_11  and  C_12 
REMARK       I    between atoms: C_12  and  N_13 
REMARK    4  A    between atoms: N_13  and  N_14 
REMARK       I    between atoms: N_14  and  C_15 
REMARK    5  A    between atoms: C_15  and  C_16 
REMARK    6  A    between atoms: C_17  and  C_18 
ROOT
HETATM    1  C   UNL     1      -2.706   4.724 -32.707  1.00  0.00     0.288 C 
HETATM    2  N   UNL     1      -3.812   4.107 -32.168  1.00  0.00    -0.262 N 
HETATM    3  O   UNL     1      -2.168   4.334 -33.740  1.00  0.00    -0.264 OA
HETATM    4  H   UNL     1      -4.308   4.454 -31.350  1.00  0.00     0.190 HD
ENDROOT
BRANCH   1   5
HETATM    5  C   UNL     1      -2.225   5.850 -31.953  1.00  0.00     0.121 A 
HETATM    6  N   UNL     1      -2.221   7.123 -32.451  1.00  0.00    -0.272 N 
HETATM    7  N   UNL     1      -1.711   8.039 -31.613  1.00  0.00    -0.174 NA
HETATM    8  H   UNL     1      -2.556   7.423 -33.362  1.00  0.00     0.189 HD
HETATM    9  C   UNL     1      -1.330   7.339 -30.533  1.00  0.00     0.089 A 
HETATM   10  C   UNL     1      -1.664   5.967 -30.697  1.00  0.00     0.071 A 
BRANCH   9  11
HETATM   11  C   UNL     1      -0.660   7.968 -29.389  1.00  0.00    -0.005 A 
HETATM   12  C   UNL     1      -1.309   8.950 -28.629  1.00  0.00     0.016 A 
HETATM   13  C   UNL     1      -0.672   9.554 -27.535  1.00  0.00     0.037 A 
HETATM   14  C   UNL     1       0.627   9.186 -27.189  1.00  0.00     0.068 A 
HETATM   15  C   UNL     1       1.281   8.214 -27.946  1.00  0.00     0.037 A 
HETATM   16  C   UNL     1       0.647   7.610 -29.035  1.00  0.00     0.016 A 
BRANCH  14  17
HETATM   17  O   UNL     1       1.363   9.692 -26.155  1.00  0.00    -0.356 OA
HETATM   18  C   UNL     1       2.244   8.794 -25.493  1.00  0.00     0.210 C 
ENDBRANCH  14  17
ENDBRANCH   9  11
ENDBRANCH   1   5
BRANCH   2  19
HETATM   19  N   UNL     1      -4.331   2.943 -32.747  1.00  0.00    -0.263 N 
HETATM   20  C   UNL     1      -5.705   2.865 -32.835  1.00  0.00     0.271 C 
HETATM   21  O   UNL     1      -6.432   3.800 -32.505  1.00  0.00    -0.266 OA
HETATM   22  H   UNL     1      -3.675   2.175 -32.895  1.00  0.00     0.190 HD
BRANCH  20  23
HETATM   23  C   UNL     1      -6.310   1.573 -33.256  1.00  0.00     0.048 A 
HETATM   24  C   UNL     1      -6.574   0.490 -32.398  1.00  0.00     0.063 A 
HETATM   25  C   UNL     1      -7.157  -0.673 -32.943  1.00  0.00     0.017 A 
HETATM   26  C   UNL     1      -7.446  -0.767 -34.305  1.00  0.00     0.001 A 
HETATM   27  C   UNL     1      -7.156   0.296 -35.151  1.00  0.00     0.001 A 
HETATM   28  C   UNL     1      -6.589   1.458 -34.630  1.00  0.00     0.018 A 
BRANCH  24  29
HETATM   29  C   UNL     1      -6.235   0.524 -30.934  1.00  0.00     0.418 C 
HETATM   30  F   UNL     1      -4.899   0.577 -30.695  1.00  0.00    -0.166 F 
HETATM   31  F   UNL     1      -6.782   1.609 -30.317  1.00  0.00    -0.166 F 
HETATM   32  F   UNL     1      -6.692  -0.558 -30.243  1.00  0.00    -0.166 F 
ENDBRANCH  24  29
ENDBRANCH  20  23
ENDBRANCH   2  19
TORSDOF 6
ENDMDL
MODEL 10
REMARK VINA RESULT:      -7.9      3.871     10.515
REMARK  6 active torsions:
REMARK  status: ('A' for Active; 'I' for Inactive)
REMARK    1  A    between atoms: O_2  and  C_3 
REMARK    2  A    between atoms: C_6  and  C_7 
REMARK    3  A    between atoms: C_11  and  C_12 
REMARK       I    between atoms: C_12  and  N_13 
REMARK    4  A    between atoms: N_13  and  N_14 
REMARK       I    between atoms: N_14  and  C_15 
REMARK    5  A    between atoms: C_15  and  C_16 
REMARK    6  A    between atoms: C_17  and  C_18 
ROOT
HETATM    1  C   UNL     1      -2.434   5.588 -31.078  1.00  0.00     0.288 C 
HETATM    2  N   UNL     1      -2.615   6.150 -29.835  1.00  0.00    -0.262 N 
HETATM    3  O   UNL     1      -1.655   6.052 -31.907  1.00  0.00    -0.264 OA
HETATM    4  H   UNL     1      -3.206   5.744 -29.113  1.00  0.00     0.190 HD
ENDROOT
BRANCH   1   5
HETATM    5  C   UNL     1      -3.241   4.425 -31.330  1.00  0.00     0.121 A 
HETATM    6  N   UNL     1      -4.350   4.123 -30.592  1.00  0.00    -0.272 N 
HETATM    7  N   UNL     1      -4.961   2.985 -30.958  1.00  0.00    -0.174 NA
HETATM    8  H   UNL     1      -4.736   4.662 -29.821  1.00  0.00     0.189 HD
HETATM    9  C   UNL     1      -4.206   2.497 -31.955  1.00  0.00     0.089 A 
HETATM   10  C   UNL     1      -3.134   3.389 -32.237  1.00  0.00     0.071 A 
BRANCH   9  11
HETATM   11  C   UNL     1      -4.499   1.216 -32.604  1.00  0.00    -0.005 A 
HETATM   12  C   UNL     1      -5.732   0.997 -33.235  1.00  0.00     0.016 A 
HETATM   13  C   UNL     1      -6.017  -0.227 -33.857  1.00  0.00     0.037 A 
HETATM   14  C   UNL     1      -5.073  -1.253 -33.852  1.00  0.00     0.068 A 
HETATM   15  C   UNL     1      -3.847  -1.044 -33.221  1.00  0.00     0.037 A 
HETATM   16  C   UNL     1      -3.560   0.176 -32.602  1.00  0.00     0.016 A 
BRANCH  14  17
HETATM   17  O   UNL     1      -5.220  -2.490 -34.415  1.00  0.00    -0.356 OA
HETATM   18  C   UNL     1      -6.547  -2.913 -34.700  1.00  0.00     0.210 C 
ENDBRANCH  14  17
ENDBRANCH   9  11
ENDBRANCH   1   5
BRANCH   2  19
HETATM   19  N   UNL     1      -1.962   7.338 -29.488  1.00  0.00    -0.263 N 
HETATM   20  C   UNL     1      -1.901   7.633 -28.142  1.00  0.00     0.271 C 
HETATM   21  O   UNL     1      -2.318   6.854 -27.287  1.00  0.00    -0.266 OA
HETATM   22  H   UNL     1      -1.740   7.977 -30.253  1.00  0.00     0.190 HD
BRANCH  20  23
HETATM   23  C   UNL     1      -1.398   8.972 -27.738  1.00  0.00     0.048 A 
HETATM   24  C   UNL     1      -0.045   9.294 -27.524  1.00  0.00     0.063 A 
HETATM   25  C   UNL     1       0.280  10.613 -27.147  1.00  0.00     0.017 A 
HETATM   26  C   UNL     1      -0.710  11.579 -26.962  1.00  0.00     0.001 A 
HETATM   27  C   UNL     1      -2.047  11.246 -27.147  1.00  0.00     0.001 A 
HETATM   28  C   UNL     1      -2.388   9.950 -27.530  1.00  0.00     0.018 A 
BRANCH  24  29
HETATM   29  C   UNL     1       1.053   8.277 -27.662  1.00  0.00     0.418 C 
HETATM   30  F   UNL     1       0.860   7.174 -26.894  1.00  0.00    -0.166 F 
HETATM   31  F   UNL     1       1.174   7.840 -28.947  1.00  0.00    -0.166 F 
HETATM   32  F   UNL     1       2.283   8.755 -27.321  1.00  0.00    -0.166 F 
ENDBRANCH  24  29
ENDBRANCH  20  23
ENDBRANCH   2  19
TORSDOF 6
ENDMDL
