MODEL 1
REMARK VINA RESULT:      -9.9      0.000      0.000
REMARK  8 active torsions:
REMARK  status: ('A' for Active; 'I' for Inactive)
REMARK    1  A    between atoms: O_2  and  C_3 
REMARK    2  A    between atoms: C_5  and  O_6 
REMARK    3  A    between atoms: C_9  and  C_10 
REMARK    4  A    between atoms: C_10  and  N_11 
REMARK    5  A    between atoms: C_20  and  C_21 
REMARK    6  A    between atoms: C_21  and  N_22 
REMARK    7  A    between atoms: C_26  and  O_27 
REMARK    8  A    between atoms: C_26  and  C_28 
ROOT
HETATM    1  N   UNL     1      -8.485   0.145 -32.766  1.00  0.00    -0.061 N 
HETATM    2  H   UNL     1      -8.477  -0.739 -32.246  1.00  0.00     0.280 HD
HETATM    3  C   UNL     1      -7.835   1.157 -31.845  1.00  0.00     0.276 C 
HETATM    4  C   UNL     1      -7.536   2.470 -32.516  1.00  0.00     0.002 A 
HETATM    5  C   UNL     1      -8.593   3.280 -32.930  1.00  0.00     0.076 A 
HETATM    6  O   UNL     1      -9.884   2.880 -32.722  1.00  0.00    -0.349 OA
HETATM    7  C   UNL     1     -10.241   1.814 -33.618  1.00  0.00     0.203 C 
HETATM    8  C   UNL     1      -9.962   0.431 -33.009  1.00  0.00     0.262 C 
HETATM    9  C   UNL     1      -6.222   2.874 -32.819  1.00  0.00     0.020 A 
HETATM   10  C   UNL     1      -5.971   4.069 -33.523  1.00  0.00    -0.032 A 
HETATM   11  C   UNL     1      -7.060   4.884 -33.876  1.00  0.00     0.011 A 
HETATM   12  C   UNL     1      -8.365   4.497 -33.564  1.00  0.00     0.038 A 
ENDROOT
BRANCH  10  13
HETATM   13  C   UNL     1      -4.570   4.403 -33.979  1.00  0.00     0.273 C 
BRANCH  13  14
HETATM   14  N   UNL     1      -4.052   5.780 -33.621  1.00  0.00    -0.067 N 
HETATM   15  H   UNL     1      -4.658   6.466 -34.093  1.00  0.00     0.280 HD
HETATM   16  C   UNL     1      -4.123   6.062 -32.138  1.00  0.00     0.238 C 
HETATM   17  C   UNL     1      -3.577   7.449 -31.854  1.00  0.00     0.071 C 
HETATM   18  C   UNL     1      -2.107   7.592 -32.301  1.00  0.00     0.089 C 
HETATM   19  C   UNL     1      -2.080   7.314 -33.816  1.00  0.00     0.071 C 
HETATM   20  C   UNL     1      -2.657   5.957 -34.184  1.00  0.00     0.238 C 
BRANCH  18  21
HETATM   21  O   UNL     1      -1.771   8.971 -32.147  1.00  0.00    -0.385 OA
HETATM   22  H   UNL     1      -2.405   9.529 -32.639  1.00  0.00     0.211 HD
ENDBRANCH  18  21
BRANCH  18  23
HETATM   23  C   UNL     1      -1.153   6.770 -31.443  1.00  0.00    -0.006 A 
HETATM   24  C   UNL     1      -0.506   5.620 -31.894  1.00  0.00     0.126 A 
HETATM   25  N   UNL     1       0.277   4.828 -31.132  1.00  0.00    -0.272 NA
HETATM   26  C   UNL     1       0.521   5.228 -29.869  1.00  0.00     0.116 A 
HETATM   27  C   UNL     1      -0.007   6.385 -29.331  1.00  0.00     0.020 A 
HETATM   28  C   UNL     1      -0.847   7.160 -30.128  1.00  0.00     0.013 A 
ENDBRANCH  18  23
ENDBRANCH  13  14
ENDBRANCH  10  13
BRANCH   1  29
HETATM   29  C   UNL     1      -7.664  -0.095 -34.010  1.00  0.00     0.274 C 
BRANCH  29  30
HETATM   30  C   UNL     1      -6.449  -0.957 -33.848  1.00  0.00    -0.027 A 
HETATM   31  C   UNL     1      -6.442  -2.253 -34.381  1.00  0.00     0.045 A 
HETATM   32  C   UNL     1      -5.277  -3.025 -34.385  1.00  0.00     0.071 A 
HETATM   33  C   UNL     1      -4.107  -2.521 -33.818  1.00  0.00     0.073 A 
HETATM   34  C   UNL     1      -4.097  -1.233 -33.279  1.00  0.00     0.071 A 
HETATM   35  C   UNL     1      -5.262  -0.458 -33.299  1.00  0.00     0.045 A 
BRANCH  32  36
HETATM   36  O   UNL     1      -5.421  -4.247 -34.981  1.00  0.00    -0.356 OA
HETATM   37  C   UNL     1      -6.723  -4.578 -35.460  1.00  0.00     0.210 C 
ENDBRANCH  32  36
BRANCH  34  38
HETATM   38  O   UNL     1      -3.022  -0.602 -32.718  1.00  0.00    -0.356 OA
HETATM   39  C   UNL     1      -3.190  -0.088 -31.399  1.00  0.00     0.210 C 
ENDBRANCH  34  38
ENDBRANCH  29  30
ENDBRANCH   1  29
TORSDOF 8
ENDMDL
MODEL 2
REMARK VINA RESULT:      -9.9      0.201      2.182
REMARK  8 active torsions:
REMARK  status: ('A' for Active; 'I' for Inactive)
REMARK    1  A    between atoms: O_2  and  C_3 
REMARK    2  A    between atoms: C_5  and  O_6 
REMARK    3  A    between atoms: C_9  and  C_10 
REMARK    4  A    between atoms: C_10  and  N_11 
REMARK    5  A    between atoms: C_20  and  C_21 
REMARK    6  A    between atoms: C_21  and  N_22 
REMARK    7  A    between atoms: C_26  and  O_27 
REMARK    8  A    between atoms: C_26  and  C_28 
ROOT
HETATM    1  N   UNL     1      -8.205   0.091 -32.759  1.00  0.00    -0.061 N 
HETATM    2  H   UNL     1      -8.137  -0.805 -32.263  1.00  0.00     0.280 HD
HETATM    3  C   UNL     1      -7.536   1.102 -31.850  1.00  0.00     0.276 C 
HETATM    4  C   UNL     1      -7.320   2.441 -32.503  1.00  0.00     0.002 A 
HETATM    5  C   UNL     1      -8.427   3.224 -32.834  1.00  0.00     0.076 A 
HETATM    6  O   UNL     1      -9.689   2.774 -32.562  1.00  0.00    -0.349 OA
HETATM    7  C   UNL     1     -10.062   1.718 -33.464  1.00  0.00     0.203 C 
HETATM    8  C   UNL     1      -9.702   0.332 -32.909  1.00  0.00     0.262 C 
HETATM    9  C   UNL     1      -6.041   2.897 -32.870  1.00  0.00     0.020 A 
HETATM   10  C   UNL     1      -5.872   4.117 -33.556  1.00  0.00    -0.032 A 
HETATM   11  C   UNL     1      -7.005   4.902 -33.824  1.00  0.00     0.011 A 
HETATM   12  C   UNL     1      -8.277   4.463 -33.448  1.00  0.00     0.038 A 
ENDROOT
BRANCH  10  13
HETATM   13  C   UNL     1      -4.511   4.510 -34.083  1.00  0.00     0.273 C 
BRANCH  13  14
HETATM   14  N   UNL     1      -3.994   5.872 -33.670  1.00  0.00    -0.067 N 
HETATM   15  H   UNL     1      -4.587   6.576 -34.131  1.00  0.00     0.280 HD
HETATM   16  C   UNL     1      -4.091   6.106 -32.181  1.00  0.00     0.238 C 
HETATM   17  C   UNL     1      -3.544   7.481 -31.841  1.00  0.00     0.071 C 
HETATM   18  C   UNL     1      -2.065   7.629 -32.254  1.00  0.00     0.089 C 
HETATM   19  C   UNL     1      -2.011   7.400 -33.777  1.00  0.00     0.071 C 
HETATM   20  C   UNL     1      -2.586   6.059 -34.200  1.00  0.00     0.238 C 
BRANCH  18  21
HETATM   21  O   UNL     1      -1.725   9.001 -32.050  1.00  0.00    -0.385 OA
HETATM   22  H   UNL     1      -1.186   9.329 -32.795  1.00  0.00     0.211 HD
ENDBRANCH  18  21
BRANCH  18  23
HETATM   23  C   UNL     1      -1.133   6.774 -31.406  1.00  0.00    -0.006 A 
HETATM   24  C   UNL     1      -0.450   5.660 -31.893  1.00  0.00     0.126 A 
HETATM   25  N   UNL     1       0.316   4.839 -31.144  1.00  0.00    -0.272 NA
HETATM   26  C   UNL     1       0.503   5.172 -29.852  1.00  0.00     0.116 A 
HETATM   27  C   UNL     1      -0.064   6.289 -29.273  1.00  0.00     0.020 A 
HETATM   28  C   UNL     1      -0.885   7.095 -30.060  1.00  0.00     0.013 A 
ENDBRANCH  18  23
ENDBRANCH  13  14
ENDBRANCH  10  13
BRANCH   1  29
HETATM   29  C   UNL     1      -7.451  -0.091 -34.054  1.00  0.00     0.274 C 
BRANCH  29  30
HETATM   30  C   UNL     1      -6.253  -0.989 -34.004  1.00  0.00    -0.027 A 
HETATM   31  C   UNL     1      -5.116  -0.588 -33.288  1.00  0.00     0.045 A 
HETATM   32  C   UNL     1      -4.044  -1.462 -33.090  1.00  0.00     0.071 A 
HETATM   33  C   UNL     1      -4.079  -2.743 -33.641  1.00  0.00     0.073 A 
HETATM   34  C   UNL     1      -5.202  -3.157 -34.359  1.00  0.00     0.071 A 
HETATM   35  C   UNL     1      -6.281  -2.284 -34.535  1.00  0.00     0.045 A 
BRANCH  32  36
HETATM   36  O   UNL     1      -3.032  -0.938 -32.333  1.00  0.00    -0.356 OA
HETATM   37  C   UNL     1      -3.406  -0.021 -31.308  1.00  0.00     0.210 C 
ENDBRANCH  32  36
BRANCH  34  38
HETATM   38  O   UNL     1      -5.386  -4.386 -34.930  1.00  0.00    -0.356 OA
HETATM   39  C   UNL     1      -6.674  -4.659 -35.477  1.00  0.00     0.210 C 
ENDBRANCH  34  38
ENDBRANCH  29  30
ENDBRANCH   1  29
TORSDOF 8
ENDMDL
MODEL 3
REMARK VINA RESULT:      -9.0      1.874      5.208
REMARK  8 active torsions:
REMARK  status: ('A' for Active; 'I' for Inactive)
REMARK    1  A    between atoms: O_2  and  C_3 
REMARK    2  A    between atoms: C_5  and  O_6 
REMARK    3  A    between atoms: C_9  and  C_10 
REMARK    4  A    between atoms: C_10  and  N_11 
REMARK    5  A    between atoms: C_20  and  C_21 
REMARK    6  A    between atoms: C_21  and  N_22 
REMARK    7  A    between atoms: C_26  and  O_27 
REMARK    8  A    between atoms: C_26  and  C_28 
ROOT
HETATM    1  N   UNL     1      -7.861   0.251 -34.194  1.00  0.00    -0.061 N 
HETATM    2  H   UNL     1      -8.444   0.092 -35.024  1.00  0.00     0.280 HD
HETATM    3  C   UNL     1      -6.812   1.253 -34.629  1.00  0.00     0.276 C 
HETATM    4  C   UNL     1      -5.998   1.799 -33.487  1.00  0.00     0.002 A 
HETATM    5  C   UNL     1      -5.135   0.947 -32.796  1.00  0.00     0.076 A 
HETATM    6  O   UNL     1      -5.034  -0.366 -33.161  1.00  0.00    -0.349 OA
HETATM    7  C   UNL     1      -6.207  -1.100 -32.768  1.00  0.00     0.203 C 
HETATM    8  C   UNL     1      -7.273  -1.118 -33.874  1.00  0.00     0.262 C 
HETATM    9  C   UNL     1      -6.138   3.124 -33.034  1.00  0.00     0.020 A 
HETATM   10  C   UNL     1      -5.427   3.588 -31.908  1.00  0.00    -0.032 A 
HETATM   11  C   UNL     1      -4.528   2.716 -31.273  1.00  0.00     0.011 A 
HETATM   12  C   UNL     1      -4.372   1.404 -31.728  1.00  0.00     0.038 A 
ENDROOT
BRANCH  10  13
HETATM   13  C   UNL     1      -5.712   4.960 -31.341  1.00  0.00     0.273 C 
BRANCH  13  14
HETATM   14  N   UNL     1      -4.848   6.094 -31.849  1.00  0.00    -0.067 N 
HETATM   15  H   UNL     1      -5.464   6.743 -32.359  1.00  0.00     0.280 HD
HETATM   16  C   UNL     1      -4.197   6.876 -30.731  1.00  0.00     0.238 C 
HETATM   17  C   UNL     1      -3.339   7.984 -31.314  1.00  0.00     0.071 C 
HETATM   18  C   UNL     1      -2.224   7.430 -32.225  1.00  0.00     0.089 C 
HETATM   19  C   UNL     1      -2.926   6.656 -33.356  1.00  0.00     0.071 C 
HETATM   20  C   UNL     1      -3.843   5.556 -32.847  1.00  0.00     0.238 C 
BRANCH  18  21
HETATM   21  O   UNL     1      -1.608   8.561 -32.843  1.00  0.00    -0.385 OA
HETATM   22  H   UNL     1      -1.062   9.044 -32.194  1.00  0.00     0.211 HD
ENDBRANCH  18  21
BRANCH  18  23
HETATM   23  C   UNL     1      -1.156   6.672 -31.446  1.00  0.00    -0.006 A 
HETATM   24  C   UNL     1      -0.622   5.451 -31.856  1.00  0.00     0.126 A 
HETATM   25  N   UNL     1       0.262   4.719 -31.145  1.00  0.00    -0.272 NA
HETATM   26  C   UNL     1       0.728   5.252 -29.999  1.00  0.00     0.116 A 
HETATM   27  C   UNL     1       0.328   6.485 -29.525  1.00  0.00     0.020 A 
HETATM   28  C   UNL     1      -0.619   7.198 -30.258  1.00  0.00     0.013 A 
ENDBRANCH  18  23
ENDBRANCH  13  14
ENDBRANCH  10  13
BRANCH   1  29
HETATM   29  C   UNL     1      -8.781   0.817 -33.140  1.00  0.00     0.274 C 
BRANCH  29  30
HETATM   30  C   UNL     1     -10.111   1.315 -33.618  1.00  0.00    -0.027 A 
HETATM   31  C   UNL     1     -10.179   2.497 -34.368  1.00  0.00     0.045 A 
HETATM   32  C   UNL     1     -11.376   2.907 -34.961  1.00  0.00     0.071 A 
HETATM   33  C   UNL     1     -12.537   2.155 -34.777  1.00  0.00     0.073 A 
HETATM   34  C   UNL     1     -12.487   0.976 -34.030  1.00  0.00     0.071 A 
HETATM   35  C   UNL     1     -11.280   0.561 -33.458  1.00  0.00     0.045 A 
BRANCH  32  36
HETATM   36  O   UNL     1     -11.269   4.054 -35.697  1.00  0.00    -0.356 OA
HETATM   37  C   UNL     1     -10.327   5.023 -35.241  1.00  0.00     0.210 C 
ENDBRANCH  32  36
BRANCH  34  38
HETATM   38  O   UNL     1     -13.533   0.129 -33.790  1.00  0.00    -0.356 OA
HETATM   39  C   UNL     1     -14.829   0.573 -34.184  1.00  0.00     0.210 C 
ENDBRANCH  34  38
ENDBRANCH  29  30
ENDBRANCH   1  29
TORSDOF 8
ENDMDL
MODEL 4
REMARK VINA RESULT:      -8.9      1.739      4.840
REMARK  8 active torsions:
REMARK  status: ('A' for Active; 'I' for Inactive)
REMARK    1  A    between atoms: O_2  and  C_3 
REMARK    2  A    between atoms: C_5  and  O_6 
REMARK    3  A    between atoms: C_9  and  C_10 
REMARK    4  A    between atoms: C_10  and  N_11 
REMARK    5  A    between atoms: C_20  and  C_21 
REMARK    6  A    between atoms: C_21  and  N_22 
REMARK    7  A    between atoms: C_26  and  O_27 
REMARK    8  A    between atoms: C_26  and  C_28 
ROOT
HETATM    1  N   UNL     1      -8.007   0.053 -34.541  1.00  0.00    -0.061 N 
HETATM    2  H   UNL     1      -8.585  -0.089 -35.377  1.00  0.00     0.280 HD
HETATM    3  C   UNL     1      -6.900   0.992 -34.976  1.00  0.00     0.276 C 
HETATM    4  C   UNL     1      -6.076   1.514 -33.830  1.00  0.00     0.002 A 
HETATM    5  C   UNL     1      -5.269   0.629 -33.113  1.00  0.00     0.076 A 
HETATM    6  O   UNL     1      -5.232  -0.694 -33.455  1.00  0.00    -0.349 OA
HETATM    7  C   UNL     1      -6.447  -1.358 -33.069  1.00  0.00     0.203 C 
HETATM    8  C   UNL     1      -7.497  -1.339 -34.191  1.00  0.00     0.262 C 
HETATM    9  C   UNL     1      -6.153   2.851 -33.400  1.00  0.00     0.020 A 
HETATM   10  C   UNL     1      -5.435   3.296 -32.271  1.00  0.00    -0.032 A 
HETATM   11  C   UNL     1      -4.592   2.389 -31.608  1.00  0.00     0.011 A 
HETATM   12  C   UNL     1      -4.499   1.064 -32.040  1.00  0.00     0.038 A 
ENDROOT
BRANCH  10  13
HETATM   13  C   UNL     1      -5.657   4.690 -31.730  1.00  0.00     0.273 C 
BRANCH  13  14
HETATM   14  N   UNL     1      -4.805   5.790 -32.327  1.00  0.00    -0.067 N 
HETATM   15  H   UNL     1      -5.415   6.350 -32.939  1.00  0.00     0.280 HD
HETATM   16  C   UNL     1      -4.239   6.722 -31.281  1.00  0.00     0.238 C 
HETATM   17  C   UNL     1      -3.389   7.787 -31.950  1.00  0.00     0.071 C 
HETATM   18  C   UNL     1      -2.210   7.174 -32.734  1.00  0.00     0.089 C 
HETATM   19  C   UNL     1      -2.827   6.246 -33.797  1.00  0.00     0.071 C 
HETATM   20  C   UNL     1      -3.733   5.178 -33.206  1.00  0.00     0.238 C 
BRANCH  18  21
HETATM   21  O   UNL     1      -1.601   8.247 -33.453  1.00  0.00    -0.385 OA
HETATM   22  H   UNL     1      -0.692   8.396 -33.129  1.00  0.00     0.211 HD
ENDBRANCH  18  21
BRANCH  18  23
HETATM   23  C   UNL     1      -1.160   6.554 -31.821  1.00  0.00    -0.006 A 
HETATM   24  C   UNL     1      -0.639   5.274 -32.000  1.00  0.00     0.126 A 
HETATM   25  N   UNL     1       0.229   4.670 -31.161  1.00  0.00    -0.272 NA
HETATM   26  C   UNL     1       0.692   5.394 -30.123  1.00  0.00     0.116 A 
HETATM   27  C   UNL     1       0.303   6.696 -29.880  1.00  0.00     0.020 A 
HETATM   28  C   UNL     1      -0.627   7.278 -30.740  1.00  0.00     0.013 A 
ENDBRANCH  18  23
ENDBRANCH  13  14
ENDBRANCH  10  13
BRANCH   1  29
HETATM   29  C   UNL     1      -8.911   0.684 -33.510  1.00  0.00     0.274 C 
BRANCH  29  30
HETATM   30  C   UNL     1      -9.945   1.637 -34.029  1.00  0.00    -0.027 A 
HETATM   31  C   UNL     1     -11.207   1.154 -34.403  1.00  0.00     0.045 A 
HETATM   32  C   UNL     1     -12.243   2.029 -34.741  1.00  0.00     0.071 A 
HETATM   33  C   UNL     1     -12.017   3.405 -34.746  1.00  0.00     0.073 A 
HETATM   34  C   UNL     1     -10.765   3.903 -34.379  1.00  0.00     0.071 A 
HETATM   35  C   UNL     1      -9.739   3.022 -34.020  1.00  0.00     0.045 A 
BRANCH  32  36
HETATM   36  O   UNL     1     -13.423   1.406 -35.038  1.00  0.00    -0.356 OA
HETATM   37  C   UNL     1     -13.796   0.309 -34.208  1.00  0.00     0.210 C 
ENDBRANCH  32  36
BRANCH  34  38
HETATM   38  O   UNL     1     -10.409   5.222 -34.312  1.00  0.00    -0.356 OA
HETATM   39  C   UNL     1      -9.030   5.510 -34.096  1.00  0.00     0.210 C 
ENDBRANCH  34  38
ENDBRANCH  29  30
ENDBRANCH   1  29
TORSDOF 8
ENDMDL
MODEL 5
REMARK VINA RESULT:      -8.8      1.746      3.052
REMARK  8 active torsions:
REMARK  status: ('A' for Active; 'I' for Inactive)
REMARK    1  A    between atoms: O_2  and  C_3 
REMARK    2  A    between atoms: C_5  and  O_6 
REMARK    3  A    between atoms: C_9  and  C_10 
REMARK    4  A    between atoms: C_10  and  N_11 
REMARK    5  A    between atoms: C_20  and  C_21 
REMARK    6  A    between atoms: C_21  and  N_22 
REMARK    7  A    between atoms: C_26  and  O_27 
REMARK    8  A    between atoms: C_26  and  C_28 
ROOT
HETATM    1  N   UNL     1      -8.655   0.745 -33.170  1.00  0.00    -0.061 N 
HETATM    2  H   UNL     1      -8.594  -0.264 -33.350  1.00  0.00     0.280 HD
HETATM    3  C   UNL     1      -8.751   0.877 -31.664  1.00  0.00     0.276 C 
HETATM    4  C   UNL     1      -8.612   2.295 -31.179  1.00  0.00     0.002 A 
HETATM    5  C   UNL     1      -9.608   3.222 -31.489  1.00  0.00     0.076 A 
HETATM    6  O   UNL     1     -10.695   2.837 -32.223  1.00  0.00    -0.349 OA
HETATM    7  C   UNL     1     -10.339   2.635 -33.601  1.00  0.00     0.203 C 
HETATM    8  C   UNL     1      -9.929   1.181 -33.883  1.00  0.00     0.262 C 
HETATM    9  C   UNL     1      -7.468   2.743 -30.493  1.00  0.00     0.020 A 
HETATM   10  C   UNL     1      -7.324   4.096 -30.123  1.00  0.00    -0.032 A 
HETATM   11  C   UNL     1      -8.372   4.987 -30.406  1.00  0.00     0.011 A 
HETATM   12  C   UNL     1      -9.517   4.545 -31.072  1.00  0.00     0.038 A 
ENDROOT
BRANCH  10  13
HETATM   13  C   UNL     1      -6.022   4.588 -29.533  1.00  0.00     0.273 C 
BRANCH  13  14
HETATM   14  N   UNL     1      -5.470   5.880 -30.097  1.00  0.00    -0.067 N 
HETATM   15  H   UNL     1      -6.262   6.530 -30.202  1.00  0.00     0.280 HD
HETATM   16  C   UNL     1      -4.468   6.537 -29.176  1.00  0.00     0.238 C 
HETATM   17  C   UNL     1      -3.951   7.815 -29.811  1.00  0.00     0.071 C 
HETATM   18  C   UNL     1      -3.257   7.547 -31.162  1.00  0.00     0.089 C 
HETATM   19  C   UNL     1      -4.312   6.894 -32.075  1.00  0.00     0.071 C 
HETATM   20  C   UNL     1      -4.913   5.629 -31.483  1.00  0.00     0.238 C 
BRANCH  18  21
HETATM   21  O   UNL     1      -2.978   8.825 -31.734  1.00  0.00    -0.385 OA
HETATM   22  H   UNL     1      -2.635   8.720 -32.643  1.00  0.00     0.211 HD
ENDBRANCH  18  21
BRANCH  18  23
HETATM   23  C   UNL     1      -1.940   6.797 -31.004  1.00  0.00    -0.006 A 
HETATM   24  C   UNL     1      -1.645   5.606 -31.666  1.00  0.00     0.126 A 
HETATM   25  N   UNL     1      -0.523   4.880 -31.481  1.00  0.00    -0.272 NA
HETATM   26  C   UNL     1       0.419   5.390 -30.664  1.00  0.00     0.116 A 
HETATM   27  C   UNL     1       0.271   6.595 -30.006  1.00  0.00     0.020 A 
HETATM   28  C   UNL     1      -0.917   7.301 -30.182  1.00  0.00     0.013 A 
ENDBRANCH  18  23
ENDBRANCH  13  14
ENDBRANCH  10  13
BRANCH   1  29
HETATM   29  C   UNL     1      -7.379   1.344 -33.710  1.00  0.00     0.274 C 
BRANCH  29  30
HETATM   30  C   UNL     1      -6.128   0.550 -33.490  1.00  0.00    -0.027 A 
HETATM   31  C   UNL     1      -5.071   1.110 -32.759  1.00  0.00     0.045 A 
HETATM   32  C   UNL     1      -3.957   0.346 -32.402  1.00  0.00     0.071 A 
HETATM   33  C   UNL     1      -3.868  -0.986 -32.807  1.00  0.00     0.073 A 
HETATM   34  C   UNL     1      -4.910  -1.559 -33.538  1.00  0.00     0.071 A 
HETATM   35  C   UNL     1      -6.033  -0.794 -33.873  1.00  0.00     0.045 A 
BRANCH  32  36
HETATM   36  O   UNL     1      -3.035   1.022 -31.651  1.00  0.00    -0.356 OA
HETATM   37  C   UNL     1      -3.267   2.415 -31.455  1.00  0.00     0.210 C 
ENDBRANCH  32  36
BRANCH  34  38
HETATM   38  O   UNL     1      -4.971  -2.852 -33.977  1.00  0.00    -0.356 OA
HETATM   39  C   UNL     1      -5.447  -3.063 -35.304  1.00  0.00     0.210 C 
ENDBRANCH  34  38
ENDBRANCH  29  30
ENDBRANCH   1  29
TORSDOF 8
ENDMDL
MODEL 6
REMARK VINA RESULT:      -8.7      3.083      9.269
REMARK  8 active torsions:
REMARK  status: ('A' for Active; 'I' for Inactive)
REMARK    1  A    between atoms: O_2  and  C_3 
REMARK    2  A    between atoms: C_5  and  O_6 
REMARK    3  A    between atoms: C_9  and  C_10 
REMARK    4  A    between atoms: C_10  and  N_11 
REMARK    5  A    between atoms: C_20  and  C_21 
REMARK    6  A    between atoms: C_21  and  N_22 
REMARK    7  A    between atoms: C_26  and  O_27 
REMARK    8  A    between atoms: C_26  and  C_28 
ROOT
HETATM    1  N   UNL     1      -3.775   0.901 -31.361  1.00  0.00    -0.061 N 
HETATM    2  H   UNL     1      -3.324   1.203 -30.489  1.00  0.00     0.280 HD
HETATM    3  C   UNL     1      -5.210   0.597 -30.984  1.00  0.00     0.276 C 
HETATM    4  C   UNL     1      -6.102   0.362 -32.173  1.00  0.00     0.002 A 
HETATM    5  C   UNL     1      -5.897  -0.766 -32.967  1.00  0.00     0.076 A 
HETATM    6  O   UNL     1      -4.897  -1.646 -32.660  1.00  0.00    -0.349 OA
HETATM    7  C   UNL     1      -3.610  -1.090 -32.974  1.00  0.00     0.203 C 
HETATM    8  C   UNL     1      -2.998  -0.341 -31.780  1.00  0.00     0.262 C 
HETATM    9  C   UNL     1      -7.086   1.289 -32.565  1.00  0.00     0.020 A 
HETATM   10  C   UNL     1      -7.853   1.088 -33.731  1.00  0.00    -0.032 A 
HETATM   11  C   UNL     1      -7.654  -0.087 -34.474  1.00  0.00     0.011 A 
HETATM   12  C   UNL     1      -6.690  -1.018 -34.082  1.00  0.00     0.038 A 
ENDROOT
BRANCH  10  13
HETATM   13  C   UNL     1      -8.788   2.170 -34.221  1.00  0.00     0.273 C 
BRANCH  13  14
HETATM   14  N   UNL     1     -10.191   1.735 -34.589  1.00  0.00    -0.067 N 
HETATM   15  H   UNL     1     -10.104   0.966 -35.269  1.00  0.00     0.280 HD
HETATM   16  C   UNL     1     -10.966   1.203 -33.406  1.00  0.00     0.238 C 
HETATM   17  C   UNL     1     -12.361   0.801 -33.847  1.00  0.00     0.071 C 
HETATM   18  C   UNL     1     -13.144   1.992 -34.437  1.00  0.00     0.089 C 
HETATM   19  C   UNL     1     -12.332   2.493 -35.647  1.00  0.00     0.071 C 
HETATM   20  C   UNL     1     -10.904   2.872 -35.292  1.00  0.00     0.238 C 
BRANCH  18  21
HETATM   21  O   UNL     1     -14.355   1.455 -34.971  1.00  0.00    -0.385 OA
HETATM   22  H   UNL     1     -14.766   2.095 -35.584  1.00  0.00     0.211 HD
ENDBRANCH  18  21
BRANCH  18  23
HETATM   23  C   UNL     1     -13.506   3.033 -33.385  1.00  0.00    -0.006 A 
HETATM   24  C   UNL     1     -13.244   4.395 -33.524  1.00  0.00     0.126 A 
HETATM   25  N   UNL     1     -13.478   5.325 -32.575  1.00  0.00    -0.272 NA
HETATM   26  C   UNL     1     -14.092   4.919 -31.447  1.00  0.00     0.116 A 
HETATM   27  C   UNL     1     -14.464   3.609 -31.223  1.00  0.00     0.020 A 
HETATM   28  C   UNL     1     -14.170   2.663 -32.203  1.00  0.00     0.013 A 
ENDBRANCH  18  23
ENDBRANCH  13  14
ENDBRANCH  10  13
BRANCH   1  29
HETATM   29  C   UNL     1      -3.675   2.071 -32.309  1.00  0.00     0.274 C 
BRANCH  29  30
HETATM   30  C   UNL     1      -3.594   3.430 -31.681  1.00  0.00    -0.027 A 
HETATM   31  C   UNL     1      -2.369   4.110 -31.657  1.00  0.00     0.045 A 
HETATM   32  C   UNL     1      -2.289   5.436 -31.222  1.00  0.00     0.071 A 
HETATM   33  C   UNL     1      -3.435   6.089 -30.768  1.00  0.00     0.073 A 
HETATM   34  C   UNL     1      -4.663   5.425 -30.783  1.00  0.00     0.071 A 
HETATM   35  C   UNL     1      -4.739   4.105 -31.240  1.00  0.00     0.045 A 
BRANCH  32  36
HETATM   36  O   UNL     1      -1.034   5.973 -31.302  1.00  0.00    -0.356 OA
HETATM   37  C   UNL     1       0.029   5.206 -30.742  1.00  0.00     0.210 C 
ENDBRANCH  32  36
BRANCH  34  38
HETATM   38  O   UNL     1      -5.866   5.946 -30.394  1.00  0.00    -0.356 OA
HETATM   39  C   UNL     1      -7.024   5.482 -31.084  1.00  0.00     0.210 C 
ENDBRANCH  34  38
ENDBRANCH  29  30
ENDBRANCH   1  29
TORSDOF 8
ENDMDL
MODEL 7
REMARK VINA RESULT:      -8.6      2.199      7.919
REMARK  8 active torsions:
REMARK  status: ('A' for Active; 'I' for Inactive)
REMARK    1  A    between atoms: O_2  and  C_3 
REMARK    2  A    between atoms: C_5  and  O_6 
REMARK    3  A    between atoms: C_9  and  C_10 
REMARK    4  A    between atoms: C_10  and  N_11 
REMARK    5  A    between atoms: C_20  and  C_21 
REMARK    6  A    between atoms: C_21  and  N_22 
REMARK    7  A    between atoms: C_26  and  O_27 
REMARK    8  A    between atoms: C_26  and  C_28 
ROOT
HETATM    1  N   UNL     1      -3.613   0.962 -31.167  1.00  0.00    -0.061 N 
HETATM    2  H   UNL     1      -3.486   1.535 -30.325  1.00  0.00     0.280 HD
HETATM    3  C   UNL     1      -5.013   0.395 -31.056  1.00  0.00     0.276 C 
HETATM    4  C   UNL     1      -5.482  -0.288 -32.313  1.00  0.00     0.002 A 
HETATM    5  C   UNL     1      -4.858  -1.468 -32.720  1.00  0.00     0.076 A 
HETATM    6  O   UNL     1      -3.837  -1.993 -31.979  1.00  0.00    -0.349 OA
HETATM    7  C   UNL     1      -2.640  -1.211 -32.130  1.00  0.00     0.203 C 
HETATM    8  C   UNL     1      -2.533  -0.108 -31.065  1.00  0.00     0.262 C 
HETATM    9  C   UNL     1      -6.474   0.268 -33.141  1.00  0.00     0.020 A 
HETATM   10  C   UNL     1      -6.837  -0.347 -34.357  1.00  0.00    -0.032 A 
HETATM   11  C   UNL     1      -6.225  -1.562 -34.706  1.00  0.00     0.011 A 
HETATM   12  C   UNL     1      -5.250  -2.127 -33.880  1.00  0.00     0.038 A 
ENDROOT
BRANCH  10  13
HETATM   13  C   UNL     1      -7.785   0.348 -35.307  1.00  0.00     0.273 C 
BRANCH  13  14
HETATM   14  N   UNL     1      -9.085   0.852 -34.717  1.00  0.00    -0.067 N 
HETATM   15  H   UNL     1      -9.848   0.492 -35.308  1.00  0.00     0.280 HD
HETATM   16  C   UNL     1      -9.324   0.344 -33.314  1.00  0.00     0.238 C 
HETATM   17  C   UNL     1     -10.634   0.900 -32.785  1.00  0.00     0.071 C 
HETATM   18  C   UNL     1     -10.630   2.442 -32.744  1.00  0.00     0.089 C 
HETATM   19  C   UNL     1     -10.401   2.918 -34.190  1.00  0.00     0.071 C 
HETATM   20  C   UNL     1      -9.127   2.364 -34.807  1.00  0.00     0.238 C 
BRANCH  18  21
HETATM   21  O   UNL     1     -11.959   2.840 -32.404  1.00  0.00    -0.385 OA
HETATM   22  H   UNL     1     -12.531   2.054 -32.307  1.00  0.00     0.211 HD
ENDBRANCH  18  21
BRANCH  18  23
HETATM   23  C   UNL     1      -9.681   2.996 -31.689  1.00  0.00    -0.006 A 
HETATM   24  C   UNL     1      -9.811   4.263 -31.122  1.00  0.00     0.126 A 
HETATM   25  N   UNL     1      -8.939   4.809 -30.248  1.00  0.00    -0.272 NA
HETATM   26  C   UNL     1      -7.918   4.039 -29.828  1.00  0.00     0.116 A 
HETATM   27  C   UNL     1      -7.723   2.744 -30.265  1.00  0.00     0.020 A 
HETATM   28  C   UNL     1      -8.615   2.222 -31.200  1.00  0.00     0.013 A 
ENDBRANCH  18  23
ENDBRANCH  13  14
ENDBRANCH  10  13
BRANCH   1  29
HETATM   29  C   UNL     1      -3.475   1.904 -32.338  1.00  0.00     0.274 C 
BRANCH  29  30
HETATM   30  C   UNL     1      -3.676   3.360 -32.047  1.00  0.00    -0.027 A 
HETATM   31  C   UNL     1      -2.603   4.125 -31.568  1.00  0.00     0.045 A 
HETATM   32  C   UNL     1      -2.711   5.512 -31.433  1.00  0.00     0.071 A 
HETATM   33  C   UNL     1      -3.912   6.150 -31.743  1.00  0.00     0.073 A 
HETATM   34  C   UNL     1      -4.991   5.402 -32.218  1.00  0.00     0.071 A 
HETATM   35  C   UNL     1      -4.869   4.016 -32.371  1.00  0.00     0.045 A 
BRANCH  32  36
HETATM   36  O   UNL     1      -1.565   6.119 -30.998  1.00  0.00    -0.356 OA
HETATM   37  C   UNL     1      -0.356   5.374 -31.126  1.00  0.00     0.210 C 
ENDBRANCH  32  36
BRANCH  34  38
HETATM   38  O   UNL     1      -6.213   5.893 -32.584  1.00  0.00    -0.356 OA
HETATM   39  C   UNL     1      -6.992   5.094 -33.472  1.00  0.00     0.210 C 
ENDBRANCH  34  38
ENDBRANCH  29  30
ENDBRANCH   1  29
TORSDOF 8
ENDMDL
MODEL 8
REMARK VINA RESULT:      -8.6      2.868      8.755
REMARK  8 active torsions:
REMARK  status: ('A' for Active; 'I' for Inactive)
REMARK    1  A    between atoms: O_2  and  C_3 
REMARK    2  A    between atoms: C_5  and  O_6 
REMARK    3  A    between atoms: C_9  and  C_10 
REMARK    4  A    between atoms: C_10  and  N_11 
REMARK    5  A    between atoms: C_20  and  C_21 
REMARK    6  A    between atoms: C_21  and  N_22 
REMARK    7  A    between atoms: C_26  and  O_27 
REMARK    8  A    between atoms: C_26  and  C_28 
ROOT
HETATM    1  N   UNL     1      -1.428   6.273 -31.052  1.00  0.00    -0.061 N 
HETATM    2  H   UNL     1      -0.888   6.155 -30.187  1.00  0.00     0.280 HD
HETATM    3  C   UNL     1      -1.867   4.876 -31.441  1.00  0.00     0.276 C 
HETATM    4  C   UNL     1      -2.874   4.857 -32.560  1.00  0.00     0.002 A 
HETATM    5  C   UNL     1      -2.484   5.268 -33.834  1.00  0.00     0.076 A 
HETATM    6  O   UNL     1      -1.199   5.680 -34.057  1.00  0.00    -0.349 OA
HETATM    7  C   UNL     1      -0.968   6.975 -33.478  1.00  0.00     0.203 C 
HETATM    8  C   UNL     1      -0.438   6.878 -32.039  1.00  0.00     0.262 C 
HETATM    9  C   UNL     1      -4.223   4.518 -32.347  1.00  0.00     0.020 A 
HETATM   10  C   UNL     1      -5.166   4.588 -33.393  1.00  0.00    -0.032 A 
HETATM   11  C   UNL     1      -4.723   4.956 -34.674  1.00  0.00     0.011 A 
HETATM   12  C   UNL     1      -3.382   5.278 -34.896  1.00  0.00     0.038 A 
ENDROOT
BRANCH  10  13
HETATM   13  C   UNL     1      -6.635   4.378 -33.107  1.00  0.00     0.273 C 
BRANCH  13  14
HETATM   14  N   UNL     1      -7.178   2.986 -33.353  1.00  0.00    -0.067 N 
HETATM   15  H   UNL     1      -8.120   3.093 -33.754  1.00  0.00     0.280 HD
HETATM   16  C   UNL     1      -6.351   2.204 -34.347  1.00  0.00     0.238 C 
HETATM   17  C   UNL     1      -6.946   0.820 -34.532  1.00  0.00     0.071 C 
HETATM   18  C   UNL     1      -6.982   0.028 -33.209  1.00  0.00     0.089 C 
HETATM   19  C   UNL     1      -7.844   0.847 -32.231  1.00  0.00     0.071 C 
HETATM   20  C   UNL     1      -7.336   2.265 -32.030  1.00  0.00     0.238 C 
BRANCH  18  21
HETATM   21  O   UNL     1      -7.715  -1.169 -33.475  1.00  0.00    -0.385 OA
HETATM   22  H   UNL     1      -7.661  -1.774 -32.709  1.00  0.00     0.211 HD
ENDBRANCH  18  21
BRANCH  18  23
HETATM   23  C   UNL     1      -5.591  -0.363 -32.724  1.00  0.00    -0.006 A 
HETATM   24  C   UNL     1      -4.768  -1.270 -33.388  1.00  0.00     0.126 A 
HETATM   25  N   UNL     1      -3.569  -1.695 -32.938  1.00  0.00    -0.272 NA
HETATM   26  C   UNL     1      -3.096  -1.133 -31.808  1.00  0.00     0.116 A 
HETATM   27  C   UNL     1      -3.788  -0.173 -31.099  1.00  0.00     0.020 A 
HETATM   28  C   UNL     1      -5.043   0.215 -31.565  1.00  0.00     0.013 A 
ENDBRANCH  18  23
ENDBRANCH  13  14
ENDBRANCH  10  13
BRANCH   1  29
HETATM   29  C   UNL     1      -2.600   7.155 -30.695  1.00  0.00     0.274 C 
BRANCH  29  30
HETATM   30  C   UNL     1      -2.981   7.200 -29.247  1.00  0.00    -0.027 A 
HETATM   31  C   UNL     1      -4.329   7.086 -28.881  1.00  0.00     0.045 A 
HETATM   32  C   UNL     1      -4.704   6.967 -27.540  1.00  0.00     0.071 A 
HETATM   33  C   UNL     1      -3.733   7.000 -26.540  1.00  0.00     0.073 A 
HETATM   34  C   UNL     1      -2.385   7.117 -26.887  1.00  0.00     0.071 A 
HETATM   35  C   UNL     1      -2.015   7.213 -28.233  1.00  0.00     0.045 A 
BRANCH  32  36
HETATM   36  O   UNL     1      -6.050   6.818 -27.350  1.00  0.00    -0.356 OA
HETATM   37  C   UNL     1      -6.671   5.711 -28.000  1.00  0.00     0.210 C 
ENDBRANCH  32  36
BRANCH  34  38
HETATM   38  O   UNL     1      -1.328   7.136 -26.020  1.00  0.00    -0.356 OA
HETATM   39  C   UNL     1      -0.035   6.903 -26.572  1.00  0.00     0.210 C 
ENDBRANCH  34  38
ENDBRANCH  29  30
ENDBRANCH   1  29
TORSDOF 8
ENDMDL
MODEL 9
REMARK VINA RESULT:      -8.6      2.967      9.060
REMARK  8 active torsions:
REMARK  status: ('A' for Active; 'I' for Inactive)
REMARK    1  A    between atoms: O_2  and  C_3 
REMARK    2  A    between atoms: C_5  and  O_6 
REMARK    3  A    between atoms: C_9  and  C_10 
REMARK    4  A    between atoms: C_10  and  N_11 
REMARK    5  A    between atoms: C_20  and  C_21 
REMARK    6  A    between atoms: C_21  and  N_22 
REMARK    7  A    between atoms: C_26  and  O_27 
REMARK    8  A    between atoms: C_26  and  C_28 
ROOT
HETATM    1  N   UNL     1      -1.515   6.230 -31.027  1.00  0.00    -0.061 N 
HETATM    2  H   UNL     1      -0.965   6.099 -30.170  1.00  0.00     0.280 HD
HETATM    3  C   UNL     1      -1.933   4.837 -31.449  1.00  0.00     0.276 C 
HETATM    4  C   UNL     1      -2.949   4.829 -32.559  1.00  0.00     0.002 A 
HETATM    5  C   UNL     1      -2.578   5.280 -33.826  1.00  0.00     0.076 A 
HETATM    6  O   UNL     1      -1.302   5.720 -34.049  1.00  0.00    -0.349 OA
HETATM    7  C   UNL     1      -1.088   7.004 -33.437  1.00  0.00     0.203 C 
HETATM    8  C   UNL     1      -0.544   6.877 -32.006  1.00  0.00     0.262 C 
HETATM    9  C   UNL     1      -4.290   4.461 -32.344  1.00  0.00     0.020 A 
HETATM   10  C   UNL     1      -5.243   4.542 -33.380  1.00  0.00    -0.032 A 
HETATM   11  C   UNL     1      -4.819   4.951 -34.655  1.00  0.00     0.011 A 
HETATM   12  C   UNL     1      -3.485   5.302 -34.879  1.00  0.00     0.038 A 
ENDROOT
BRANCH  10  13
HETATM   13  C   UNL     1      -6.706   4.299 -33.088  1.00  0.00     0.273 C 
BRANCH  13  14
HETATM   14  N   UNL     1      -7.228   2.906 -33.369  1.00  0.00    -0.067 N 
HETATM   15  H   UNL     1      -8.143   3.010 -33.829  1.00  0.00     0.280 HD
HETATM   16  C   UNL     1      -6.337   2.127 -34.309  1.00  0.00     0.238 C 
HETATM   17  C   UNL     1      -6.915   0.741 -34.532  1.00  0.00     0.071 C 
HETATM   18  C   UNL     1      -7.032  -0.052 -33.215  1.00  0.00     0.089 C 
HETATM   19  C   UNL     1      -7.958   0.763 -32.293  1.00  0.00     0.071 C 
HETATM   20  C   UNL     1      -7.468   2.183 -32.059  1.00  0.00     0.238 C 
BRANCH  18  21
HETATM   21  O   UNL     1      -7.743  -1.251 -33.527  1.00  0.00    -0.385 OA
HETATM   22  H   UNL     1      -7.983  -1.724 -32.707  1.00  0.00     0.211 HD
ENDBRANCH  18  21
BRANCH  18  23
HETATM   23  C   UNL     1      -5.674  -0.439 -32.642  1.00  0.00    -0.006 A 
HETATM   24  C   UNL     1      -5.159   0.084 -31.457  1.00  0.00     0.126 A 
HETATM   25  N   UNL     1      -3.927  -0.178 -30.971  1.00  0.00    -0.272 NA
HETATM   26  C   UNL     1      -3.177  -1.078 -31.635  1.00  0.00     0.116 A 
HETATM   27  C   UNL     1      -3.606  -1.714 -32.783  1.00  0.00     0.020 A 
HETATM   28  C   UNL     1      -4.865  -1.392 -33.285  1.00  0.00     0.013 A 
ENDBRANCH  18  23
ENDBRANCH  13  14
ENDBRANCH  10  13
BRANCH   1  29
HETATM   29  C   UNL     1      -2.698   7.082 -30.637  1.00  0.00     0.274 C 
BRANCH  29  30
HETATM   30  C   UNL     1      -3.143   6.988 -29.210  1.00  0.00    -0.027 A 
HETATM   31  C   UNL     1      -2.228   7.248 -28.180  1.00  0.00     0.045 A 
HETATM   32  C   UNL     1      -2.644   7.322 -26.848  1.00  0.00     0.071 A 
HETATM   33  C   UNL     1      -3.982   7.098 -26.523  1.00  0.00     0.073 A 
HETATM   34  C   UNL     1      -4.906   6.835 -27.536  1.00  0.00     0.071 A 
HETATM   35  C   UNL     1      -4.486   6.784 -28.870  1.00  0.00     0.045 A 
BRANCH  32  36
HETATM   36  O   UNL     1      -1.643   7.629 -25.969  1.00  0.00    -0.356 OA
HETATM   37  C   UNL     1      -1.758   8.867 -25.272  1.00  0.00     0.210 C 
ENDBRANCH  32  36
BRANCH  34  38
HETATM   38  O   UNL     1      -6.246   6.623 -27.370  1.00  0.00    -0.356 OA
HETATM   39  C   UNL     1      -6.848   5.618 -28.182  1.00  0.00     0.210 C 
ENDBRANCH  34  38
ENDBRANCH  29  30
ENDBRANCH   1  29
TORSDOF 8
ENDMDL
MODEL 10
REMARK VINA RESULT:      -8.5      3.137      9.176
REMARK  8 active torsions:
REMARK  status: ('A' for Active; 'I' for Inactive)
REMARK    1  A    between atoms: O_2  and  C_3 
REMARK    2  A    between atoms: C_5  and  O_6 
REMARK    3  A    between atoms: C_9  and  C_10 
REMARK    4  A    between atoms: C_10  and  N_11 
REMARK    5  A    between atoms: C_20  and  C_21 
REMARK    6  A    between atoms: C_21  and  N_22 
REMARK    7  A    between atoms: C_26  and  O_27 
REMARK    8  A    between atoms: C_26  and  C_28 
ROOT
HETATM    1  N   UNL     1      -3.764   1.244 -31.213  1.00  0.00    -0.061 N 
HETATM    2  H   UNL     1      -3.316   1.605 -30.363  1.00  0.00     0.280 HD
HETATM    3  C   UNL     1      -5.206   0.986 -30.825  1.00  0.00     0.276 C 
HETATM    4  C   UNL     1      -6.093   0.674 -32.001  1.00  0.00     0.002 A 
HETATM    5  C   UNL     1      -5.897  -0.514 -32.706  1.00  0.00     0.076 A 
HETATM    6  O   UNL     1      -4.910  -1.380 -32.326  1.00  0.00    -0.349 OA
HETATM    7  C   UNL     1      -3.613  -0.864 -32.671  1.00  0.00     0.203 C 
HETATM    8  C   UNL     1      -3.000  -0.035 -31.532  1.00  0.00     0.262 C 
HETATM    9  C   UNL     1      -7.062   1.580 -32.468  1.00  0.00     0.020 A 
HETATM   10  C   UNL     1      -7.824   1.302 -33.622  1.00  0.00    -0.032 A 
HETATM   11  C   UNL     1      -7.634   0.072 -34.273  1.00  0.00     0.011 A 
HETATM   12  C   UNL     1      -6.685  -0.839 -33.804  1.00  0.00     0.038 A 
ENDROOT
BRANCH  10  13
HETATM   13  C   UNL     1      -8.741   2.355 -34.199  1.00  0.00     0.273 C 
BRANCH  13  14
HETATM   14  N   UNL     1     -10.145   1.909 -34.551  1.00  0.00    -0.067 N 
HETATM   15  H   UNL     1     -10.059   1.127 -35.216  1.00  0.00     0.280 HD
HETATM   16  C   UNL     1     -10.912   1.398 -33.354  1.00  0.00     0.238 C 
HETATM   17  C   UNL     1     -12.309   0.984 -33.779  1.00  0.00     0.071 C 
HETATM   18  C   UNL     1     -13.098   2.160 -34.389  1.00  0.00     0.089 C 
HETATM   19  C   UNL     1     -12.294   2.640 -35.613  1.00  0.00     0.071 C 
HETATM   20  C   UNL     1     -10.865   3.030 -35.272  1.00  0.00     0.238 C 
BRANCH  18  21
HETATM   21  O   UNL     1     -14.310   1.609 -34.906  1.00  0.00    -0.385 OA
HETATM   22  H   UNL     1     -14.975   2.314 -35.028  1.00  0.00     0.211 HD
ENDBRANCH  18  21
BRANCH  18  23
HETATM   23  C   UNL     1     -13.458   3.221 -33.356  1.00  0.00    -0.006 A 
HETATM   24  C   UNL     1     -13.401   4.591 -33.605  1.00  0.00     0.126 A 
HETATM   25  N   UNL     1     -13.634   5.551 -32.685  1.00  0.00    -0.272 NA
HETATM   26  C   UNL     1     -14.037   5.154 -31.462  1.00  0.00     0.116 A 
HETATM   27  C   UNL     1     -14.197   3.827 -31.118  1.00  0.00     0.020 A 
HETATM   28  C   UNL     1     -13.907   2.857 -32.076  1.00  0.00     0.013 A 
ENDBRANCH  18  23
ENDBRANCH  13  14
ENDBRANCH  10  13
BRANCH   1  29
HETATM   29  C   UNL     1      -3.643   2.338 -32.245  1.00  0.00     0.274 C 
BRANCH  29  30
HETATM   30  C   UNL     1      -3.509   3.735 -31.719  1.00  0.00    -0.027 A 
HETATM   31  C   UNL     1      -4.617   4.365 -31.136  1.00  0.00     0.045 A 
HETATM   32  C   UNL     1      -4.490   5.602 -30.498  1.00  0.00     0.071 A 
HETATM   33  C   UNL     1      -3.253   6.245 -30.467  1.00  0.00     0.073 A 
HETATM   34  C   UNL     1      -2.139   5.633 -31.046  1.00  0.00     0.071 A 
HETATM   35  C   UNL     1      -2.270   4.385 -31.664  1.00  0.00     0.045 A 
BRANCH  32  36
HETATM   36  O   UNL     1      -5.651   6.062 -29.940  1.00  0.00    -0.356 OA
HETATM   37  C   UNL     1      -6.103   5.399 -28.762  1.00  0.00     0.210 C 
ENDBRANCH  32  36
BRANCH  34  38
HETATM   38  O   UNL     1      -0.866   6.131 -31.068  1.00  0.00    -0.356 OA
HETATM   39  C   UNL     1       0.196   5.199 -30.881  1.00  0.00     0.210 C 
ENDBRANCH  34  38
ENDBRANCH  29  30
ENDBRANCH   1  29
TORSDOF 8
ENDMDL
