MODEL 1
REMARK VINA RESULT:      -8.3      0.000      0.000
REMARK  5 active torsions:
REMARK  status: ('A' for Active; 'I' for Inactive)
REMARK    1  A    between atoms: O_2  and  C_3 
REMARK    2  A    between atoms: C_4  and  N_5 
REMARK       I    between atoms: N_5  and  C_6 
REMARK    3  A    between atoms: C_6  and  C_7 
REMARK    4  A    between atoms: C_8  and  S_9 
REMARK    5  A    between atoms: S_9  and  C_10 
ROOT
HETATM    1  C   UNL     1      -7.186   1.627 -33.612  1.00  0.00     0.068 A 
HETATM    2  C   UNL     1      -8.293   1.756 -32.779  1.00  0.00     0.113 A 
HETATM    3  N   UNL     1      -8.525   2.896 -32.072  1.00  0.00    -0.253 NA
HETATM    4  C   UNL     1      -7.649   3.915 -32.216  1.00  0.00     0.118 A 
HETATM    5  C   UNL     1      -6.532   3.865 -33.033  1.00  0.00     0.020 A 
HETATM    6  C   UNL     1      -6.296   2.697 -33.746  1.00  0.00     0.021 A 
ENDROOT
BRANCH   1   7
HETATM    7  C   UNL     1      -6.906   0.397 -34.364  1.00  0.00     0.259 C 
HETATM    8  N   UNL     1      -6.345  -0.598 -33.595  1.00  0.00    -0.320 N 
HETATM    9  H   UNL     1      -6.184  -0.414 -32.607  1.00  0.00     0.169 HD
HETATM   10  O   UNL     1      -7.124   0.388 -35.567  1.00  0.00    -0.267 OA
BRANCH   8  11
HETATM   11  C   UNL     1      -5.950  -1.887 -34.010  1.00  0.00     0.071 A 
HETATM   12  C   UNL     1      -4.614  -2.256 -33.761  1.00  0.00     0.095 A 
HETATM   13  C   UNL     1      -4.141  -3.527 -34.093  1.00  0.00     0.042 A 
HETATM   14  C   UNL     1      -4.997  -4.433 -34.716  1.00  0.00     0.045 A 
HETATM   15  C   UNL     1      -6.310  -4.057 -34.987  1.00  0.00     0.118 A 
HETATM   16  C   UNL     1      -6.796  -2.798 -34.639  1.00  0.00     0.074 A 
HETATM   17  F   UNL     1      -7.126  -4.936 -35.586  1.00  0.00    -0.206 F 
BRANCH  12  18
HETATM   18  O   UNL     1      -3.791  -1.348 -33.137  1.00  0.00    -0.354 OA
HETATM   19  C   UNL     1      -3.186  -1.931 -31.981  1.00  0.00     0.210 C 
ENDBRANCH  12  18
ENDBRANCH   8  11
ENDBRANCH   1   7
BRANCH   2  20
HETATM   20  S   UNL     1      -9.506   0.466 -32.566  1.00  0.00    -0.070 SA
BRANCH  20  21
HETATM   21  C   UNL     1     -10.836   1.097 -33.572  1.00  0.00     0.007 A 
HETATM   22  C   UNL     1     -10.656   2.218 -34.387  1.00  0.00     0.019 A 
HETATM   23  C   UNL     1     -11.702   2.689 -35.183  1.00  0.00     0.001 A 
HETATM   24  C   UNL     1     -12.933   2.037 -35.172  1.00  0.00     0.000 A 
HETATM   25  C   UNL     1     -13.119   0.913 -34.368  1.00  0.00     0.001 A 
HETATM   26  C   UNL     1     -12.071   0.441 -33.574  1.00  0.00     0.019 A 
ENDBRANCH  20  21
ENDBRANCH   2  20
TORSDOF 5
ENDMDL
MODEL 2
REMARK VINA RESULT:      -8.3      2.347      6.522
REMARK  5 active torsions:
REMARK  status: ('A' for Active; 'I' for Inactive)
REMARK    1  A    between atoms: O_2  and  C_3 
REMARK    2  A    between atoms: C_4  and  N_5 
REMARK       I    between atoms: N_5  and  C_6 
REMARK    3  A    between atoms: C_6  and  C_7 
REMARK    4  A    between atoms: C_8  and  S_9 
REMARK    5  A    between atoms: S_9  and  C_10 
ROOT
HETATM    1  C   UNL     1      -6.859   2.253 -33.636  1.00  0.00     0.068 A 
HETATM    2  C   UNL     1      -6.189   1.588 -32.613  1.00  0.00     0.113 A 
HETATM    3  N   UNL     1      -5.032   2.072 -32.085  1.00  0.00    -0.253 NA
HETATM    4  C   UNL     1      -4.555   3.238 -32.577  1.00  0.00     0.118 A 
HETATM    5  C   UNL     1      -5.171   3.961 -33.585  1.00  0.00     0.020 A 
HETATM    6  C   UNL     1      -6.348   3.458 -34.125  1.00  0.00     0.021 A 
ENDROOT
BRANCH   1   7
HETATM    7  C   UNL     1      -8.095   1.732 -34.235  1.00  0.00     0.259 C 
HETATM    8  N   UNL     1      -9.235   2.165 -33.596  1.00  0.00    -0.320 N 
HETATM    9  H   UNL     1      -9.138   2.792 -32.801  1.00  0.00     0.169 HD
HETATM   10  O   UNL     1      -8.004   0.942 -35.163  1.00  0.00    -0.267 OA
BRANCH   8  11
HETATM   11  C   UNL     1     -10.573   1.844 -33.911  1.00  0.00     0.071 A 
HETATM   12  C   UNL     1     -11.254   2.722 -34.775  1.00  0.00     0.095 A 
HETATM   13  C   UNL     1     -12.565   2.465 -35.182  1.00  0.00     0.042 A 
HETATM   14  C   UNL     1     -13.223   1.339 -34.692  1.00  0.00     0.045 A 
HETATM   15  C   UNL     1     -12.558   0.486 -33.815  1.00  0.00     0.118 A 
HETATM   16  C   UNL     1     -11.242   0.724 -33.422  1.00  0.00     0.074 A 
HETATM   17  F   UNL     1     -13.200  -0.595 -33.350  1.00  0.00    -0.206 F 
BRANCH  12  18
HETATM   18  O   UNL     1     -10.580   3.821 -35.252  1.00  0.00    -0.354 OA
HETATM   19  C   UNL     1     -11.361   5.006 -35.074  1.00  0.00     0.210 C 
ENDBRANCH  12  18
ENDBRANCH   8  11
ENDBRANCH   1   7
BRANCH   2  20
HETATM   20  S   UNL     1      -6.776   0.064 -31.896  1.00  0.00    -0.070 SA
BRANCH  20  21
HETATM   21  C   UNL     1      -6.128  -1.119 -33.061  1.00  0.00     0.007 A 
HETATM   22  C   UNL     1      -4.755  -1.368 -33.150  1.00  0.00     0.019 A 
HETATM   23  C   UNL     1      -4.265  -2.310 -34.055  1.00  0.00     0.001 A 
HETATM   24  C   UNL     1      -5.146  -3.014 -34.874  1.00  0.00     0.000 A 
HETATM   25  C   UNL     1      -6.517  -2.777 -34.787  1.00  0.00     0.001 A 
HETATM   26  C   UNL     1      -7.007  -1.836 -33.878  1.00  0.00     0.019 A 
ENDBRANCH  20  21
ENDBRANCH   2  20
TORSDOF 5
ENDMDL
MODEL 3
REMARK VINA RESULT:      -8.1      2.661      4.677
REMARK  5 active torsions:
REMARK  status: ('A' for Active; 'I' for Inactive)
REMARK    1  A    between atoms: O_2  and  C_3 
REMARK    2  A    between atoms: C_4  and  N_5 
REMARK       I    between atoms: N_5  and  C_6 
REMARK    3  A    between atoms: C_6  and  C_7 
REMARK    4  A    between atoms: C_8  and  S_9 
REMARK    5  A    between atoms: S_9  and  C_10 
ROOT
HETATM    1  C   UNL     1      -7.050   1.711 -32.158  1.00  0.00     0.068 A 
HETATM    2  C   UNL     1      -6.116   2.388 -31.381  1.00  0.00     0.113 A 
HETATM    3  N   UNL     1      -6.494   3.278 -30.423  1.00  0.00    -0.253 NA
HETATM    4  C   UNL     1      -7.819   3.474 -30.235  1.00  0.00     0.118 A 
HETATM    5  C   UNL     1      -8.807   2.830 -30.960  1.00  0.00     0.020 A 
HETATM    6  C   UNL     1      -8.414   1.929 -31.942  1.00  0.00     0.021 A 
ENDROOT
BRANCH   1   7
HETATM    7  C   UNL     1      -6.660   0.766 -33.213  1.00  0.00     0.259 C 
HETATM    8  N   UNL     1      -6.442  -0.511 -32.749  1.00  0.00    -0.320 N 
HETATM    9  H   UNL     1      -6.572  -0.696 -31.757  1.00  0.00     0.169 HD
HETATM   10  O   UNL     1      -6.503   1.193 -34.348  1.00  0.00    -0.267 OA
BRANCH   8  11
HETATM   11  C   UNL     1      -6.048  -1.643 -33.494  1.00  0.00     0.071 A 
HETATM   12  C   UNL     1      -4.680  -1.977 -33.474  1.00  0.00     0.095 A 
HETATM   13  C   UNL     1      -4.201  -3.105 -34.142  1.00  0.00     0.042 A 
HETATM   14  C   UNL     1      -5.088  -3.892 -34.874  1.00  0.00     0.045 A 
HETATM   15  C   UNL     1      -6.435  -3.546 -34.917  1.00  0.00     0.118 A 
HETATM   16  C   UNL     1      -6.925  -2.433 -34.235  1.00  0.00     0.074 A 
HETATM   17  F   UNL     1      -7.280  -4.309 -35.624  1.00  0.00    -0.206 F 
BRANCH  12  18
HETATM   18  O   UNL     1      -3.827  -1.190 -32.737  1.00  0.00    -0.354 OA
HETATM   19  C   UNL     1      -3.002  -1.996 -31.893  1.00  0.00     0.210 C 
ENDBRANCH  12  18
ENDBRANCH   8  11
ENDBRANCH   1   7
BRANCH   2  20
HETATM   20  S   UNL     1      -4.356   2.155 -31.553  1.00  0.00    -0.070 SA
BRANCH  20  21
HETATM   21  C   UNL     1      -3.966   3.443 -32.721  1.00  0.00     0.007 A 
HETATM   22  C   UNL     1      -2.643   3.831 -32.955  1.00  0.00     0.019 A 
HETATM   23  C   UNL     1      -2.353   4.829 -33.887  1.00  0.00     0.001 A 
HETATM   24  C   UNL     1      -3.385   5.442 -34.594  1.00  0.00     0.000 A 
HETATM   25  C   UNL     1      -4.707   5.057 -34.373  1.00  0.00     0.001 A 
HETATM   26  C   UNL     1      -4.996   4.056 -33.442  1.00  0.00     0.019 A 
ENDBRANCH  20  21
ENDBRANCH   2  20
TORSDOF 5
ENDMDL
MODEL 4
REMARK VINA RESULT:      -7.9      2.313      2.903
REMARK  5 active torsions:
REMARK  status: ('A' for Active; 'I' for Inactive)
REMARK    1  A    between atoms: O_2  and  C_3 
REMARK    2  A    between atoms: C_4  and  N_5 
REMARK       I    between atoms: N_5  and  C_6 
REMARK    3  A    between atoms: C_6  and  C_7 
REMARK    4  A    between atoms: C_8  and  S_9 
REMARK    5  A    between atoms: S_9  and  C_10 
ROOT
HETATM    1  C   UNL     1      -4.994   1.139 -32.587  1.00  0.00     0.068 A 
HETATM    2  C   UNL     1      -5.807   2.126 -33.135  1.00  0.00     0.113 A 
HETATM    3  N   UNL     1      -5.471   3.443 -33.072  1.00  0.00    -0.253 NA
HETATM    4  C   UNL     1      -4.305   3.768 -32.470  1.00  0.00     0.118 A 
HETATM    5  C   UNL     1      -3.440   2.842 -31.912  1.00  0.00     0.020 A 
HETATM    6  C   UNL     1      -3.791   1.499 -31.973  1.00  0.00     0.021 A 
ENDROOT
BRANCH   1   7
HETATM    7  C   UNL     1      -5.352  -0.285 -32.624  1.00  0.00     0.259 C 
HETATM    8  N   UNL     1      -4.849  -0.947 -33.721  1.00  0.00    -0.320 N 
HETATM    9  H   UNL     1      -4.284  -0.424 -34.386  1.00  0.00     0.169 HD
HETATM   10  O   UNL     1      -6.090  -0.722 -31.753  1.00  0.00    -0.267 OA
BRANCH   8  11
HETATM   11  C   UNL     1      -5.016  -2.307 -34.058  1.00  0.00     0.071 A 
HETATM   12  C   UNL     1      -4.098  -3.220 -33.506  1.00  0.00     0.095 A 
HETATM   13  C   UNL     1      -4.209  -4.592 -33.743  1.00  0.00     0.042 A 
HETATM   14  C   UNL     1      -5.225  -5.060 -34.573  1.00  0.00     0.045 A 
HETATM   15  C   UNL     1      -6.116  -4.154 -35.141  1.00  0.00     0.118 A 
HETATM   16  C   UNL     1      -6.025  -2.786 -34.892  1.00  0.00     0.074 A 
HETATM   17  F   UNL     1      -7.091  -4.615 -35.938  1.00  0.00    -0.206 F 
BRANCH  12  18
HETATM   18  O   UNL     1      -3.109  -2.734 -32.683  1.00  0.00    -0.354 OA
HETATM   19  C   UNL     1      -2.867  -3.636 -31.601  1.00  0.00     0.210 C 
ENDBRANCH  12  18
ENDBRANCH   8  11
ENDBRANCH   1   7
BRANCH   2  20
HETATM   20  S   UNL     1      -7.342   1.769 -33.972  1.00  0.00    -0.070 SA
BRANCH  20  21
HETATM   21  C   UNL     1      -8.507   2.523 -32.854  1.00  0.00     0.007 A 
HETATM   22  C   UNL     1      -8.406   2.339 -31.471  1.00  0.00     0.019 A 
HETATM   23  C   UNL     1      -9.316   2.951 -30.609  1.00  0.00     0.001 A 
HETATM   24  C   UNL     1     -10.331   3.756 -31.123  1.00  0.00     0.000 A 
HETATM   25  C   UNL     1     -10.435   3.951 -32.500  1.00  0.00     0.001 A 
HETATM   26  C   UNL     1      -9.522   3.340 -33.363  1.00  0.00     0.019 A 
ENDBRANCH  20  21
ENDBRANCH   2  20
TORSDOF 5
ENDMDL
MODEL 5
REMARK VINA RESULT:      -7.9      4.411      7.348
REMARK  5 active torsions:
REMARK  status: ('A' for Active; 'I' for Inactive)
REMARK    1  A    between atoms: O_2  and  C_3 
REMARK    2  A    between atoms: C_4  and  N_5 
REMARK       I    between atoms: N_5  and  C_6 
REMARK    3  A    between atoms: C_6  and  C_7 
REMARK    4  A    between atoms: C_8  and  S_9 
REMARK    5  A    between atoms: S_9  and  C_10 
ROOT
HETATM    1  C   UNL     1      -5.585   2.073 -31.667  1.00  0.00     0.068 A 
HETATM    2  C   UNL     1      -6.122   0.942 -32.272  1.00  0.00     0.113 A 
HETATM    3  N   UNL     1      -6.542  -0.127 -31.542  1.00  0.00    -0.253 NA
HETATM    4  C   UNL     1      -6.437  -0.050 -30.196  1.00  0.00     0.118 A 
HETATM    5  C   UNL     1      -5.923   1.045 -29.522  1.00  0.00     0.020 A 
HETATM    6  C   UNL     1      -5.489   2.130 -30.273  1.00  0.00     0.021 A 
ENDROOT
BRANCH   1   7
HETATM    7  C   UNL     1      -5.104   3.226 -32.440  1.00  0.00     0.259 C 
HETATM    8  N   UNL     1      -3.784   3.535 -32.198  1.00  0.00    -0.320 N 
HETATM    9  H   UNL     1      -3.265   2.959 -31.539  1.00  0.00     0.169 HD
HETATM   10  O   UNL     1      -5.901   3.825 -33.147  1.00  0.00    -0.267 OA
BRANCH   8  11
HETATM   11  C   UNL     1      -3.027   4.581 -32.764  1.00  0.00     0.071 A 
HETATM   12  C   UNL     1      -3.117   5.842 -32.146  1.00  0.00     0.095 A 
HETATM   13  C   UNL     1      -2.369   6.929 -32.605  1.00  0.00     0.042 A 
HETATM   14  C   UNL     1      -1.549   6.770 -33.720  1.00  0.00     0.045 A 
HETATM   15  C   UNL     1      -1.481   5.530 -34.348  1.00  0.00     0.118 A 
HETATM   16  C   UNL     1      -2.208   4.435 -33.883  1.00  0.00     0.074 A 
HETATM   17  F   UNL     1      -0.689   5.387 -35.419  1.00  0.00    -0.206 F 
BRANCH  12  18
HETATM   18  O   UNL     1      -3.927   5.972 -31.042  1.00  0.00    -0.354 OA
HETATM   19  C   UNL     1      -4.951   6.941 -31.280  1.00  0.00     0.210 C 
ENDBRANCH  12  18
ENDBRANCH   8  11
ENDBRANCH   1   7
BRANCH   2  20
HETATM   20  S   UNL     1      -6.320   0.784 -34.038  1.00  0.00    -0.070 SA
BRANCH  20  21
HETATM   21  C   UNL     1      -5.940  -0.943 -34.258  1.00  0.00     0.007 A 
HETATM   22  C   UNL     1      -4.656  -1.437 -34.008  1.00  0.00     0.019 A 
HETATM   23  C   UNL     1      -4.379  -2.796 -34.168  1.00  0.00     0.001 A 
HETATM   24  C   UNL     1      -5.386  -3.670 -34.574  1.00  0.00     0.000 A 
HETATM   25  C   UNL     1      -6.671  -3.186 -34.818  1.00  0.00     0.001 A 
HETATM   26  C   UNL     1      -6.948  -1.827 -34.655  1.00  0.00     0.019 A 
ENDBRANCH  20  21
ENDBRANCH   2  20
TORSDOF 5
ENDMDL
MODEL 6
REMARK VINA RESULT:      -7.9      2.875      7.036
REMARK  5 active torsions:
REMARK  status: ('A' for Active; 'I' for Inactive)
REMARK    1  A    between atoms: O_2  and  C_3 
REMARK    2  A    between atoms: C_4  and  N_5 
REMARK       I    between atoms: N_5  and  C_6 
REMARK    3  A    between atoms: C_6  and  C_7 
REMARK    4  A    between atoms: C_8  and  S_9 
REMARK    5  A    between atoms: S_9  and  C_10 
ROOT
HETATM    1  C   UNL     1      -7.534   0.318 -32.241  1.00  0.00     0.068 A 
HETATM    2  C   UNL     1      -6.416  -0.074 -32.970  1.00  0.00     0.113 A 
HETATM    3  N   UNL     1      -5.182  -0.143 -32.400  1.00  0.00    -0.253 NA
HETATM    4  C   UNL     1      -5.075   0.169 -31.089  1.00  0.00     0.118 A 
HETATM    5  C   UNL     1      -6.144   0.557 -30.297  1.00  0.00     0.020 A 
HETATM    6  C   UNL     1      -7.400   0.633 -30.886  1.00  0.00     0.021 A 
ENDROOT
BRANCH   1   7
HETATM    7  C   UNL     1      -8.870   0.422 -32.846  1.00  0.00     0.259 C 
HETATM    8  N   UNL     1      -9.130   1.661 -33.386  1.00  0.00    -0.320 N 
HETATM    9  H   UNL     1      -8.406   2.373 -33.336  1.00  0.00     0.169 HD
HETATM   10  O   UNL     1      -9.623  -0.537 -32.758  1.00  0.00    -0.267 OA
BRANCH   8  11
HETATM   11  C   UNL     1     -10.312   2.089 -34.025  1.00  0.00     0.071 A 
HETATM   12  C   UNL     1     -10.326   3.404 -34.528  1.00  0.00     0.095 A 
HETATM   13  C   UNL     1     -11.432   3.905 -35.218  1.00  0.00     0.042 A 
HETATM   14  C   UNL     1     -12.558   3.099 -35.377  1.00  0.00     0.045 A 
HETATM   15  C   UNL     1     -12.555   1.809 -34.855  1.00  0.00     0.118 A 
HETATM   16  C   UNL     1     -11.446   1.295 -34.184  1.00  0.00     0.074 A 
HETATM   17  F   UNL     1     -13.643   1.042 -35.013  1.00  0.00    -0.206 F 
BRANCH  12  18
HETATM   18  O   UNL     1      -9.199   4.176 -34.367  1.00  0.00    -0.354 OA
HETATM   19  C   UNL     1      -9.491   5.552 -34.623  1.00  0.00     0.210 C 
ENDBRANCH  12  18
ENDBRANCH   8  11
ENDBRANCH   1   7
BRANCH   2  20
HETATM   20  S   UNL     1      -6.487  -0.530 -34.692  1.00  0.00    -0.070 SA
BRANCH  20  21
HETATM   21  C   UNL     1      -5.914  -2.216 -34.610  1.00  0.00     0.007 A 
HETATM   22  C   UNL     1      -4.585  -2.512 -34.290  1.00  0.00     0.019 A 
HETATM   23  C   UNL     1      -4.156  -3.838 -34.212  1.00  0.00     0.001 A 
HETATM   24  C   UNL     1      -5.055  -4.876 -34.448  1.00  0.00     0.000 A 
HETATM   25  C   UNL     1      -6.384  -4.590 -34.760  1.00  0.00     0.001 A 
HETATM   26  C   UNL     1      -6.813  -3.262 -34.835  1.00  0.00     0.019 A 
ENDBRANCH  20  21
ENDBRANCH   2  20
TORSDOF 5
ENDMDL
MODEL 7
REMARK VINA RESULT:      -7.7     13.910     15.180
REMARK  5 active torsions:
REMARK  status: ('A' for Active; 'I' for Inactive)
REMARK    1  A    between atoms: O_2  and  C_3 
REMARK    2  A    between atoms: C_4  and  N_5 
REMARK       I    between atoms: N_5  and  C_6 
REMARK    3  A    between atoms: C_6  and  C_7 
REMARK    4  A    between atoms: C_8  and  S_9 
REMARK    5  A    between atoms: S_9  and  C_10 
ROOT
HETATM    1  C   UNL     1      -5.007 -13.497 -36.175  1.00  0.00     0.068 A 
HETATM    2  C   UNL     1      -6.077 -14.354 -36.410  1.00  0.00     0.113 A 
HETATM    3  N   UNL     1      -6.998 -14.625 -35.446  1.00  0.00    -0.253 NA
HETATM    4  C   UNL     1      -6.851 -14.020 -34.246  1.00  0.00     0.118 A 
HETATM    5  C   UNL     1      -5.820 -13.148 -33.942  1.00  0.00     0.020 A 
HETATM    6  C   UNL     1      -4.878 -12.880 -34.927  1.00  0.00     0.021 A 
ENDROOT
BRANCH   1   7
HETATM    7  C   UNL     1      -3.989 -13.211 -37.196  1.00  0.00     0.259 C 
HETATM    8  N   UNL     1      -3.131 -14.263 -37.422  1.00  0.00    -0.320 N 
HETATM    9  H   UNL     1      -3.269 -15.123 -36.895  1.00  0.00     0.169 HD
HETATM   10  O   UNL     1      -3.953 -12.090 -37.683  1.00  0.00    -0.267 OA
BRANCH   8  11
HETATM   11  C   UNL     1      -2.047 -14.312 -38.322  1.00  0.00     0.071 A 
HETATM   12  C   UNL     1      -2.354 -14.498 -39.683  1.00  0.00     0.095 A 
HETATM   13  C   UNL     1      -1.352 -14.513 -40.656  1.00  0.00     0.042 A 
HETATM   14  C   UNL     1      -0.021 -14.379 -40.266  1.00  0.00     0.045 A 
HETATM   15  C   UNL     1       0.284 -14.223 -38.917  1.00  0.00     0.118 A 
HETATM   16  C   UNL     1      -0.711 -14.185 -37.943  1.00  0.00     0.074 A 
HETATM   17  F   UNL     1       1.568 -14.094 -38.553  1.00  0.00    -0.206 F 
BRANCH  12  18
HETATM   18  O   UNL     1      -3.675 -14.619 -40.043  1.00  0.00    -0.354 OA
HETATM   19  C   UNL     1      -3.902 -14.035 -41.328  1.00  0.00     0.210 C 
ENDBRANCH  12  18
ENDBRANCH   8  11
ENDBRANCH   1   7
BRANCH   2  20
HETATM   20  S   UNL     1      -6.352 -15.162 -37.976  1.00  0.00    -0.070 SA
BRANCH  20  21
HETATM   21  C   UNL     1      -7.485 -14.019 -38.741  1.00  0.00     0.007 A 
HETATM   22  C   UNL     1      -7.035 -13.047 -39.640  1.00  0.00     0.019 A 
HETATM   23  C   UNL     1      -7.938 -12.171 -40.244  1.00  0.00     0.001 A 
HETATM   24  C   UNL     1      -9.298 -12.265 -39.957  1.00  0.00     0.000 A 
HETATM   25  C   UNL     1      -9.757 -13.236 -39.068  1.00  0.00     0.001 A 
HETATM   26  C   UNL     1      -8.853 -14.115 -38.465  1.00  0.00     0.019 A 
ENDBRANCH  20  21
ENDBRANCH   2  20
TORSDOF 5
ENDMDL
MODEL 8
REMARK VINA RESULT:      -7.6      7.254     10.119
REMARK  5 active torsions:
REMARK  status: ('A' for Active; 'I' for Inactive)
REMARK    1  A    between atoms: O_2  and  C_3 
REMARK    2  A    between atoms: C_4  and  N_5 
REMARK       I    between atoms: N_5  and  C_6 
REMARK    3  A    between atoms: C_6  and  C_7 
REMARK    4  A    between atoms: C_8  and  S_9 
REMARK    5  A    between atoms: S_9  and  C_10 
ROOT
HETATM    1  C   UNL     1      -1.983   5.311 -32.440  1.00  0.00     0.068 A 
HETATM    2  C   UNL     1      -3.333   4.994 -32.555  1.00  0.00     0.113 A 
HETATM    3  N   UNL     1      -3.932   4.853 -33.769  1.00  0.00    -0.253 NA
HETATM    4  C   UNL     1      -3.166   5.016 -34.871  1.00  0.00     0.118 A 
HETATM    5  C   UNL     1      -1.816   5.322 -34.836  1.00  0.00     0.020 A 
HETATM    6  C   UNL     1      -1.212   5.472 -33.594  1.00  0.00     0.021 A 
ENDROOT
BRANCH   1   7
HETATM    7  C   UNL     1      -1.326   5.491 -31.139  1.00  0.00     0.259 C 
HETATM    8  N   UNL     1      -1.448   6.767 -30.636  1.00  0.00    -0.320 N 
HETATM    9  H   UNL     1      -1.971   7.452 -31.176  1.00  0.00     0.169 HD
HETATM   10  O   UNL     1      -0.697   4.553 -30.670  1.00  0.00    -0.267 OA
BRANCH   8  11
HETATM   11  C   UNL     1      -0.928   7.269 -29.425  1.00  0.00     0.071 A 
HETATM   12  C   UNL     1      -1.813   7.346 -28.332  1.00  0.00     0.095 A 
HETATM   13  C   UNL     1      -1.380   7.785 -27.079  1.00  0.00     0.042 A 
HETATM   14  C   UNL     1      -0.057   8.191 -26.919  1.00  0.00     0.045 A 
HETATM   15  C   UNL     1       0.811   8.142 -28.007  1.00  0.00     0.118 A 
HETATM   16  C   UNL     1       0.392   7.684 -29.255  1.00  0.00     0.074 A 
HETATM   17  F   UNL     1       2.082   8.534 -27.842  1.00  0.00    -0.206 F 
BRANCH  12  18
HETATM   18  O   UNL     1      -3.111   6.931 -28.514  1.00  0.00    -0.354 OA
HETATM   19  C   UNL     1      -4.020   8.013 -28.296  1.00  0.00     0.210 C 
ENDBRANCH  12  18
ENDBRANCH   8  11
ENDBRANCH   1   7
BRANCH   2  20
HETATM   20  S   UNL     1      -4.395   4.733 -31.146  1.00  0.00    -0.070 SA
BRANCH  20  21
HETATM   21  C   UNL     1      -4.467   2.953 -31.114  1.00  0.00     0.007 A 
HETATM   22  C   UNL     1      -5.674   2.283 -30.887  1.00  0.00     0.019 A 
HETATM   23  C   UNL     1      -5.717   0.887 -30.883  1.00  0.00     0.001 A 
HETATM   24  C   UNL     1      -4.555   0.154 -31.113  1.00  0.00     0.000 A 
HETATM   25  C   UNL     1      -3.349   0.814 -31.348  1.00  0.00     0.001 A 
HETATM   26  C   UNL     1      -3.307   2.210 -31.354  1.00  0.00     0.019 A 
ENDBRANCH  20  21
ENDBRANCH   2  20
TORSDOF 5
ENDMDL
MODEL 9
REMARK VINA RESULT:      -7.6      1.727      4.111
REMARK  5 active torsions:
REMARK  status: ('A' for Active; 'I' for Inactive)
REMARK    1  A    between atoms: O_2  and  C_3 
REMARK    2  A    between atoms: C_4  and  N_5 
REMARK       I    between atoms: N_5  and  C_6 
REMARK    3  A    between atoms: C_6  and  C_7 
REMARK    4  A    between atoms: C_8  and  S_9 
REMARK    5  A    between atoms: S_9  and  C_10 
ROOT
HETATM    1  C   UNL     1      -8.670   1.242 -34.083  1.00  0.00     0.068 A 
HETATM    2  C   UNL     1      -8.305   2.543 -33.754  1.00  0.00     0.113 A 
HETATM    3  N   UNL     1      -9.202   3.427 -33.238  1.00  0.00    -0.253 NA
HETATM    4  C   UNL     1     -10.467   2.995 -33.036  1.00  0.00     0.118 A 
HETATM    5  C   UNL     1     -10.902   1.713 -33.329  1.00  0.00     0.020 A 
HETATM    6  C   UNL     1      -9.984   0.817 -33.863  1.00  0.00     0.021 A 
ENDROOT
BRANCH   1   7
HETATM    7  C   UNL     1      -7.722   0.282 -34.665  1.00  0.00     0.259 C 
HETATM    8  N   UNL     1      -7.340  -0.708 -33.789  1.00  0.00    -0.320 N 
HETATM    9  H   UNL     1      -7.735  -0.704 -32.851  1.00  0.00     0.169 HD
HETATM   10  O   UNL     1      -7.321   0.478 -35.803  1.00  0.00    -0.267 OA
BRANCH   8  11
HETATM   11  C   UNL     1      -6.442  -1.769 -34.027  1.00  0.00     0.071 A 
HETATM   12  C   UNL     1      -5.146  -1.642 -33.490  1.00  0.00     0.095 A 
HETATM   13  C   UNL     1      -4.200  -2.660 -33.632  1.00  0.00     0.042 A 
HETATM   14  C   UNL     1      -4.534  -3.805 -34.352  1.00  0.00     0.045 A 
HETATM   15  C   UNL     1      -5.806  -3.918 -34.907  1.00  0.00     0.118 A 
HETATM   16  C   UNL     1      -6.763  -2.916 -34.750  1.00  0.00     0.074 A 
HETATM   17  F   UNL     1      -6.117  -5.024 -35.597  1.00  0.00    -0.206 F 
BRANCH  12  18
HETATM   18  O   UNL     1      -4.845  -0.506 -32.776  1.00  0.00    -0.354 OA
HETATM   19  C   UNL     1      -3.457  -0.185 -32.905  1.00  0.00     0.210 C 
ENDBRANCH  12  18
ENDBRANCH   8  11
ENDBRANCH   1   7
BRANCH   2  20
HETATM   20  S   UNL     1      -6.649   3.172 -33.963  1.00  0.00    -0.070 SA
BRANCH  20  21
HETATM   21  C   UNL     1      -6.229   3.558 -32.275  1.00  0.00     0.007 A 
HETATM   22  C   UNL     1      -5.947   4.871 -31.883  1.00  0.00     0.019 A 
HETATM   23  C   UNL     1      -5.637   5.160 -30.553  1.00  0.00     0.001 A 
HETATM   24  C   UNL     1      -5.614   4.139 -29.605  1.00  0.00     0.000 A 
HETATM   25  C   UNL     1      -5.902   2.828 -29.986  1.00  0.00     0.001 A 
HETATM   26  C   UNL     1      -6.215   2.540 -31.316  1.00  0.00     0.019 A 
ENDBRANCH  20  21
ENDBRANCH   2  20
TORSDOF 5
ENDMDL
MODEL 10
REMARK VINA RESULT:      -7.6      3.146      6.969
REMARK  5 active torsions:
REMARK  status: ('A' for Active; 'I' for Inactive)
REMARK    1  A    between atoms: O_2  and  C_3 
REMARK    2  A    between atoms: C_4  and  N_5 
REMARK       I    between atoms: N_5  and  C_6 
REMARK    3  A    between atoms: C_6  and  C_7 
REMARK    4  A    between atoms: C_8  and  S_9 
REMARK    5  A    between atoms: S_9  and  C_10 
ROOT
HETATM    1  C   UNL     1      -5.462   0.641 -33.043  1.00  0.00     0.068 A 
HETATM    2  C   UNL     1      -4.590   1.329 -32.206  1.00  0.00     0.113 A 
HETATM    3  N   UNL     1      -3.447   0.756 -31.741  1.00  0.00    -0.253 NA
HETATM    4  C   UNL     1      -3.171  -0.508 -32.133  1.00  0.00     0.118 A 
HETATM    5  C   UNL     1      -3.985  -1.251 -32.972  1.00  0.00     0.020 A 
HETATM    6  C   UNL     1      -5.154  -0.664 -33.438  1.00  0.00     0.021 A 
ENDROOT
BRANCH   1   7
HETATM    7  C   UNL     1      -6.713   1.234 -33.535  1.00  0.00     0.259 C 
HETATM    8  N   UNL     1      -7.778   1.049 -32.683  1.00  0.00    -0.320 N 
HETATM    9  H   UNL     1      -7.621   0.546 -31.812  1.00  0.00     0.169 HD
HETATM   10  O   UNL     1      -6.714   1.757 -34.640  1.00  0.00    -0.267 OA
BRANCH   8  11
HETATM   11  C   UNL     1      -9.109   1.481 -32.862  1.00  0.00     0.071 A 
HETATM   12  C   UNL     1      -9.433   2.766 -32.387  1.00  0.00     0.095 A 
HETATM   13  C   UNL     1     -10.712   3.300 -32.559  1.00  0.00     0.042 A 
HETATM   14  C   UNL     1     -11.695   2.530 -33.178  1.00  0.00     0.045 A 
HETATM   15  C   UNL     1     -11.382   1.249 -33.622  1.00  0.00     0.118 A 
HETATM   16  C   UNL     1     -10.102   0.717 -33.473  1.00  0.00     0.074 A 
HETATM   17  F   UNL     1     -12.335   0.517 -34.215  1.00  0.00    -0.206 F 
BRANCH  12  18
HETATM   18  O   UNL     1      -8.443   3.509 -31.788  1.00  0.00    -0.354 OA
HETATM   19  C   UNL     1      -8.267   4.753 -32.470  1.00  0.00     0.210 C 
ENDBRANCH  12  18
ENDBRANCH   8  11
ENDBRANCH   1   7
BRANCH   2  20
HETATM   20  S   UNL     1      -4.873   3.008 -31.674  1.00  0.00    -0.070 SA
BRANCH  20  21
HETATM   21  C   UNL     1      -3.998   3.905 -32.941  1.00  0.00     0.007 A 
HETATM   22  C   UNL     1      -4.683   4.535 -33.985  1.00  0.00     0.019 A 
HETATM   23  C   UNL     1      -3.984   5.249 -34.959  1.00  0.00     0.001 A 
HETATM   24  C   UNL     1      -2.595   5.342 -34.893  1.00  0.00     0.000 A 
HETATM   25  C   UNL     1      -1.904   4.723 -33.851  1.00  0.00     0.001 A 
HETATM   26  C   UNL     1      -2.605   4.011 -32.875  1.00  0.00     0.019 A 
ENDBRANCH  20  21
ENDBRANCH   2  20
TORSDOF 5
ENDMDL
