MODEL 1
REMARK VINA RESULT:      -9.1      0.000      0.000
REMARK  5 active torsions:
REMARK  status: ('A' for Active; 'I' for Inactive)
REMARK    1  A    between atoms: C_3  and  C_4 
REMARK    2  A    between atoms: C_4  and  N_5 
REMARK    3  A    between atoms: C_9  and  C_10 
REMARK    4  A    between atoms: C_13  and  C_14 
REMARK    5  A    between atoms: C_14  and  N_15 
ROOT
HETATM    1  N   UNL     1      -4.965  -0.340 -32.597  1.00  0.00    -0.067 N 
HETATM    2  H   UNL     1      -5.729  -0.970 -32.322  1.00  0.00     0.280 HD
HETATM    3  C   UNL     1      -4.060  -0.177 -31.399  1.00  0.00     0.236 C 
HETATM    4  C   UNL     1      -4.765   0.590 -30.285  1.00  0.00     0.040 C 
HETATM    5  C   UNL     1      -5.323   1.941 -30.742  1.00  0.00     0.060 C 
HETATM    6  C   UNL     1      -6.227   1.729 -31.963  1.00  0.00     0.040 C 
HETATM    7  C   UNL     1      -5.562   0.952 -33.093  1.00  0.00     0.236 C 
ENDROOT
BRANCH   5   8
HETATM    8  C   UNL     1      -4.215   2.917 -31.029  1.00  0.00     0.134 A 
HETATM    9  N   UNL     1      -4.302   4.292 -31.009  1.00  0.00    -0.323 N 
HETATM   10  C   UNL     1      -5.472   5.079 -30.705  1.00  0.00     0.159 C 
HETATM   11  C   UNL     1      -3.046   4.751 -31.332  1.00  0.00     0.155 A 
HETATM   12  N   UNL     1      -2.247   3.718 -31.503  1.00  0.00    -0.133 NA
HETATM   13  N   UNL     1      -2.975   2.582 -31.321  1.00  0.00    -0.134 NA
BRANCH  11  14
HETATM   14  C   UNL     1      -2.615   6.173 -31.471  1.00  0.00     0.315 C 
BRANCH  14  15
HETATM   15  N   UNL     1      -1.742   6.593 -30.301  1.00  0.00    -0.064 N 
HETATM   16  H   UNL     1      -1.704   5.754 -29.699  1.00  0.00     0.280 HD
HETATM   17  C   UNL     1      -0.316   6.877 -30.713  1.00  0.00     0.235 C 
HETATM   18  C   UNL     1       0.537   7.088 -29.471  1.00  0.00     0.028 C 
HETATM   19  C   UNL     1      -0.026   8.196 -28.588  1.00  0.00     0.003 C 
HETATM   20  C   UNL     1      -1.488   7.940 -28.242  1.00  0.00     0.028 C 
HETATM   21  C   UNL     1      -2.335   7.712 -29.487  1.00  0.00     0.235 C 
ENDBRANCH  14  15
ENDBRANCH  11  14
ENDBRANCH   5   8
BRANCH   1  22
HETATM   22  C   UNL     1      -4.249  -1.040 -33.750  1.00  0.00     0.273 C 
BRANCH  22  23
HETATM   23  C   UNL     1      -4.867  -2.353 -34.152  1.00  0.00    -0.027 A 
HETATM   24  C   UNL     1      -6.158  -2.456 -34.711  1.00  0.00    -0.054 A 
HETATM   25  C   UNL     1      -7.050  -1.278 -35.001  1.00  0.00     0.049 C 
HETATM   26  C   UNL     1      -6.671  -3.732 -35.006  1.00  0.00     0.007 A 
HETATM   27  C   UNL     1      -5.921  -4.883 -34.777  1.00  0.00     0.001 A 
HETATM   28  C   UNL     1      -4.643  -4.784 -34.246  1.00  0.00     0.001 A 
HETATM   29  C   UNL     1      -4.119  -3.530 -33.936  1.00  0.00     0.009 A 
ENDBRANCH  22  23
ENDBRANCH   1  22
TORSDOF 5
ENDMDL
MODEL 2
REMARK VINA RESULT:      -9.0      2.508      3.536
REMARK  5 active torsions:
REMARK  status: ('A' for Active; 'I' for Inactive)
REMARK    1  A    between atoms: C_3  and  C_4 
REMARK    2  A    between atoms: C_4  and  N_5 
REMARK    3  A    between atoms: C_9  and  C_10 
REMARK    4  A    between atoms: C_13  and  C_14 
REMARK    5  A    between atoms: C_14  and  N_15 
ROOT
HETATM    1  N   UNL     1      -6.803  -0.922 -33.380  1.00  0.00    -0.067 N 
HETATM    2  H   UNL     1      -7.127  -1.706 -32.799  1.00  0.00     0.280 HD
HETATM    3  C   UNL     1      -5.831  -0.118 -32.550  1.00  0.00     0.236 C 
HETATM    4  C   UNL     1      -6.544   0.573 -31.393  1.00  0.00     0.040 C 
HETATM    5  C   UNL     1      -7.729   1.434 -31.842  1.00  0.00     0.060 C 
HETATM    6  C   UNL     1      -8.684   0.581 -32.686  1.00  0.00     0.040 C 
HETATM    7  C   UNL     1      -8.003  -0.139 -33.846  1.00  0.00     0.236 C 
ENDROOT
BRANCH   5   8
HETATM    8  C   UNL     1      -7.261   2.654 -32.588  1.00  0.00     0.134 A 
HETATM    9  N   UNL     1      -6.436   3.648 -32.107  1.00  0.00    -0.323 N 
HETATM   10  C   UNL     1      -5.849   3.721 -30.791  1.00  0.00     0.159 C 
HETATM   11  C   UNL     1      -6.288   4.544 -33.139  1.00  0.00     0.155 A 
HETATM   12  N   UNL     1      -6.954   4.100 -34.186  1.00  0.00    -0.133 NA
HETATM   13  N   UNL     1      -7.561   2.932 -33.839  1.00  0.00    -0.134 NA
BRANCH  11  14
HETATM   14  C   UNL     1      -5.508   5.816 -33.124  1.00  0.00     0.315 C 
BRANCH  14  15
HETATM   15  N   UNL     1      -4.030   5.551 -33.358  1.00  0.00    -0.064 N 
HETATM   16  H   UNL     1      -3.873   4.616 -32.945  1.00  0.00     0.280 HD
HETATM   17  C   UNL     1      -3.688   5.425 -34.825  1.00  0.00     0.235 C 
HETATM   18  C   UNL     1      -2.247   4.960 -34.969  1.00  0.00     0.028 C 
HETATM   19  C   UNL     1      -1.283   5.891 -34.243  1.00  0.00     0.003 C 
HETATM   20  C   UNL     1      -1.683   6.073 -32.783  1.00  0.00     0.028 C 
HETATM   21  C   UNL     1      -3.131   6.523 -32.642  1.00  0.00     0.235 C 
ENDBRANCH  14  15
ENDBRANCH  11  14
ENDBRANCH   5   8
BRANCH   1  22
HETATM   22  C   UNL     1      -6.118  -1.560 -34.587  1.00  0.00     0.273 C 
BRANCH  22  23
HETATM   23  C   UNL     1      -5.289  -2.772 -34.254  1.00  0.00    -0.027 A 
HETATM   24  C   UNL     1      -5.602  -4.068 -34.714  1.00  0.00    -0.054 A 
HETATM   25  C   UNL     1      -6.768  -4.388 -35.611  1.00  0.00     0.049 C 
HETATM   26  C   UNL     1      -4.797  -5.147 -34.307  1.00  0.00     0.007 A 
HETATM   27  C   UNL     1      -3.693  -4.954 -33.480  1.00  0.00     0.001 A 
HETATM   28  C   UNL     1      -3.371  -3.677 -33.041  1.00  0.00     0.001 A 
HETATM   29  C   UNL     1      -4.161  -2.595 -33.424  1.00  0.00     0.009 A 
ENDBRANCH  22  23
ENDBRANCH   1  22
TORSDOF 5
ENDMDL
MODEL 3
REMARK VINA RESULT:      -8.8      4.721      8.168
REMARK  5 active torsions:
REMARK  status: ('A' for Active; 'I' for Inactive)
REMARK    1  A    between atoms: C_3  and  C_4 
REMARK    2  A    between atoms: C_4  and  N_5 
REMARK    3  A    between atoms: C_9  and  C_10 
REMARK    4  A    between atoms: C_13  and  C_14 
REMARK    5  A    between atoms: C_14  and  N_15 
ROOT
HETATM    1  N   UNL     1      -5.401   0.146 -32.705  1.00  0.00    -0.067 N 
HETATM    2  H   UNL     1      -4.545   0.214 -32.140  1.00  0.00     0.280 HD
HETATM    3  C   UNL     1      -5.774   1.548 -33.130  1.00  0.00     0.236 C 
HETATM    4  C   UNL     1      -6.209   2.382 -31.931  1.00  0.00     0.040 C 
HETATM    5  C   UNL     1      -7.336   1.734 -31.121  1.00  0.00     0.060 C 
HETATM    6  C   UNL     1      -6.920   0.314 -30.719  1.00  0.00     0.040 C 
HETATM    7  C   UNL     1      -6.463  -0.548 -31.891  1.00  0.00     0.236 C 
ENDROOT
BRANCH   5   8
HETATM    8  C   UNL     1      -8.629   1.741 -31.891  1.00  0.00     0.134 A 
HETATM    9  N   UNL     1      -9.437   2.830 -32.134  1.00  0.00    -0.323 N 
HETATM   10  C   UNL     1      -9.208   4.189 -31.705  1.00  0.00     0.159 C 
HETATM   11  C   UNL     1     -10.496   2.355 -32.871  1.00  0.00     0.155 A 
HETATM   12  N   UNL     1     -10.319   1.067 -33.086  1.00  0.00    -0.133 NA
HETATM   13  N   UNL     1      -9.165   0.688 -32.471  1.00  0.00    -0.134 NA
BRANCH  11  14
HETATM   14  C   UNL     1     -11.668   3.131 -33.370  1.00  0.00     0.315 C 
BRANCH  14  15
HETATM   15  N   UNL     1     -12.966   2.386 -33.105  1.00  0.00    -0.064 N 
HETATM   16  H   UNL     1     -12.681   1.576 -32.529  1.00  0.00     0.280 HD
HETATM   17  C   UNL     1     -13.930   3.184 -32.256  1.00  0.00     0.235 C 
HETATM   18  C   UNL     1     -15.106   2.303 -31.865  1.00  0.00     0.028 C 
HETATM   19  C   UNL     1     -15.793   1.709 -33.089  1.00  0.00     0.003 C 
HETATM   20  C   UNL     1     -14.798   0.973 -33.979  1.00  0.00     0.028 C 
HETATM   21  C   UNL     1     -13.613   1.852 -34.356  1.00  0.00     0.235 C 
ENDBRANCH  14  15
ENDBRANCH  11  14
ENDBRANCH   5   8
BRANCH   1  22
HETATM   22  C   UNL     1      -5.035  -0.725 -33.905  1.00  0.00     0.273 C 
BRANCH  22  23
HETATM   23  C   UNL     1      -4.412  -2.046 -33.538  1.00  0.00    -0.027 A 
HETATM   24  C   UNL     1      -4.647  -3.235 -34.259  1.00  0.00    -0.054 A 
HETATM   25  C   UNL     1      -5.511  -3.320 -35.489  1.00  0.00     0.049 C 
HETATM   26  C   UNL     1      -4.060  -4.431 -33.808  1.00  0.00     0.007 A 
HETATM   27  C   UNL     1      -3.241  -4.454 -32.682  1.00  0.00     0.001 A 
HETATM   28  C   UNL     1      -2.992  -3.283 -31.981  1.00  0.00     0.001 A 
HETATM   29  C   UNL     1      -3.571  -2.088 -32.405  1.00  0.00     0.009 A 
ENDBRANCH  22  23
ENDBRANCH   1  22
TORSDOF 5
ENDMDL
MODEL 4
REMARK VINA RESULT:      -8.7      2.304      3.216
REMARK  5 active torsions:
REMARK  status: ('A' for Active; 'I' for Inactive)
REMARK    1  A    between atoms: C_3  and  C_4 
REMARK    2  A    between atoms: C_4  and  N_5 
REMARK    3  A    between atoms: C_9  and  C_10 
REMARK    4  A    between atoms: C_13  and  C_14 
REMARK    5  A    between atoms: C_14  and  N_15 
ROOT
HETATM    1  N   UNL     1      -5.932  -0.482 -33.130  1.00  0.00    -0.067 N 
HETATM    2  H   UNL     1      -6.628  -1.232 -33.225  1.00  0.00     0.280 HD
HETATM    3  C   UNL     1      -5.831  -0.143 -31.661  1.00  0.00     0.236 C 
HETATM    4  C   UNL     1      -7.118   0.505 -31.162  1.00  0.00     0.040 C 
HETATM    5  C   UNL     1      -7.534   1.729 -31.982  1.00  0.00     0.060 C 
HETATM    6  C   UNL     1      -7.616   1.343 -33.464  1.00  0.00     0.040 C 
HETATM    7  C   UNL     1      -6.352   0.678 -33.996  1.00  0.00     0.236 C 
ENDROOT
BRANCH   5   8
HETATM    8  C   UNL     1      -6.592   2.880 -31.755  1.00  0.00     0.134 A 
HETATM    9  N   UNL     1      -6.447   3.995 -32.552  1.00  0.00    -0.323 N 
HETATM   10  C   UNL     1      -7.170   4.291 -33.765  1.00  0.00     0.159 C 
HETATM   11  C   UNL     1      -5.479   4.763 -31.949  1.00  0.00     0.155 A 
HETATM   12  N   UNL     1      -5.090   4.164 -30.842  1.00  0.00    -0.133 NA
HETATM   13  N   UNL     1      -5.777   2.994 -30.728  1.00  0.00    -0.134 NA
BRANCH  11  14
HETATM   14  C   UNL     1      -4.933   6.066 -32.428  1.00  0.00     0.315 C 
BRANCH  14  15
HETATM   15  N   UNL     1      -3.492   5.916 -32.888  1.00  0.00    -0.064 N 
HETATM   16  H   UNL     1      -3.109   5.172 -32.281  1.00  0.00     0.280 HD
HETATM   17  C   UNL     1      -3.387   5.397 -34.304  1.00  0.00     0.235 C 
HETATM   18  C   UNL     1      -1.933   5.079 -34.618  1.00  0.00     0.028 C 
HETATM   19  C   UNL     1      -1.034   6.290 -34.394  1.00  0.00     0.003 C 
HETATM   20  C   UNL     1      -1.206   6.854 -32.988  1.00  0.00     0.028 C 
HETATM   21  C   UNL     1      -2.665   7.155 -32.670  1.00  0.00     0.235 C 
ENDBRANCH  14  15
ENDBRANCH  11  14
ENDBRANCH   5   8
BRANCH   1  22
HETATM   22  C   UNL     1      -4.624  -1.062 -33.663  1.00  0.00     0.273 C 
BRANCH  22  23
HETATM   23  C   UNL     1      -4.641  -2.558 -33.837  1.00  0.00    -0.027 A 
HETATM   24  C   UNL     1      -3.864  -3.434 -33.050  1.00  0.00    -0.054 A 
HETATM   25  C   UNL     1      -2.961  -2.987 -31.931  1.00  0.00     0.049 C 
HETATM   26  C   UNL     1      -3.908  -4.813 -33.322  1.00  0.00     0.007 A 
HETATM   27  C   UNL     1      -4.717  -5.324 -34.334  1.00  0.00     0.001 A 
HETATM   28  C   UNL     1      -5.497  -4.468 -35.098  1.00  0.00     0.001 A 
HETATM   29  C   UNL     1      -5.461  -3.097 -34.852  1.00  0.00     0.009 A 
ENDBRANCH  22  23
ENDBRANCH   1  22
TORSDOF 5
ENDMDL
MODEL 5
REMARK VINA RESULT:      -8.7      1.599      2.655
REMARK  5 active torsions:
REMARK  status: ('A' for Active; 'I' for Inactive)
REMARK    1  A    between atoms: C_3  and  C_4 
REMARK    2  A    between atoms: C_4  and  N_5 
REMARK    3  A    between atoms: C_9  and  C_10 
REMARK    4  A    between atoms: C_13  and  C_14 
REMARK    5  A    between atoms: C_14  and  N_15 
ROOT
HETATM    1  N   UNL     1      -7.109   1.580 -32.418  1.00  0.00    -0.067 N 
HETATM    2  H   UNL     1      -8.065   1.742 -32.757  1.00  0.00     0.280 HD
HETATM    3  C   UNL     1      -6.850   2.567 -31.305  1.00  0.00     0.236 C 
HETATM    4  C   UNL     1      -6.794   3.992 -31.843  1.00  0.00     0.040 C 
HETATM    5  C   UNL     1      -5.785   4.169 -32.981  1.00  0.00     0.060 C 
HETATM    6  C   UNL     1      -6.080   3.144 -34.083  1.00  0.00     0.040 C 
HETATM    7  C   UNL     1      -6.158   1.706 -33.580  1.00  0.00     0.236 C 
ENDROOT
BRANCH   5   8
HETATM    8  C   UNL     1      -4.372   4.057 -32.476  1.00  0.00     0.134 A 
HETATM    9  N   UNL     1      -3.351   4.960 -32.678  1.00  0.00    -0.323 N 
HETATM   10  C   UNL     1      -3.427   6.200 -33.412  1.00  0.00     0.159 C 
HETATM   11  C   UNL     1      -2.256   4.436 -32.033  1.00  0.00     0.155 A 
HETATM   12  N   UNL     1      -2.605   3.307 -31.452  1.00  0.00    -0.133 NA
HETATM   13  N   UNL     1      -3.915   3.070 -31.734  1.00  0.00    -0.134 NA
BRANCH  11  14
HETATM   14  C   UNL     1      -0.883   5.018 -31.970  1.00  0.00     0.315 C 
BRANCH  14  15
HETATM   15  N   UNL     1      -0.652   5.723 -30.643  1.00  0.00    -0.064 N 
HETATM   16  H   UNL     1      -1.474   5.466 -30.073  1.00  0.00     0.280 HD
HETATM   17  C   UNL     1       0.554   5.189 -29.905  1.00  0.00     0.235 C 
HETATM   18  C   UNL     1       0.600   5.793 -28.510  1.00  0.00     0.028 C 
HETATM   19  C   UNL     1       0.599   7.316 -28.559  1.00  0.00     0.003 C 
HETATM   20  C   UNL     1      -0.578   7.843 -29.372  1.00  0.00     0.028 C 
HETATM   21  C   UNL     1      -0.631   7.224 -30.763  1.00  0.00     0.235 C 
ENDBRANCH  14  15
ENDBRANCH  11  14
ENDBRANCH   5   8
BRANCH   1  22
HETATM   22  C   UNL     1      -7.092   0.140 -31.908  1.00  0.00     0.273 C 
BRANCH  22  23
HETATM   23  C   UNL     1      -6.392  -0.829 -32.824  1.00  0.00    -0.027 A 
HETATM   24  C   UNL     1      -5.030  -1.167 -32.692  1.00  0.00    -0.054 A 
HETATM   25  C   UNL     1      -4.128  -0.633 -31.610  1.00  0.00     0.049 C 
HETATM   26  C   UNL     1      -4.452  -2.043 -33.628  1.00  0.00     0.007 A 
HETATM   27  C   UNL     1      -5.205  -2.593 -34.663  1.00  0.00     0.001 A 
HETATM   28  C   UNL     1      -6.551  -2.278 -34.785  1.00  0.00     0.001 A 
HETATM   29  C   UNL     1      -7.141  -1.404 -33.874  1.00  0.00     0.009 A 
ENDBRANCH  22  23
ENDBRANCH   1  22
TORSDOF 5
ENDMDL
MODEL 6
REMARK VINA RESULT:      -8.7      1.865      9.824
REMARK  5 active torsions:
REMARK  status: ('A' for Active; 'I' for Inactive)
REMARK    1  A    between atoms: C_3  and  C_4 
REMARK    2  A    between atoms: C_4  and  N_5 
REMARK    3  A    between atoms: C_9  and  C_10 
REMARK    4  A    between atoms: C_13  and  C_14 
REMARK    5  A    between atoms: C_14  and  N_15 
ROOT
HETATM    1  N   UNL     1      -1.536   6.849 -30.332  1.00  0.00    -0.067 N 
HETATM    2  H   UNL     1      -0.845   7.533 -30.667  1.00  0.00     0.280 HD
HETATM    3  C   UNL     1      -0.910   5.480 -30.453  1.00  0.00     0.236 C 
HETATM    4  C   UNL     1      -0.717   5.096 -31.916  1.00  0.00     0.040 C 
HETATM    5  C   UNL     1      -2.006   5.187 -32.738  1.00  0.00     0.060 C 
HETATM    6  C   UNL     1      -2.610   6.588 -32.581  1.00  0.00     0.040 C 
HETATM    7  C   UNL     1      -2.804   7.013 -31.130  1.00  0.00     0.236 C 
ENDROOT
BRANCH   5   8
HETATM    8  C   UNL     1      -2.979   4.110 -32.343  1.00  0.00     0.134 A 
HETATM    9  N   UNL     1      -4.260   3.941 -32.821  1.00  0.00    -0.323 N 
HETATM   10  C   UNL     1      -4.931   4.759 -33.803  1.00  0.00     0.159 C 
HETATM   11  C   UNL     1      -4.759   2.834 -32.176  1.00  0.00     0.155 A 
HETATM   12  N   UNL     1      -3.825   2.349 -31.383  1.00  0.00    -0.133 NA
HETATM   13  N   UNL     1      -2.725   3.145 -31.484  1.00  0.00    -0.134 NA
BRANCH  11  14
HETATM   14  C   UNL     1      -6.121   2.243 -32.321  1.00  0.00     0.315 C 
BRANCH  14  15
HETATM   15  N   UNL     1      -6.115   1.107 -33.330  1.00  0.00    -0.064 N 
HETATM   16  H   UNL     1      -5.228   1.230 -33.845  1.00  0.00     0.280 HD
HETATM   17  C   UNL     1      -6.033  -0.252 -32.672  1.00  0.00     0.235 C 
HETATM   18  C   UNL     1      -5.825  -1.317 -33.739  1.00  0.00     0.028 C 
HETATM   19  C   UNL     1      -6.920  -1.269 -34.799  1.00  0.00     0.003 C 
HETATM   20  C   UNL     1      -7.048   0.126 -35.400  1.00  0.00     0.028 C 
HETATM   21  C   UNL     1      -7.239   1.192 -34.328  1.00  0.00     0.235 C 
ENDBRANCH  14  15
ENDBRANCH  11  14
ENDBRANCH   5   8
BRANCH   1  22
HETATM   22  C   UNL     1      -1.806   7.217 -28.874  1.00  0.00     0.273 C 
BRANCH  22  23
HETATM   23  C   UNL     1      -0.562   7.477 -28.066  1.00  0.00    -0.027 A 
HETATM   24  C   UNL     1      -0.380   6.989 -26.755  1.00  0.00    -0.054 A 
HETATM   25  C   UNL     1      -1.379   6.130 -26.027  1.00  0.00     0.049 C 
HETATM   26  C   UNL     1       0.795   7.329 -26.060  1.00  0.00     0.007 A 
HETATM   27  C   UNL     1       1.782   8.116 -26.650  1.00  0.00     0.001 A 
HETATM   28  C   UNL     1       1.614   8.581 -27.947  1.00  0.00     0.001 A 
HETATM   29  C   UNL     1       0.453   8.266 -28.650  1.00  0.00     0.009 A 
ENDBRANCH  22  23
ENDBRANCH   1  22
TORSDOF 5
ENDMDL
MODEL 7
REMARK VINA RESULT:      -8.4      2.546     10.221
REMARK  5 active torsions:
REMARK  status: ('A' for Active; 'I' for Inactive)
REMARK    1  A    between atoms: C_3  and  C_4 
REMARK    2  A    between atoms: C_4  and  N_5 
REMARK    3  A    between atoms: C_9  and  C_10 
REMARK    4  A    between atoms: C_13  and  C_14 
REMARK    5  A    between atoms: C_14  and  N_15 
ROOT
HETATM    1  N   UNL     1      -0.324   6.993 -28.932  1.00  0.00    -0.067 N 
HETATM    2  H   UNL     1       0.317   7.794 -28.982  1.00  0.00     0.280 HD
HETATM    3  C   UNL     1       0.347   5.834 -29.632  1.00  0.00     0.236 C 
HETATM    4  C   UNL     1       0.465   6.097 -31.129  1.00  0.00     0.040 C 
HETATM    5  C   UNL     1      -0.875   6.438 -31.789  1.00  0.00     0.060 C 
HETATM    6  C   UNL     1      -1.523   7.611 -31.043  1.00  0.00     0.040 C 
HETATM    7  C   UNL     1      -1.644   7.391 -29.540  1.00  0.00     0.236 C 
ENDROOT
BRANCH   5   8
HETATM    8  C   UNL     1      -1.778   5.236 -31.835  1.00  0.00     0.134 A 
HETATM    9  N   UNL     1      -2.971   5.127 -32.516  1.00  0.00    -0.323 N 
HETATM   10  C   UNL     1      -3.598   6.142 -33.328  1.00  0.00     0.159 C 
HETATM   11  C   UNL     1      -3.432   3.856 -32.265  1.00  0.00     0.155 A 
HETATM   12  N   UNL     1      -2.555   3.229 -31.507  1.00  0.00    -0.133 NA
HETATM   13  N   UNL     1      -1.535   4.088 -31.237  1.00  0.00    -0.134 NA
BRANCH  11  14
HETATM   14  C   UNL     1      -4.703   3.245 -32.752  1.00  0.00     0.315 C 
BRANCH  14  15
HETATM   15  N   UNL     1      -5.024   1.973 -31.984  1.00  0.00    -0.064 N 
HETATM   16  H   UNL     1      -4.099   1.612 -31.694  1.00  0.00     0.280 HD
HETATM   17  C   UNL     1      -5.787   2.243 -30.708  1.00  0.00     0.235 C 
HETATM   18  C   UNL     1      -5.890   0.959 -29.900  1.00  0.00     0.028 C 
HETATM   19  C   UNL     1      -6.528  -0.164 -30.711  1.00  0.00     0.003 C 
HETATM   20  C   UNL     1      -5.797  -0.375 -32.032  1.00  0.00     0.028 C 
HETATM   21  C   UNL     1      -5.681   0.916 -32.831  1.00  0.00     0.235 C 
ENDBRANCH  14  15
ENDBRANCH  11  14
ENDBRANCH   5   8
BRANCH   1  22
HETATM   22  C   UNL     1      -0.518   6.713 -27.443  1.00  0.00     0.273 C 
BRANCH  22  23
HETATM   23  C   UNL     1       0.182   7.692 -26.537  1.00  0.00    -0.027 A 
HETATM   24  C   UNL     1      -0.506   8.602 -25.709  1.00  0.00    -0.054 A 
HETATM   25  C   UNL     1      -2.007   8.681 -25.605  1.00  0.00     0.049 C 
HETATM   26  C   UNL     1       0.235   9.514 -24.937  1.00  0.00     0.007 A 
HETATM   27  C   UNL     1       1.628   9.516 -24.961  1.00  0.00     0.001 A 
HETATM   28  C   UNL     1       2.309   8.609 -25.760  1.00  0.00     0.001 A 
HETATM   29  C   UNL     1       1.594   7.704 -26.542  1.00  0.00     0.009 A 
ENDBRANCH  22  23
ENDBRANCH   1  22
TORSDOF 5
ENDMDL
MODEL 8
REMARK VINA RESULT:      -8.3      2.168     10.021
REMARK  5 active torsions:
REMARK  status: ('A' for Active; 'I' for Inactive)
REMARK    1  A    between atoms: C_3  and  C_4 
REMARK    2  A    between atoms: C_4  and  N_5 
REMARK    3  A    between atoms: C_9  and  C_10 
REMARK    4  A    between atoms: C_13  and  C_14 
REMARK    5  A    between atoms: C_14  and  N_15 
ROOT
HETATM    1  N   UNL     1      -1.411   7.302 -31.175  1.00  0.00    -0.067 N 
HETATM    2  H   UNL     1      -0.397   7.467 -31.186  1.00  0.00     0.280 HD
HETATM    3  C   UNL     1      -1.627   5.832 -30.902  1.00  0.00     0.236 C 
HETATM    4  C   UNL     1      -1.146   4.984 -32.075  1.00  0.00     0.040 C 
HETATM    5  C   UNL     1      -1.771   5.394 -33.411  1.00  0.00     0.060 C 
HETATM    6  C   UNL     1      -1.537   6.891 -33.643  1.00  0.00     0.040 C 
HETATM    7  C   UNL     1      -1.991   7.771 -32.484  1.00  0.00     0.236 C 
ENDROOT
BRANCH   5   8
HETATM    8  C   UNL     1      -3.234   5.043 -33.456  1.00  0.00     0.134 A 
HETATM    9  N   UNL     1      -3.835   3.943 -32.884  1.00  0.00    -0.323 N 
HETATM   10  C   UNL     1      -3.187   2.903 -32.122  1.00  0.00     0.159 C 
HETATM   11  C   UNL     1      -5.172   4.048 -33.185  1.00  0.00     0.155 A 
HETATM   12  N   UNL     1      -5.368   5.158 -33.867  1.00  0.00    -0.133 NA
HETATM   13  N   UNL     1      -4.164   5.769 -34.039  1.00  0.00    -0.134 NA
BRANCH  11  14
HETATM   14  C   UNL     1      -6.257   3.091 -32.818  1.00  0.00     0.315 C 
BRANCH  14  15
HETATM   15  N   UNL     1      -6.159   1.817 -33.639  1.00  0.00    -0.064 N 
HETATM   16  H   UNL     1      -5.378   1.995 -34.292  1.00  0.00     0.280 HD
HETATM   17  C   UNL     1      -5.748   0.622 -32.809  1.00  0.00     0.235 C 
HETATM   18  C   UNL     1      -5.474  -0.559 -33.727  1.00  0.00     0.028 C 
HETATM   19  C   UNL     1      -6.676  -0.874 -34.610  1.00  0.00     0.003 C 
HETATM   20  C   UNL     1      -7.131   0.358 -35.384  1.00  0.00     0.028 C 
HETATM   21  C   UNL     1      -7.389   1.544 -34.464  1.00  0.00     0.235 C 
ENDBRANCH  14  15
ENDBRANCH  11  14
ENDBRANCH   5   8
BRANCH   1  22
HETATM   22  C   UNL     1      -1.957   8.169 -30.042  1.00  0.00     0.273 C 
BRANCH  22  23
HETATM   23  C   UNL     1      -0.935   8.527 -28.996  1.00  0.00    -0.027 A 
HETATM   24  C   UNL     1      -1.149   9.522 -28.019  1.00  0.00    -0.054 A 
HETATM   25  C   UNL     1      -2.424  10.313 -27.884  1.00  0.00     0.049 C 
HETATM   26  C   UNL     1      -0.114   9.823 -27.115  1.00  0.00     0.007 A 
HETATM   27  C   UNL     1       1.101   9.143 -27.157  1.00  0.00     0.001 A 
HETATM   28  C   UNL     1       1.308   8.151 -28.104  1.00  0.00     0.001 A 
HETATM   29  C   UNL     1       0.300   7.844 -29.016  1.00  0.00     0.009 A 
ENDBRANCH  22  23
ENDBRANCH   1  22
TORSDOF 5
ENDMDL
MODEL 9
REMARK VINA RESULT:      -8.3      5.122      8.466
REMARK  5 active torsions:
REMARK  status: ('A' for Active; 'I' for Inactive)
REMARK    1  A    between atoms: C_3  and  C_4 
REMARK    2  A    between atoms: C_4  and  N_5 
REMARK    3  A    between atoms: C_9  and  C_10 
REMARK    4  A    between atoms: C_13  and  C_14 
REMARK    5  A    between atoms: C_14  and  N_15 
ROOT
HETATM    1  N   UNL     1      -6.335   1.527 -32.014  1.00  0.00    -0.067 N 
HETATM    2  H   UNL     1      -5.480   2.004 -31.701  1.00  0.00     0.280 HD
HETATM    3  C   UNL     1      -6.387   1.637 -33.520  1.00  0.00     0.236 C 
HETATM    4  C   UNL     1      -6.612   3.081 -33.953  1.00  0.00     0.040 C 
HETATM    5  C   UNL     1      -7.848   3.719 -33.311  1.00  0.00     0.060 C 
HETATM    6  C   UNL     1      -7.757   3.577 -31.787  1.00  0.00     0.040 C 
HETATM    7  C   UNL     1      -7.517   2.147 -31.315  1.00  0.00     0.236 C 
ENDROOT
BRANCH   5   8
HETATM    8  C   UNL     1      -9.114   3.114 -33.854  1.00  0.00     0.134 A 
HETATM    9  N   UNL     1     -10.137   3.780 -34.494  1.00  0.00    -0.323 N 
HETATM   10  C   UNL     1     -10.203   5.193 -34.779  1.00  0.00     0.159 C 
HETATM   11  C   UNL     1     -11.070   2.820 -34.807  1.00  0.00     0.155 A 
HETATM   12  N   UNL     1     -10.623   1.646 -34.410  1.00  0.00    -0.133 NA
HETATM   13  N   UNL     1      -9.413   1.832 -33.814  1.00  0.00    -0.134 NA
BRANCH  11  14
HETATM   14  C   UNL     1     -12.383   3.027 -35.487  1.00  0.00     0.315 C 
BRANCH  14  15
HETATM   15  N   UNL     1     -13.533   2.875 -34.506  1.00  0.00    -0.064 N 
HETATM   16  H   UNL     1     -14.323   3.358 -34.966  1.00  0.00     0.280 HD
HETATM   17  C   UNL     1     -13.963   1.437 -34.335  1.00  0.00     0.235 C 
HETATM   18  C   UNL     1     -15.239   1.387 -33.507  1.00  0.00     0.028 C 
HETATM   19  C   UNL     1     -15.062   2.086 -32.164  1.00  0.00     0.003 C 
HETATM   20  C   UNL     1     -14.553   3.511 -32.345  1.00  0.00     0.028 C 
HETATM   21  C   UNL     1     -13.285   3.560 -33.188  1.00  0.00     0.235 C 
ENDBRANCH  14  15
ENDBRANCH  11  14
ENDBRANCH   5   8
BRANCH   1  22
HETATM   22  C   UNL     1      -6.186   0.076 -31.562  1.00  0.00     0.273 C 
BRANCH  22  23
HETATM   23  C   UNL     1      -5.930  -0.895 -32.685  1.00  0.00    -0.027 A 
HETATM   24  C   UNL     1      -4.650  -1.404 -32.985  1.00  0.00    -0.054 A 
HETATM   25  C   UNL     1      -3.404  -1.072 -32.207  1.00  0.00     0.049 C 
HETATM   26  C   UNL     1      -4.502  -2.266 -34.087  1.00  0.00     0.007 A 
HETATM   27  C   UNL     1      -5.595  -2.636 -34.867  1.00  0.00     0.001 A 
HETATM   28  C   UNL     1      -6.859  -2.152 -34.563  1.00  0.00     0.001 A 
HETATM   29  C   UNL     1      -7.027  -1.289 -33.482  1.00  0.00     0.009 A 
ENDBRANCH  22  23
ENDBRANCH   1  22
TORSDOF 5
ENDMDL
MODEL 10
REMARK VINA RESULT:      -8.1      1.700      3.073
REMARK  5 active torsions:
REMARK  status: ('A' for Active; 'I' for Inactive)
REMARK    1  A    between atoms: C_3  and  C_4 
REMARK    2  A    between atoms: C_4  and  N_5 
REMARK    3  A    between atoms: C_9  and  C_10 
REMARK    4  A    between atoms: C_13  and  C_14 
REMARK    5  A    between atoms: C_14  and  N_15 
ROOT
HETATM    1  N   UNL     1      -4.829   2.289 -32.891  1.00  0.00    -0.067 N 
HETATM    2  H   UNL     1      -4.770   1.975 -33.868  1.00  0.00     0.280 HD
HETATM    3  C   UNL     1      -5.770   3.470 -32.852  1.00  0.00     0.236 C 
HETATM    4  C   UNL     1      -5.165   4.671 -33.571  1.00  0.00     0.040 C 
HETATM    5  C   UNL     1      -3.778   5.054 -33.046  1.00  0.00     0.060 C 
HETATM    6  C   UNL     1      -2.861   3.826 -33.095  1.00  0.00     0.040 C 
HETATM    7  C   UNL     1      -3.439   2.599 -32.399  1.00  0.00     0.236 C 
ENDROOT
BRANCH   5   8
HETATM    8  C   UNL     1      -3.864   5.633 -31.659  1.00  0.00     0.134 A 
HETATM    9  N   UNL     1      -3.082   6.640 -31.138  1.00  0.00    -0.323 N 
HETATM   10  C   UNL     1      -2.023   7.350 -31.813  1.00  0.00     0.159 C 
HETATM   11  C   UNL     1      -3.524   6.828 -29.849  1.00  0.00     0.155 A 
HETATM   12  N   UNL     1      -4.531   6.009 -29.622  1.00  0.00    -0.133 NA
HETATM   13  N   UNL     1      -4.735   5.265 -30.743  1.00  0.00    -0.134 NA
BRANCH  11  14
HETATM   14  C   UNL     1      -2.988   7.791 -28.844  1.00  0.00     0.315 C 
BRANCH  14  15
HETATM   15  N   UNL     1      -1.621   7.353 -28.346  1.00  0.00    -0.064 N 
HETATM   16  H   UNL     1      -1.398   6.521 -28.918  1.00  0.00     0.280 HD
HETATM   17  C   UNL     1      -0.542   8.369 -28.645  1.00  0.00     0.235 C 
HETATM   18  C   UNL     1       0.817   7.776 -28.307  1.00  0.00     0.028 C 
HETATM   19  C   UNL     1       0.876   7.300 -26.859  1.00  0.00     0.003 C 
HETATM   20  C   UNL     1      -0.263   6.337 -26.546  1.00  0.00     0.028 C 
HETATM   21  C   UNL     1      -1.621   6.927 -26.902  1.00  0.00     0.235 C 
ENDBRANCH  14  15
ENDBRANCH  11  14
ENDBRANCH   5   8
BRANCH   1  22
HETATM   22  C   UNL     1      -5.387   1.101 -32.109  1.00  0.00     0.273 C 
BRANCH  22  23
HETATM   23  C   UNL     1      -5.591  -0.139 -32.939  1.00  0.00    -0.027 A 
HETATM   24  C   UNL     1      -6.860  -0.579 -33.367  1.00  0.00    -0.054 A 
HETATM   25  C   UNL     1      -8.148   0.148 -33.081  1.00  0.00     0.049 C 
HETATM   26  C   UNL     1      -6.954  -1.779 -34.095  1.00  0.00     0.007 A 
HETATM   27  C   UNL     1      -5.820  -2.522 -34.414  1.00  0.00     0.001 A 
HETATM   28  C   UNL     1      -4.567  -2.082 -34.010  1.00  0.00     0.001 A 
HETATM   29  C   UNL     1      -4.452  -0.901 -33.279  1.00  0.00     0.009 A 
ENDBRANCH  22  23
ENDBRANCH   1  22
TORSDOF 5
ENDMDL
