MODEL 1
REMARK VINA RESULT:      -9.9      0.000      0.000
REMARK  6 active torsions:
REMARK  status: ('A' for Active; 'I' for Inactive)
REMARK    1  A    between atoms: C_2  and  C_3 
REMARK    2  A    between atoms: C_3  and  C_4 
REMARK       I    between atoms: C_4  and  N_5 
REMARK    3  A    between atoms: N_5  and  C_6 
REMARK    4  A    between atoms: C_8  and  C_9 
REMARK    5  A    between atoms: C_9  and  N_10 
REMARK       I    between atoms: N_10  and  C_11 
REMARK    6  A    between atoms: C_11  and  C_12 
ROOT
HETATM    1  C   UNL     1      -4.228   3.098 -32.757  1.00  0.00     0.161 C 
ENDROOT
BRANCH   1   2
HETATM    2  C   UNL     1      -3.091   4.079 -32.683  1.00  0.00    -0.038 A 
HETATM    3  C   UNL     1      -2.672   4.588 -31.442  1.00  0.00     0.038 A 
HETATM    4  C   UNL     1      -1.548   5.414 -31.348  1.00  0.00     0.035 A 
HETATM    5  C   UNL     1      -0.850   5.747 -32.514  1.00  0.00     0.029 A 
HETATM    6  C   UNL     1      -1.286   5.286 -33.757  1.00  0.00     0.003 A 
HETATM    7  C   UNL     1      -2.401   4.454 -33.842  1.00  0.00     0.009 A 
BRANCH   4   8
HETATM    8  N   UNL     1      -1.030   5.880 -30.121  1.00  0.00    -0.327 N 
HETATM    9  C   UNL     1       0.122   5.443 -29.492  1.00  0.00     0.226 C 
HETATM   10  O   UNL     1       0.780   4.468 -29.849  1.00  0.00    -0.273 OA
HETATM   11  H   UNL     1      -1.633   6.507 -29.611  1.00  0.00     0.169 HD
BRANCH   9  12
HETATM   12  C   UNL     1       0.617   6.342 -28.340  1.00  0.00     0.074 C 
HETATM   13  C   UNL     1      -0.258   6.130 -27.098  1.00  0.00     0.020 C 
BRANCH  12  14
HETATM   14  C   UNL     1       0.787   7.840 -28.644  1.00  0.00     0.009 C 
HETATM   15  C   UNL     1       1.648   8.604 -27.649  1.00  0.00     0.006 C 
ENDBRANCH  12  14
ENDBRANCH   9  12
ENDBRANCH   4   8
ENDBRANCH   1   2
BRANCH   1  16
HETATM   16  N   UNL     1      -3.861   1.787 -32.296  1.00  0.00    -0.351 N 
HETATM   17  C   UNL     1      -4.624   0.694 -32.652  1.00  0.00     0.273 C 
HETATM   18  O   UNL     1      -5.739   0.795 -33.159  1.00  0.00    -0.266 OA
HETATM   19  H   UNL     1      -2.898   1.583 -32.044  1.00  0.00     0.163 HD
BRANCH  17  20
HETATM   20  C   UNL     1      -3.967  -0.599 -32.404  1.00  0.00     0.157 A 
HETATM   21  N   UNL     1      -2.961  -0.727 -31.512  1.00  0.00    -0.168 NA
HETATM   22  N   UNL     1      -2.626  -2.027 -31.593  1.00  0.00    -0.277 N 
HETATM   23  H   UNL     1      -1.876  -2.367 -31.002  1.00  0.00     0.189 HD
HETATM   24  C   UNL     1      -3.356  -2.748 -32.497  1.00  0.00     0.063 A 
HETATM   25  C   UNL     1      -4.252  -1.840 -33.049  1.00  0.00     0.029 A 
HETATM   26  C   UNL     1      -3.306  -4.092 -32.874  1.00  0.00     0.032 A 
HETATM   27  C   UNL     1      -5.153  -2.288 -34.033  1.00  0.00     0.023 A 
HETATM   28  C   UNL     1      -5.127  -3.634 -34.439  1.00  0.00    -0.061 A 
HETATM   29  C   UNL     1      -4.209  -4.517 -33.857  1.00  0.00     0.009 A 
HETATM   30  C   UNL     1      -6.087  -4.101 -35.494  1.00  0.00     0.048 C 
ENDBRANCH  17  20
ENDBRANCH   1  16
TORSDOF 6
ENDMDL
MODEL 2
REMARK VINA RESULT:      -9.3      1.443      1.949
REMARK  6 active torsions:
REMARK  status: ('A' for Active; 'I' for Inactive)
REMARK    1  A    between atoms: C_2  and  C_3 
REMARK    2  A    between atoms: C_3  and  C_4 
REMARK       I    between atoms: C_4  and  N_5 
REMARK    3  A    between atoms: N_5  and  C_6 
REMARK    4  A    between atoms: C_8  and  C_9 
REMARK    5  A    between atoms: C_9  and  N_10 
REMARK       I    between atoms: N_10  and  C_11 
REMARK    6  A    between atoms: C_11  and  C_12 
ROOT
HETATM    1  C   UNL     1      -5.606   3.260 -32.629  1.00  0.00     0.161 C 
ENDROOT
BRANCH   1   2
HETATM    2  C   UNL     1      -4.543   4.115 -33.263  1.00  0.00    -0.038 A 
HETATM    3  C   UNL     1      -3.375   4.438 -32.553  1.00  0.00     0.038 A 
HETATM    4  C   UNL     1      -2.332   5.138 -33.167  1.00  0.00     0.035 A 
HETATM    5  C   UNL     1      -2.473   5.534 -34.501  1.00  0.00     0.029 A 
HETATM    6  C   UNL     1      -3.649   5.259 -35.202  1.00  0.00     0.003 A 
HETATM    7  C   UNL     1      -4.679   4.552 -34.586  1.00  0.00     0.009 A 
BRANCH   4   8
HETATM    8  N   UNL     1      -1.102   5.411 -32.531  1.00  0.00    -0.327 N 
HETATM    9  C   UNL     1      -0.739   6.591 -31.907  1.00  0.00     0.226 C 
HETATM   10  O   UNL     1      -1.394   7.631 -31.955  1.00  0.00    -0.273 OA
HETATM   11  H   UNL     1      -0.389   4.709 -32.657  1.00  0.00     0.169 HD
BRANCH   9  12
HETATM   12  C   UNL     1       0.523   6.501 -31.025  1.00  0.00     0.074 C 
HETATM   13  C   UNL     1       0.911   5.031 -30.817  1.00  0.00     0.020 C 
BRANCH  12  14
HETATM   14  C   UNL     1       0.498   7.258 -29.686  1.00  0.00     0.009 C 
HETATM   15  C   UNL     1      -0.396   6.646 -28.619  1.00  0.00     0.006 C 
ENDBRANCH  12  14
ENDBRANCH   9  12
ENDBRANCH   4   8
ENDBRANCH   1   2
BRANCH   1  16
HETATM   16  N   UNL     1      -5.109   1.980 -32.206  1.00  0.00    -0.351 N 
HETATM   17  C   UNL     1      -5.312   0.867 -32.996  1.00  0.00     0.273 C 
HETATM   18  O   UNL     1      -6.094   0.857 -33.944  1.00  0.00    -0.266 OA
HETATM   19  H   UNL     1      -4.323   1.921 -31.564  1.00  0.00     0.163 HD
BRANCH  17  20
HETATM   20  C   UNL     1      -4.482  -0.289 -32.625  1.00  0.00     0.157 A 
HETATM   21  N   UNL     1      -3.490  -0.190 -31.713  1.00  0.00    -0.168 NA
HETATM   22  N   UNL     1      -2.969  -1.429 -31.672  1.00  0.00    -0.277 N 
HETATM   23  H   UNL     1      -2.193  -1.604 -31.044  1.00  0.00     0.189 HD
HETATM   24  C   UNL     1      -3.564  -2.325 -32.517  1.00  0.00     0.063 A 
HETATM   25  C   UNL     1      -4.567  -1.609 -33.159  1.00  0.00     0.029 A 
HETATM   26  C   UNL     1      -3.311  -3.675 -32.771  1.00  0.00     0.032 A 
HETATM   27  C   UNL     1      -5.369  -2.269 -34.110  1.00  0.00     0.023 A 
HETATM   28  C   UNL     1      -5.138  -3.626 -34.393  1.00  0.00    -0.061 A 
HETATM   29  C   UNL     1      -4.118  -4.311 -33.723  1.00  0.00     0.009 A 
HETATM   30  C   UNL     1      -5.994  -4.319 -35.414  1.00  0.00     0.048 C 
ENDBRANCH  17  20
ENDBRANCH   1  16
TORSDOF 6
ENDMDL
MODEL 3
REMARK VINA RESULT:      -9.0      2.395      3.106
REMARK  6 active torsions:
REMARK  status: ('A' for Active; 'I' for Inactive)
REMARK    1  A    between atoms: C_2  and  C_3 
REMARK    2  A    between atoms: C_3  and  C_4 
REMARK       I    between atoms: C_4  and  N_5 
REMARK    3  A    between atoms: N_5  and  C_6 
REMARK    4  A    between atoms: C_8  and  C_9 
REMARK    5  A    between atoms: C_9  and  N_10 
REMARK       I    between atoms: N_10  and  C_11 
REMARK    6  A    between atoms: C_11  and  C_12 
ROOT
HETATM    1  C   UNL     1      -5.516   5.189 -33.812  1.00  0.00     0.161 C 
ENDROOT
BRANCH   1   2
HETATM    2  C   UNL     1      -4.034   5.443 -33.867  1.00  0.00    -0.038 A 
HETATM    3  C   UNL     1      -3.352   5.917 -32.734  1.00  0.00     0.038 A 
HETATM    4  C   UNL     1      -1.961   6.052 -32.737  1.00  0.00     0.035 A 
HETATM    5  C   UNL     1      -1.250   5.725 -33.897  1.00  0.00     0.029 A 
HETATM    6  C   UNL     1      -1.921   5.297 -35.044  1.00  0.00     0.003 A 
HETATM    7  C   UNL     1      -3.307   5.155 -35.029  1.00  0.00     0.009 A 
BRANCH   4   8
HETATM    8  N   UNL     1      -1.217   6.438 -31.602  1.00  0.00    -0.327 N 
HETATM    9  C   UNL     1      -0.540   5.600 -30.734  1.00  0.00     0.226 C 
HETATM   10  O   UNL     1      -0.622   4.372 -30.750  1.00  0.00    -0.273 OA
HETATM   11  H   UNL     1      -1.296   7.410 -31.347  1.00  0.00     0.169 HD
BRANCH   9  12
HETATM   12  C   UNL     1       0.444   6.306 -29.780  1.00  0.00     0.074 C 
HETATM   13  C   UNL     1       0.739   5.407 -28.573  1.00  0.00     0.020 C 
BRANCH  12  14
HETATM   14  C   UNL     1       0.082   7.731 -29.328  1.00  0.00     0.009 C 
HETATM   15  C   UNL     1       0.936   8.283 -28.197  1.00  0.00     0.006 C 
ENDBRANCH  12  14
ENDBRANCH   9  12
ENDBRANCH   4   8
ENDBRANCH   1   2
BRANCH   1  16
HETATM   16  N   UNL     1      -5.873   3.885 -34.298  1.00  0.00    -0.351 N 
HETATM   17  C   UNL     1      -6.093   2.855 -33.406  1.00  0.00     0.273 C 
HETATM   18  O   UNL     1      -5.780   2.923 -32.219  1.00  0.00    -0.266 OA
HETATM   19  H   UNL     1      -6.321   3.779 -35.203  1.00  0.00     0.163 HD
BRANCH  17  20
HETATM   20  C   UNL     1      -6.766   1.687 -33.995  1.00  0.00     0.157 A 
HETATM   21  N   UNL     1      -7.966   1.790 -34.606  1.00  0.00    -0.168 NA
HETATM   22  N   UNL     1      -8.243   0.529 -34.980  1.00  0.00    -0.277 N 
HETATM   23  H   UNL     1      -9.114   0.353 -35.469  1.00  0.00     0.189 HD
HETATM   24  C   UNL     1      -7.290  -0.389 -34.636  1.00  0.00     0.063 A 
HETATM   25  C   UNL     1      -6.300   0.339 -33.988  1.00  0.00     0.029 A 
HETATM   26  C   UNL     1      -7.214  -1.771 -34.832  1.00  0.00     0.032 A 
HETATM   27  C   UNL     1      -5.165  -0.340 -33.503  1.00  0.00     0.023 A 
HETATM   28  C   UNL     1      -5.059  -1.731 -33.679  1.00  0.00    -0.061 A 
HETATM   29  C   UNL     1      -6.079  -2.427 -34.339  1.00  0.00     0.009 A 
HETATM   30  C   UNL     1      -3.849  -2.447 -33.152  1.00  0.00     0.048 C 
ENDBRANCH  17  20
ENDBRANCH   1  16
TORSDOF 6
ENDMDL
MODEL 4
REMARK VINA RESULT:      -8.9      1.551      2.008
REMARK  6 active torsions:
REMARK  status: ('A' for Active; 'I' for Inactive)
REMARK    1  A    between atoms: C_2  and  C_3 
REMARK    2  A    between atoms: C_3  and  C_4 
REMARK       I    between atoms: C_4  and  N_5 
REMARK    3  A    between atoms: N_5  and  C_6 
REMARK    4  A    between atoms: C_8  and  C_9 
REMARK    5  A    between atoms: C_9  and  N_10 
REMARK       I    between atoms: N_10  and  C_11 
REMARK    6  A    between atoms: C_11  and  C_12 
ROOT
HETATM    1  C   UNL     1      -4.352   4.697 -32.691  1.00  0.00     0.161 C 
ENDROOT
BRANCH   1   2
HETATM    2  C   UNL     1      -3.217   5.666 -32.501  1.00  0.00    -0.038 A 
HETATM    3  C   UNL     1      -2.687   5.897 -31.221  1.00  0.00     0.038 A 
HETATM    4  C   UNL     1      -1.562   6.709 -31.045  1.00  0.00     0.035 A 
HETATM    5  C   UNL     1      -0.977   7.310 -32.165  1.00  0.00     0.029 A 
HETATM    6  C   UNL     1      -1.523   7.125 -33.436  1.00  0.00     0.003 A 
HETATM    7  C   UNL     1      -2.638   6.306 -33.605  1.00  0.00     0.009 A 
BRANCH   4   8
HETATM    8  N   UNL     1      -0.935   6.904 -29.796  1.00  0.00    -0.327 N 
HETATM    9  C   UNL     1       0.021   6.089 -29.216  1.00  0.00     0.226 C 
HETATM   10  O   UNL     1       0.348   4.986 -29.650  1.00  0.00    -0.273 OA
HETATM   11  H   UNL     1      -1.319   7.649 -29.235  1.00  0.00     0.169 HD
BRANCH   9  12
HETATM   12  C   UNL     1       0.760   6.707 -28.012  1.00  0.00     0.074 C 
HETATM   13  C   UNL     1      -0.064   6.509 -26.734  1.00  0.00     0.020 C 
BRANCH  12  14
HETATM   14  C   UNL     1       1.222   8.168 -28.148  1.00  0.00     0.009 C 
HETATM   15  C   UNL     1       1.729   8.803 -26.862  1.00  0.00     0.006 C 
ENDBRANCH  12  14
ENDBRANCH   9  12
ENDBRANCH   4   8
ENDBRANCH   1   2
BRANCH   1  16
HETATM   16  N   UNL     1      -3.907   3.335 -32.786  1.00  0.00    -0.351 N 
HETATM   17  C   UNL     1      -4.072   2.480 -31.715  1.00  0.00     0.273 C 
HETATM   18  O   UNL     1      -4.375   2.872 -30.590  1.00  0.00    -0.266 OA
HETATM   19  H   UNL     1      -3.823   2.884 -33.693  1.00  0.00     0.163 HD
BRANCH  17  20
HETATM   20  C   UNL     1      -3.889   1.060 -32.050  1.00  0.00     0.157 A 
HETATM   21  N   UNL     1      -2.847   0.344 -31.571  1.00  0.00    -0.168 NA
HETATM   22  N   UNL     1      -3.022  -0.875 -32.113  1.00  0.00    -0.277 N 
HETATM   23  H   UNL     1      -2.348  -1.599 -31.892  1.00  0.00     0.189 HD
HETATM   24  C   UNL     1      -4.116  -0.985 -32.925  1.00  0.00     0.063 A 
HETATM   25  C   UNL     1      -4.713   0.270 -32.905  1.00  0.00     0.029 A 
HETATM   26  C   UNL     1      -4.623  -2.057 -33.665  1.00  0.00     0.032 A 
HETATM   27  C   UNL     1      -5.882   0.477 -33.663  1.00  0.00     0.023 A 
HETATM   28  C   UNL     1      -6.416  -0.578 -34.422  1.00  0.00    -0.061 A 
HETATM   29  C   UNL     1      -5.784  -1.828 -34.414  1.00  0.00     0.009 A 
HETATM   30  C   UNL     1      -7.658  -0.345 -35.232  1.00  0.00     0.048 C 
ENDBRANCH  17  20
ENDBRANCH   1  16
TORSDOF 6
ENDMDL
MODEL 5
REMARK VINA RESULT:      -8.9      1.723      2.331
REMARK  6 active torsions:
REMARK  status: ('A' for Active; 'I' for Inactive)
REMARK    1  A    between atoms: C_2  and  C_3 
REMARK    2  A    between atoms: C_3  and  C_4 
REMARK       I    between atoms: C_4  and  N_5 
REMARK    3  A    between atoms: N_5  and  C_6 
REMARK    4  A    between atoms: C_8  and  C_9 
REMARK    5  A    between atoms: C_9  and  N_10 
REMARK       I    between atoms: N_10  and  C_11 
REMARK    6  A    between atoms: C_11  and  C_12 
ROOT
HETATM    1  C   UNL     1      -4.672   3.061 -31.795  1.00  0.00     0.161 C 
ENDROOT
BRANCH   1   2
HETATM    2  C   UNL     1      -3.543   3.925 -32.285  1.00  0.00    -0.038 A 
HETATM    3  C   UNL     1      -2.624   4.476 -31.376  1.00  0.00     0.038 A 
HETATM    4  C   UNL     1      -1.508   5.188 -31.826  1.00  0.00     0.035 A 
HETATM    5  C   UNL     1      -1.324   5.364 -33.202  1.00  0.00     0.029 A 
HETATM    6  C   UNL     1      -2.256   4.861 -34.112  1.00  0.00     0.003 A 
HETATM    7  C   UNL     1      -3.360   4.143 -33.657  1.00  0.00     0.009 A 
BRANCH   4   8
HETATM    8  N   UNL     1      -0.508   5.686 -30.964  1.00  0.00    -0.327 N 
HETATM    9  C   UNL     1      -0.467   6.942 -30.385  1.00  0.00     0.226 C 
HETATM   10  O   UNL     1      -1.233   7.861 -30.668  1.00  0.00    -0.273 OA
HETATM   11  H   UNL     1       0.307   5.099 -30.868  1.00  0.00     0.169 HD
BRANCH   9  12
HETATM   12  C   UNL     1       0.559   7.100 -29.244  1.00  0.00     0.074 C 
HETATM   13  C   UNL     1       0.639   5.803 -28.430  1.00  0.00     0.020 C 
BRANCH  12  14
HETATM   14  C   UNL     1       0.398   8.320 -28.322  1.00  0.00     0.009 C 
HETATM   15  C   UNL     1       1.659   8.735 -27.579  1.00  0.00     0.006 C 
ENDBRANCH  12  14
ENDBRANCH   9  12
ENDBRANCH   4   8
ENDBRANCH   1   2
BRANCH   1  16
HETATM   16  N   UNL     1      -5.093   2.093 -32.769  1.00  0.00    -0.351 N 
HETATM   17  C   UNL     1      -4.998   0.745 -32.485  1.00  0.00     0.273 C 
HETATM   18  O   UNL     1      -4.362   0.309 -31.529  1.00  0.00    -0.266 OA
HETATM   19  H   UNL     1      -5.776   2.340 -33.479  1.00  0.00     0.163 HD
BRANCH  17  20
HETATM   20  C   UNL     1      -5.756  -0.115 -33.407  1.00  0.00     0.157 A 
HETATM   21  N   UNL     1      -6.887   0.311 -34.011  1.00  0.00    -0.168 NA
HETATM   22  N   UNL     1      -7.279  -0.750 -34.737  1.00  0.00    -0.277 N 
HETATM   23  H   UNL     1      -8.125  -0.667 -35.290  1.00  0.00     0.189 HD
HETATM   24  C   UNL     1      -6.468  -1.846 -34.629  1.00  0.00     0.063 A 
HETATM   25  C   UNL     1      -5.452  -1.462 -33.763  1.00  0.00     0.029 A 
HETATM   26  C   UNL     1      -6.540  -3.117 -35.205  1.00  0.00     0.032 A 
HETATM   27  C   UNL     1      -4.445  -2.394 -33.445  1.00  0.00     0.023 A 
HETATM   28  C   UNL     1      -4.488  -3.683 -34.003  1.00  0.00    -0.061 A 
HETATM   29  C   UNL     1      -5.529  -4.028 -34.873  1.00  0.00     0.009 A 
HETATM   30  C   UNL     1      -3.414  -4.671 -33.652  1.00  0.00     0.048 C 
ENDBRANCH  17  20
ENDBRANCH   1  16
TORSDOF 6
ENDMDL
MODEL 6
REMARK VINA RESULT:      -8.7      2.954      9.614
REMARK  6 active torsions:
REMARK  status: ('A' for Active; 'I' for Inactive)
REMARK    1  A    between atoms: C_2  and  C_3 
REMARK    2  A    between atoms: C_3  and  C_4 
REMARK       I    between atoms: C_4  and  N_5 
REMARK    3  A    between atoms: N_5  and  C_6 
REMARK    4  A    between atoms: C_8  and  C_9 
REMARK    5  A    between atoms: C_9  and  N_10 
REMARK       I    between atoms: N_10  and  C_11 
REMARK    6  A    between atoms: C_11  and  C_12 
ROOT
HETATM    1  C   UNL     1      -6.929   3.250 -33.662  1.00  0.00     0.161 C 
ENDROOT
BRANCH   1   2
HETATM    2  C   UNL     1      -6.609   2.019 -32.858  1.00  0.00    -0.038 A 
HETATM    3  C   UNL     1      -6.251   0.823 -33.503  1.00  0.00     0.038 A 
HETATM    4  C   UNL     1      -5.845  -0.295 -32.768  1.00  0.00     0.035 A 
HETATM    5  C   UNL     1      -5.817  -0.216 -31.372  1.00  0.00     0.029 A 
HETATM    6  C   UNL     1      -6.216   0.952 -30.719  1.00  0.00     0.003 A 
HETATM    7  C   UNL     1      -6.609   2.065 -31.458  1.00  0.00     0.009 A 
BRANCH   4   8
HETATM    8  N   UNL     1      -5.389  -1.490 -33.364  1.00  0.00    -0.327 N 
HETATM    9  C   UNL     1      -6.125  -2.346 -34.164  1.00  0.00     0.226 C 
HETATM   10  O   UNL     1      -7.339  -2.256 -34.344  1.00  0.00    -0.273 OA
HETATM   11  H   UNL     1      -4.474  -1.795 -33.071  1.00  0.00     0.169 HD
BRANCH   9  12
HETATM   12  C   UNL     1      -5.295  -3.392 -34.936  1.00  0.00     0.074 C 
HETATM   13  C   UNL     1      -6.159  -4.621 -35.245  1.00  0.00     0.020 C 
BRANCH  12  14
HETATM   14  C   UNL     1      -3.947  -3.808 -34.323  1.00  0.00     0.009 C 
HETATM   15  C   UNL     1      -3.966  -5.125 -33.562  1.00  0.00     0.006 C 
ENDBRANCH  12  14
ENDBRANCH   9  12
ENDBRANCH   4   8
ENDBRANCH   1   2
BRANCH   1  16
HETATM   16  N   UNL     1      -5.752   3.942 -34.107  1.00  0.00    -0.351 N 
HETATM   17  C   UNL     1      -5.482   5.212 -33.638  1.00  0.00     0.273 C 
HETATM   18  O   UNL     1      -6.308   5.887 -33.029  1.00  0.00    -0.266 OA
HETATM   19  H   UNL     1      -4.946   3.423 -34.445  1.00  0.00     0.163 HD
BRANCH  17  20
HETATM   20  C   UNL     1      -4.108   5.667 -33.902  1.00  0.00     0.157 A 
HETATM   21  N   UNL     1      -3.556   5.592 -35.133  1.00  0.00    -0.168 NA
HETATM   22  N   UNL     1      -2.314   6.074 -34.956  1.00  0.00    -0.277 N 
HETATM   23  H   UNL     1      -1.696   6.117 -35.759  1.00  0.00     0.189 HD
HETATM   24  C   UNL     1      -2.025   6.448 -33.673  1.00  0.00     0.063 A 
HETATM   25  C   UNL     1      -3.186   6.197 -32.951  1.00  0.00     0.029 A 
HETATM   26  C   UNL     1      -0.867   6.973 -33.094  1.00  0.00     0.032 A 
HETATM   27  C   UNL     1      -3.201   6.481 -31.572  1.00  0.00     0.023 A 
HETATM   28  C   UNL     1      -2.052   7.006 -30.956  1.00  0.00    -0.061 A 
HETATM   29  C   UNL     1      -0.903   7.246 -31.721  1.00  0.00     0.009 A 
HETATM   30  C   UNL     1      -2.076   7.299 -29.484  1.00  0.00     0.048 C 
ENDBRANCH  17  20
ENDBRANCH   1  16
TORSDOF 6
ENDMDL
MODEL 7
REMARK VINA RESULT:      -8.7      2.376      9.879
REMARK  6 active torsions:
REMARK  status: ('A' for Active; 'I' for Inactive)
REMARK    1  A    between atoms: C_2  and  C_3 
REMARK    2  A    between atoms: C_3  and  C_4 
REMARK       I    between atoms: C_4  and  N_5 
REMARK    3  A    between atoms: N_5  and  C_6 
REMARK    4  A    between atoms: C_8  and  C_9 
REMARK    5  A    between atoms: C_9  and  N_10 
REMARK       I    between atoms: N_10  and  C_11 
REMARK    6  A    between atoms: C_11  and  C_12 
ROOT
HETATM    1  C   UNL     1      -3.890   5.071 -31.746  1.00  0.00     0.161 C 
ENDROOT
BRANCH   1   2
HETATM    2  C   UNL     1      -4.878   3.949 -31.584  1.00  0.00    -0.038 A 
HETATM    3  C   UNL     1      -5.242   3.158 -32.687  1.00  0.00     0.038 A 
HETATM    4  C   UNL     1      -6.073   2.045 -32.530  1.00  0.00     0.035 A 
HETATM    5  C   UNL     1      -6.558   1.735 -31.255  1.00  0.00     0.029 A 
HETATM    6  C   UNL     1      -6.241   2.540 -30.160  1.00  0.00     0.003 A 
HETATM    7  C   UNL     1      -5.404   3.642 -30.323  1.00  0.00     0.009 A 
BRANCH   4   8
HETATM    8  N   UNL     1      -6.398   1.166 -33.585  1.00  0.00    -0.327 N 
HETATM    9  C   UNL     1      -5.800  -0.051 -33.858  1.00  0.00     0.226 C 
HETATM   10  O   UNL     1      -4.787  -0.468 -33.300  1.00  0.00    -0.273 OA
HETATM   11  H   UNL     1      -7.049   1.531 -34.263  1.00  0.00     0.169 HD
BRANCH   9  12
HETATM   12  C   UNL     1      -6.562  -0.940 -34.862  1.00  0.00     0.074 C 
HETATM   13  C   UNL     1      -7.851  -0.239 -35.309  1.00  0.00     0.020 C 
BRANCH  12  14
HETATM   14  C   UNL     1      -6.845  -2.392 -34.440  1.00  0.00     0.009 C 
HETATM   15  C   UNL     1      -5.870  -3.423 -34.989  1.00  0.00     0.006 C 
ENDBRANCH  12  14
ENDBRANCH   9  12
ENDBRANCH   4   8
ENDBRANCH   1   2
BRANCH   1  16
HETATM   16  N   UNL     1      -2.777   4.964 -30.844  1.00  0.00    -0.351 N 
HETATM   17  C   UNL     1      -1.495   5.188 -31.304  1.00  0.00     0.273 C 
HETATM   18  O   UNL     1      -1.218   5.254 -32.499  1.00  0.00    -0.266 OA
HETATM   19  H   UNL     1      -2.911   5.096 -29.845  1.00  0.00     0.163 HD
BRANCH  17  20
HETATM   20  C   UNL     1      -0.502   5.375 -30.235  1.00  0.00     0.157 A 
HETATM   21  N   UNL     1       0.404   4.421 -29.929  1.00  0.00    -0.168 NA
HETATM   22  N   UNL     1       1.099   4.955 -28.909  1.00  0.00    -0.277 N 
HETATM   23  H   UNL     1       1.851   4.409 -28.503  1.00  0.00     0.189 HD
HETATM   24  C   UNL     1       0.685   6.202 -28.530  1.00  0.00     0.063 A 
HETATM   25  C   UNL     1      -0.366   6.513 -29.384  1.00  0.00     0.029 A 
HETATM   26  C   UNL     1       1.134   7.067 -27.528  1.00  0.00     0.032 A 
HETATM   27  C   UNL     1      -1.015   7.754 -29.238  1.00  0.00     0.023 A 
HETATM   28  C   UNL     1      -0.592   8.646 -28.238  1.00  0.00    -0.061 A 
HETATM   29  C   UNL     1       0.473   8.295 -27.399  1.00  0.00     0.009 A 
HETATM   30  C   UNL     1      -1.295   9.964 -28.085  1.00  0.00     0.048 C 
ENDBRANCH  17  20
ENDBRANCH   1  16
TORSDOF 6
ENDMDL
MODEL 8
REMARK VINA RESULT:      -8.6      2.509      9.379
REMARK  6 active torsions:
REMARK  status: ('A' for Active; 'I' for Inactive)
REMARK    1  A    between atoms: C_2  and  C_3 
REMARK    2  A    between atoms: C_3  and  C_4 
REMARK       I    between atoms: C_4  and  N_5 
REMARK    3  A    between atoms: N_5  and  C_6 
REMARK    4  A    between atoms: C_8  and  C_9 
REMARK    5  A    between atoms: C_9  and  N_10 
REMARK       I    between atoms: N_10  and  C_11 
REMARK    6  A    between atoms: C_11  and  C_12 
ROOT
HETATM    1  C   UNL     1      -5.496   1.732 -30.624  1.00  0.00     0.161 C 
ENDROOT
BRANCH   1   2
HETATM    2  C   UNL     1      -6.421   0.981 -31.543  1.00  0.00    -0.038 A 
HETATM    3  C   UNL     1      -5.934  -0.071 -32.337  1.00  0.00     0.038 A 
HETATM    4  C   UNL     1      -6.802  -0.847 -33.111  1.00  0.00     0.035 A 
HETATM    5  C   UNL     1      -8.169  -0.550 -33.103  1.00  0.00     0.029 A 
HETATM    6  C   UNL     1      -8.658   0.523 -32.355  1.00  0.00     0.003 A 
HETATM    7  C   UNL     1      -7.788   1.285 -31.577  1.00  0.00     0.009 A 
BRANCH   4   8
HETATM    8  N   UNL     1      -6.381  -1.970 -33.855  1.00  0.00    -0.327 N 
HETATM    9  C   UNL     1      -5.082  -2.288 -34.205  1.00  0.00     0.226 C 
HETATM   10  O   UNL     1      -4.116  -1.545 -34.040  1.00  0.00    -0.273 OA
HETATM   11  H   UNL     1      -7.124  -2.516 -34.264  1.00  0.00     0.169 HD
BRANCH   9  12
HETATM   12  C   UNL     1      -4.882  -3.724 -34.733  1.00  0.00     0.074 C 
HETATM   13  C   UNL     1      -6.226  -4.464 -34.756  1.00  0.00     0.020 C 
BRANCH  12  14
HETATM   14  C   UNL     1      -3.797  -4.576 -34.054  1.00  0.00     0.009 C 
HETATM   15  C   UNL     1      -3.452  -4.163 -32.631  1.00  0.00     0.006 C 
ENDBRANCH  12  14
ENDBRANCH   9  12
ENDBRANCH   4   8
ENDBRANCH   1   2
BRANCH   1  16
HETATM   16  N   UNL     1      -5.005   2.950 -31.206  1.00  0.00    -0.351 N 
HETATM   17  C   UNL     1      -3.817   2.947 -31.909  1.00  0.00     0.273 C 
HETATM   18  O   UNL     1      -3.029   2.005 -31.880  1.00  0.00    -0.266 OA
HETATM   19  H   UNL     1      -5.646   3.704 -31.438  1.00  0.00     0.163 HD
BRANCH  17  20
HETATM   20  C   UNL     1      -3.600   4.154 -32.721  1.00  0.00     0.157 A 
HETATM   21  N   UNL     1      -4.408   4.471 -33.757  1.00  0.00    -0.168 NA
HETATM   22  N   UNL     1      -3.875   5.605 -34.242  1.00  0.00    -0.277 N 
HETATM   23  H   UNL     1      -4.321   6.042 -35.041  1.00  0.00     0.189 HD
HETATM   24  C   UNL     1      -2.757   6.036 -33.583  1.00  0.00     0.063 A 
HETATM   25  C   UNL     1      -2.549   5.106 -32.572  1.00  0.00     0.029 A 
HETATM   26  C   UNL     1      -1.925   7.141 -33.785  1.00  0.00     0.032 A 
HETATM   27  C   UNL     1      -1.449   5.278 -31.709  1.00  0.00     0.023 A 
HETATM   28  C   UNL     1      -0.590   6.376 -31.887  1.00  0.00    -0.061 A 
HETATM   29  C   UNL     1      -0.837   7.291 -32.917  1.00  0.00     0.009 A 
HETATM   30  C   UNL     1       0.583   6.546 -30.965  1.00  0.00     0.048 C 
ENDBRANCH  17  20
ENDBRANCH   1  16
TORSDOF 6
ENDMDL
MODEL 9
REMARK VINA RESULT:      -8.6      5.193      8.495
REMARK  6 active torsions:
REMARK  status: ('A' for Active; 'I' for Inactive)
REMARK    1  A    between atoms: C_2  and  C_3 
REMARK    2  A    between atoms: C_3  and  C_4 
REMARK       I    between atoms: C_4  and  N_5 
REMARK    3  A    between atoms: N_5  and  C_6 
REMARK    4  A    between atoms: C_8  and  C_9 
REMARK    5  A    between atoms: C_9  and  N_10 
REMARK       I    between atoms: N_10  and  C_11 
REMARK    6  A    between atoms: C_11  and  C_12 
ROOT
HETATM    1  C   UNL     1      -6.364   3.018 -32.896  1.00  0.00     0.161 C 
ENDROOT
BRANCH   1   2
HETATM    2  C   UNL     1      -7.655   3.275 -32.167  1.00  0.00    -0.038 A 
HETATM    3  C   UNL     1      -8.875   2.831 -32.704  1.00  0.00     0.038 A 
HETATM    4  C   UNL     1     -10.067   2.966 -31.986  1.00  0.00     0.035 A 
HETATM    5  C   UNL     1     -10.035   3.569 -30.725  1.00  0.00     0.029 A 
HETATM    6  C   UNL     1      -8.836   4.057 -30.201  1.00  0.00     0.003 A 
HETATM    7  C   UNL     1      -7.650   3.910 -30.919  1.00  0.00     0.009 A 
BRANCH   4   8
HETATM    8  N   UNL     1     -11.304   2.458 -32.437  1.00  0.00    -0.327 N 
HETATM    9  C   UNL     1     -12.263   3.145 -33.159  1.00  0.00     0.226 C 
HETATM   10  O   UNL     1     -12.233   4.354 -33.381  1.00  0.00    -0.273 OA
HETATM   11  H   UNL     1     -11.546   1.544 -32.087  1.00  0.00     0.169 HD
BRANCH   9  12
HETATM   12  C   UNL     1     -13.360   2.262 -33.790  1.00  0.00     0.074 C 
HETATM   13  C   UNL     1     -14.513   2.072 -32.797  1.00  0.00     0.020 C 
BRANCH  12  14
HETATM   14  C   UNL     1     -12.919   0.913 -34.384  1.00  0.00     0.009 C 
HETATM   15  C   UNL     1     -13.462  -0.313 -33.668  1.00  0.00     0.006 C 
ENDBRANCH  12  14
ENDBRANCH   9  12
ENDBRANCH   4   8
ENDBRANCH   1   2
BRANCH   1  16
HETATM   16  N   UNL     1      -5.792   1.740 -32.576  1.00  0.00    -0.351 N 
HETATM   17  C   UNL     1      -5.776   0.736 -33.523  1.00  0.00     0.273 C 
HETATM   18  O   UNL     1      -6.428   0.790 -34.563  1.00  0.00    -0.266 OA
HETATM   19  H   UNL     1      -5.091   1.660 -31.845  1.00  0.00     0.163 HD
BRANCH  17  20
HETATM   20  C   UNL     1      -4.881  -0.384 -33.191  1.00  0.00     0.157 A 
HETATM   21  N   UNL     1      -3.798  -0.221 -32.400  1.00  0.00    -0.168 NA
HETATM   22  N   UNL     1      -3.246  -1.446 -32.359  1.00  0.00    -0.277 N 
HETATM   23  H   UNL     1      -2.401  -1.573 -31.813  1.00  0.00     0.189 HD
HETATM   24  C   UNL     1      -3.906  -2.393 -33.091  1.00  0.00     0.063 A 
HETATM   25  C   UNL     1      -4.991  -1.730 -33.651  1.00  0.00     0.029 A 
HETATM   26  C   UNL     1      -3.648  -3.749 -33.307  1.00  0.00     0.032 A 
HETATM   27  C   UNL     1      -5.875  -2.452 -34.476  1.00  0.00     0.023 A 
HETATM   28  C   UNL     1      -5.643  -3.817 -34.719  1.00  0.00    -0.061 A 
HETATM   29  C   UNL     1      -4.538  -4.447 -34.134  1.00  0.00     0.009 A 
HETATM   30  C   UNL     1      -6.586  -4.576 -35.606  1.00  0.00     0.048 C 
ENDBRANCH  17  20
ENDBRANCH   1  16
TORSDOF 6
ENDMDL
MODEL 10
REMARK VINA RESULT:      -8.5      4.305      7.806
REMARK  6 active torsions:
REMARK  status: ('A' for Active; 'I' for Inactive)
REMARK    1  A    between atoms: C_2  and  C_3 
REMARK    2  A    between atoms: C_3  and  C_4 
REMARK       I    between atoms: C_4  and  N_5 
REMARK    3  A    between atoms: N_5  and  C_6 
REMARK    4  A    between atoms: C_8  and  C_9 
REMARK    5  A    between atoms: C_9  and  N_10 
REMARK       I    between atoms: N_10  and  C_11 
REMARK    6  A    between atoms: C_11  and  C_12 
ROOT
HETATM    1  C   UNL     1      -5.193   3.872 -30.448  1.00  0.00     0.161 C 
ENDROOT
BRANCH   1   2
HETATM    2  C   UNL     1      -6.663   4.188 -30.399  1.00  0.00    -0.038 A 
HETATM    3  C   UNL     1      -7.587   3.375 -31.076  1.00  0.00     0.038 A 
HETATM    4  C   UNL     1      -8.962   3.592 -30.949  1.00  0.00     0.035 A 
HETATM    5  C   UNL     1      -9.412   4.647 -30.149  1.00  0.00     0.029 A 
HETATM    6  C   UNL     1      -8.502   5.491 -29.509  1.00  0.00     0.003 A 
HETATM    7  C   UNL     1      -7.133   5.262 -29.632  1.00  0.00     0.009 A 
BRANCH   4   8
HETATM    8  N   UNL     1      -9.936   2.754 -31.533  1.00  0.00    -0.327 N 
HETATM    9  C   UNL     1     -10.265   2.682 -32.874  1.00  0.00     0.226 C 
HETATM   10  O   UNL     1      -9.853   3.459 -33.733  1.00  0.00    -0.273 OA
HETATM   11  H   UNL     1     -10.519   2.253 -30.880  1.00  0.00     0.169 HD
BRANCH   9  12
HETATM   12  C   UNL     1     -11.124   1.463 -33.270  1.00  0.00     0.074 C 
HETATM   13  C   UNL     1     -10.309   0.174 -33.106  1.00  0.00     0.020 C 
BRANCH  12  14
HETATM   14  C   UNL     1     -11.813   1.507 -34.645  1.00  0.00     0.009 C 
HETATM   15  C   UNL     1     -13.263   1.048 -34.652  1.00  0.00     0.006 C 
ENDBRANCH  12  14
ENDBRANCH   9  12
ENDBRANCH   4   8
ENDBRANCH   1   2
BRANCH   1  16
HETATM   16  N   UNL     1      -4.920   2.592 -31.040  1.00  0.00    -0.351 N 
HETATM   17  C   UNL     1      -3.620   2.234 -31.335  1.00  0.00     0.273 C 
HETATM   18  O   UNL     1      -2.690   3.036 -31.331  1.00  0.00    -0.266 OA
HETATM   19  H   UNL     1      -5.566   1.819 -30.912  1.00  0.00     0.163 HD
BRANCH  17  20
HETATM   20  C   UNL     1      -3.445   0.801 -31.617  1.00  0.00     0.157 A 
HETATM   21  N   UNL     1      -2.452   0.079 -31.052  1.00  0.00    -0.168 NA
HETATM   22  N   UNL     1      -2.617  -1.151 -31.570  1.00  0.00    -0.277 N 
HETATM   23  H   UNL     1      -1.974  -1.881 -31.286  1.00  0.00     0.189 HD
HETATM   24  C   UNL     1      -3.658  -1.264 -32.449  1.00  0.00     0.063 A 
HETATM   25  C   UNL     1      -4.229   0.002 -32.503  1.00  0.00     0.029 A 
HETATM   26  C   UNL     1      -4.138  -2.347 -33.190  1.00  0.00     0.032 A 
HETATM   27  C   UNL     1      -5.341   0.210 -33.341  1.00  0.00     0.023 A 
HETATM   28  C   UNL     1      -5.846  -0.857 -34.104  1.00  0.00    -0.061 A 
HETATM   29  C   UNL     1      -5.243  -2.118 -34.020  1.00  0.00     0.009 A 
HETATM   30  C   UNL     1      -7.028  -0.624 -35.000  1.00  0.00     0.048 C 
ENDBRANCH  17  20
ENDBRANCH   1  16
TORSDOF 6
ENDMDL
