MODEL 1
REMARK VINA RESULT:      -8.0      0.000      0.000
REMARK  6 active torsions:
REMARK  status: ('A' for Active; 'I' for Inactive)
REMARK    1  A    between atoms: C_2  and  C_3 
REMARK    2  A    between atoms: C_3  and  N_4 
REMARK    3  A    between atoms: C_3  and  C_17 
REMARK    4  A    between atoms: N_4  and  C_5 
REMARK    5  A    between atoms: C_5  and  C_6 
REMARK       I    between atoms: C_6  and  N_7 
REMARK    6  A    between atoms: N_7  and  C_8 
ROOT
HETATM    1  N   UNL     1      -4.647   1.353 -32.596  1.00  0.00     0.101 N 
HETATM    2  H   UNL     1      -5.403   2.030 -32.478  1.00  0.00     0.317 HD
ENDROOT
BRANCH   1   3
HETATM    3  C   UNL     1      -5.059   0.078 -31.971  1.00  0.00     0.256 C 
BRANCH   3   4
HETATM    4  C   UNL     1      -6.265   0.233 -31.008  1.00  0.00     0.036 C 
HETATM    5  C   UNL     1      -5.917   0.652 -29.582  1.00  0.00     0.007 C 
ENDBRANCH   3   4
BRANCH   3   6
HETATM    6  C   UNL     1      -5.325  -1.006 -33.011  1.00  0.00     0.013 A 
HETATM    7  C   UNL     1      -4.298  -1.914 -33.321  1.00  0.00     0.127 A 
HETATM    8  F   UNL     1      -3.107  -1.801 -32.715  1.00  0.00    -0.205 F 
HETATM    9  C   UNL     1      -4.476  -2.943 -34.239  1.00  0.00     0.085 A 
HETATM   10  C   UNL     1      -5.701  -3.069 -34.872  1.00  0.00     0.119 A 
HETATM   11  F   UNL     1      -5.889  -4.055 -35.759  1.00  0.00    -0.206 F 
HETATM   12  C   UNL     1      -6.743  -2.190 -34.598  1.00  0.00     0.043 A 
HETATM   13  C   UNL     1      -6.559  -1.161 -33.668  1.00  0.00     0.015 A 
ENDBRANCH   3   6
ENDBRANCH   1   3
BRANCH   1  14
HETATM   14  C   UNL     1      -3.435   1.914 -31.955  1.00  0.00     0.372 C 
BRANCH  14  15
HETATM   15  C   UNL     1      -3.406   3.443 -32.102  1.00  0.00     0.250 C 
HETATM   16  N   UNL     1      -2.344   3.874 -32.869  1.00  0.00    -0.322 N 
HETATM   17  H   UNL     1      -1.711   3.136 -33.163  1.00  0.00     0.169 HD
HETATM   18  O   UNL     1      -4.241   4.139 -31.536  1.00  0.00    -0.271 OA
BRANCH  16  19
HETATM   19  C   UNL     1      -2.053   5.163 -33.271  1.00  0.00     0.085 A 
HETATM   20  C   UNL     1      -1.157   6.167 -32.800  1.00  0.00     0.079 A 
HETATM   21  C   UNL     1      -0.211   6.158 -31.655  1.00  0.00     0.075 C 
HETATM   22  N   UNL     1      -1.251   7.289 -33.532  1.00  0.00    -0.177 NA
HETATM   23  N   UNL     1      -2.182   7.009 -34.447  1.00  0.00    -0.280 N 
HETATM   24  H   UNL     1      -2.415   7.730 -35.122  1.00  0.00     0.189 HD
HETATM   25  C   UNL     1      -2.709   5.754 -34.336  1.00  0.00     0.052 A 
HETATM   26  C   UNL     1      -3.760   5.268 -35.258  1.00  0.00     0.072 C 
ENDBRANCH  16  19
ENDBRANCH  14  15
ENDBRANCH   1  14
TORSDOF 6
ENDMDL
MODEL 2
REMARK VINA RESULT:      -8.0      4.769      7.233
REMARK  6 active torsions:
REMARK  status: ('A' for Active; 'I' for Inactive)
REMARK    1  A    between atoms: C_2  and  C_3 
REMARK    2  A    between atoms: C_3  and  N_4 
REMARK    3  A    between atoms: C_3  and  C_17 
REMARK    4  A    between atoms: N_4  and  C_5 
REMARK    5  A    between atoms: C_5  and  C_6 
REMARK       I    between atoms: C_6  and  N_7 
REMARK    6  A    between atoms: N_7  and  C_8 
ROOT
HETATM    1  N   UNL     1      -7.070   1.225 -32.995  1.00  0.00     0.101 N 
HETATM    2  H   UNL     1      -7.185   0.969 -33.977  1.00  0.00     0.317 HD
ENDROOT
BRANCH   1   3
HETATM    3  C   UNL     1      -6.155   0.252 -32.361  1.00  0.00     0.256 C 
BRANCH   3   4
HETATM    4  C   UNL     1      -6.558  -0.106 -30.906  1.00  0.00     0.036 C 
HETATM    5  C   UNL     1      -5.763   0.600 -29.812  1.00  0.00     0.007 C 
ENDBRANCH   3   4
BRANCH   3   6
HETATM    6  C   UNL     1      -5.988  -1.007 -33.207  1.00  0.00     0.013 A 
HETATM    7  C   UNL     1      -4.709  -1.579 -33.323  1.00  0.00     0.127 A 
HETATM    8  F   UNL     1      -3.666  -1.003 -32.708  1.00  0.00    -0.205 F 
HETATM    9  C   UNL     1      -4.485  -2.739 -34.056  1.00  0.00     0.085 A 
HETATM   10  C   UNL     1      -5.554  -3.342 -34.696  1.00  0.00     0.119 A 
HETATM   11  F   UNL     1      -5.355  -4.461 -35.406  1.00  0.00    -0.206 F 
HETATM   12  C   UNL     1      -6.835  -2.807 -34.611  1.00  0.00     0.043 A 
HETATM   13  C   UNL     1      -7.054  -1.643 -33.867  1.00  0.00     0.015 A 
ENDBRANCH   3   6
ENDBRANCH   1   3
BRANCH   1  14
HETATM   14  C   UNL     1      -8.412   1.210 -32.366  1.00  0.00     0.372 C 
BRANCH  14  15
HETATM   15  C   UNL     1      -9.511   1.193 -33.440  1.00  0.00     0.250 C 
HETATM   16  N   UNL     1     -10.739   1.563 -32.935  1.00  0.00    -0.322 N 
HETATM   17  H   UNL     1     -10.751   1.724 -31.931  1.00  0.00     0.169 HD
HETATM   18  O   UNL     1      -9.257   0.839 -34.585  1.00  0.00    -0.271 OA
BRANCH  16  19
HETATM   19  C   UNL     1     -11.925   1.734 -33.622  1.00  0.00     0.085 A 
HETATM   20  C   UNL     1     -13.022   0.876 -33.930  1.00  0.00     0.079 A 
HETATM   21  C   UNL     1     -13.248  -0.556 -33.609  1.00  0.00     0.075 C 
HETATM   22  N   UNL     1     -13.955   1.515 -34.653  1.00  0.00    -0.177 NA
HETATM   23  N   UNL     1     -13.468   2.750 -34.803  1.00  0.00    -0.280 N 
HETATM   24  H   UNL     1     -14.024   3.418 -35.326  1.00  0.00     0.189 HD
HETATM   25  C   UNL     1     -12.250   2.939 -34.218  1.00  0.00     0.052 A 
HETATM   26  C   UNL     1     -11.548   4.242 -34.286  1.00  0.00     0.072 C 
ENDBRANCH  16  19
ENDBRANCH  14  15
ENDBRANCH   1  14
TORSDOF 6
ENDMDL
MODEL 3
REMARK VINA RESULT:      -7.8      4.743      7.051
REMARK  6 active torsions:
REMARK  status: ('A' for Active; 'I' for Inactive)
REMARK    1  A    between atoms: C_2  and  C_3 
REMARK    2  A    between atoms: C_3  and  N_4 
REMARK    3  A    between atoms: C_3  and  C_17 
REMARK    4  A    between atoms: N_4  and  C_5 
REMARK    5  A    between atoms: C_5  and  C_6 
REMARK       I    between atoms: C_6  and  N_7 
REMARK    6  A    between atoms: N_7  and  C_8 
ROOT
HETATM    1  N   UNL     1      -7.661   0.265 -33.439  1.00  0.00     0.101 N 
HETATM    2  H   UNL     1      -8.179  -0.420 -33.991  1.00  0.00     0.317 HD
ENDROOT
BRANCH   1   3
HETATM    3  C   UNL     1      -6.349  -0.317 -33.082  1.00  0.00     0.256 C 
BRANCH   3   4
HETATM    4  C   UNL     1      -6.125  -0.424 -31.551  1.00  0.00     0.036 C 
HETATM    5  C   UNL     1      -4.939   0.365 -31.004  1.00  0.00     0.007 C 
ENDBRANCH   3   4
BRANCH   3   6
HETATM    6  C   UNL     1      -6.119  -1.662 -33.764  1.00  0.00     0.013 A 
HETATM    7  C   UNL     1      -4.798  -2.090 -33.989  1.00  0.00     0.127 A 
HETATM    8  F   UNL     1      -3.775  -1.306 -33.620  1.00  0.00    -0.205 F 
HETATM    9  C   UNL     1      -4.511  -3.314 -34.582  1.00  0.00     0.085 A 
HETATM   10  C   UNL     1      -5.560  -4.131 -34.968  1.00  0.00     0.119 A 
HETATM   11  F   UNL     1      -5.301  -5.314 -35.541  1.00  0.00    -0.206 F 
HETATM   12  C   UNL     1      -6.881  -3.745 -34.768  1.00  0.00     0.043 A 
HETATM   13  C   UNL     1      -7.162  -2.514 -34.165  1.00  0.00     0.015 A 
ENDBRANCH   3   6
ENDBRANCH   1   3
BRANCH   1  14
HETATM   14  C   UNL     1      -8.468   0.579 -32.236  1.00  0.00     0.372 C 
BRANCH  14  15
HETATM   15  C   UNL     1      -9.654   1.484 -32.605  1.00  0.00     0.250 C 
HETATM   16  N   UNL     1     -10.337   1.024 -33.711  1.00  0.00    -0.322 N 
HETATM   17  H   UNL     1      -9.924   0.206 -34.151  1.00  0.00     0.169 HD
HETATM   18  O   UNL     1      -9.880   2.506 -31.968  1.00  0.00    -0.271 OA
BRANCH  16  19
HETATM   19  C   UNL     1     -11.490   1.536 -34.272  1.00  0.00     0.085 A 
HETATM   20  C   UNL     1     -11.793   2.728 -34.994  1.00  0.00     0.079 A 
HETATM   21  C   UNL     1     -10.927   3.871 -35.379  1.00  0.00     0.075 C 
HETATM   22  N   UNL     1     -13.094   2.783 -35.324  1.00  0.00    -0.177 NA
HETATM   23  N   UNL     1     -13.608   1.655 -34.828  1.00  0.00    -0.280 N 
HETATM   24  H   UNL     1     -14.598   1.484 -34.968  1.00  0.00     0.189 HD
HETATM   25  C   UNL     1     -12.700   0.871 -34.177  1.00  0.00     0.052 A 
HETATM   26  C   UNL     1     -13.088  -0.414 -33.553  1.00  0.00     0.072 C 
ENDBRANCH  16  19
ENDBRANCH  14  15
ENDBRANCH   1  14
TORSDOF 6
ENDMDL
MODEL 4
REMARK VINA RESULT:      -7.6      4.774      7.213
REMARK  6 active torsions:
REMARK  status: ('A' for Active; 'I' for Inactive)
REMARK    1  A    between atoms: C_2  and  C_3 
REMARK    2  A    between atoms: C_3  and  N_4 
REMARK    3  A    between atoms: C_3  and  C_17 
REMARK    4  A    between atoms: N_4  and  C_5 
REMARK    5  A    between atoms: C_5  and  C_6 
REMARK       I    between atoms: C_6  and  N_7 
REMARK    6  A    between atoms: N_7  and  C_8 
ROOT
HETATM    1  N   UNL     1      -7.435   0.776 -31.875  1.00  0.00     0.101 N 
HETATM    2  H   UNL     1      -7.442   1.725 -31.497  1.00  0.00     0.317 HD
ENDROOT
BRANCH   1   3
HETATM    3  C   UNL     1      -6.834   0.815 -33.226  1.00  0.00     0.256 C 
BRANCH   3   4
HETATM    4  C   UNL     1      -5.992   2.092 -33.482  1.00  0.00     0.036 C 
HETATM    5  C   UNL     1      -6.792   3.353 -33.797  1.00  0.00     0.007 C 
ENDBRANCH   3   4
BRANCH   3   6
HETATM    6  C   UNL     1      -6.024  -0.443 -33.525  1.00  0.00     0.013 A 
HETATM    7  C   UNL     1      -6.460  -1.301 -34.550  1.00  0.00     0.127 A 
HETATM    8  F   UNL     1      -7.579  -1.009 -35.229  1.00  0.00    -0.205 F 
HETATM    9  C   UNL     1      -5.760  -2.451 -34.896  1.00  0.00     0.085 A 
HETATM   10  C   UNL     1      -4.603  -2.763 -34.201  1.00  0.00     0.119 A 
HETATM   11  F   UNL     1      -3.916  -3.868 -34.522  1.00  0.00    -0.206 F 
HETATM   12  C   UNL     1      -4.139  -1.945 -33.177  1.00  0.00     0.043 A 
HETATM   13  C   UNL     1      -4.846  -0.785 -32.839  1.00  0.00     0.015 A 
ENDBRANCH   3   6
ENDBRANCH   1   3
BRANCH   1  14
HETATM   14  C   UNL     1      -8.836   0.294 -31.910  1.00  0.00     0.372 C 
BRANCH  14  15
HETATM   15  C   UNL     1      -9.775   1.401 -32.414  1.00  0.00     0.250 C 
HETATM   16  N   UNL     1     -10.547   0.987 -33.478  1.00  0.00    -0.322 N 
HETATM   17  H   UNL     1     -10.338   0.049 -33.810  1.00  0.00     0.169 HD
HETATM   18  O   UNL     1      -9.753   2.515 -31.904  1.00  0.00    -0.271 OA
BRANCH  16  19
HETATM   19  C   UNL     1     -11.546   1.685 -34.127  1.00  0.00     0.085 A 
HETATM   20  C   UNL     1     -11.594   2.934 -34.813  1.00  0.00     0.079 A 
HETATM   21  C   UNL     1     -10.535   3.948 -35.050  1.00  0.00     0.075 C 
HETATM   22  N   UNL     1     -12.829   3.194 -35.270  1.00  0.00    -0.177 NA
HETATM   23  N   UNL     1     -13.552   2.139 -34.887  1.00  0.00    -0.280 N 
HETATM   24  H   UNL     1     -14.536   2.123 -35.136  1.00  0.00     0.189 HD
HETATM   25  C   UNL     1     -12.843   1.206 -34.188  1.00  0.00     0.052 A 
HETATM   26  C   UNL     1     -13.477  -0.029 -33.673  1.00  0.00     0.072 C 
ENDBRANCH  16  19
ENDBRANCH  14  15
ENDBRANCH   1  14
TORSDOF 6
ENDMDL
MODEL 5
REMARK VINA RESULT:      -7.2      4.126      6.154
REMARK  6 active torsions:
REMARK  status: ('A' for Active; 'I' for Inactive)
REMARK    1  A    between atoms: C_2  and  C_3 
REMARK    2  A    between atoms: C_3  and  N_4 
REMARK    3  A    between atoms: C_3  and  C_17 
REMARK    4  A    between atoms: N_4  and  C_5 
REMARK    5  A    between atoms: C_5  and  C_6 
REMARK       I    between atoms: C_6  and  N_7 
REMARK    6  A    between atoms: N_7  and  C_8 
ROOT
HETATM    1  N   UNL     1      -6.782   1.005 -34.024  1.00  0.00     0.101 N 
HETATM    2  H   UNL     1      -7.629   0.759 -33.509  1.00  0.00     0.317 HD
ENDROOT
BRANCH   1   3
HETATM    3  C   UNL     1      -5.651   0.236 -33.462  1.00  0.00     0.256 C 
BRANCH   3   4
HETATM    4  C   UNL     1      -5.569   0.315 -31.915  1.00  0.00     0.036 C 
HETATM    5  C   UNL     1      -6.864   0.002 -31.172  1.00  0.00     0.007 C 
ENDBRANCH   3   4
BRANCH   3   6
HETATM    6  C   UNL     1      -5.658  -1.214 -33.936  1.00  0.00     0.013 A 
HETATM    7  C   UNL     1      -4.460  -1.948 -33.887  1.00  0.00     0.127 A 
HETATM    8  F   UNL     1      -3.339  -1.360 -33.446  1.00  0.00    -0.205 F 
HETATM    9  C   UNL     1      -4.396  -3.281 -34.278  1.00  0.00     0.085 A 
HETATM   10  C   UNL     1      -5.547  -3.899 -34.737  1.00  0.00     0.119 A 
HETATM   11  F   UNL     1      -5.503  -5.182 -35.118  1.00  0.00    -0.206 F 
HETATM   12  C   UNL     1      -6.752  -3.208 -34.806  1.00  0.00     0.043 A 
HETATM   13  C   UNL     1      -6.811  -1.869 -34.405  1.00  0.00     0.015 A 
ENDBRANCH   3   6
ENDBRANCH   1   3
BRANCH   1  14
HETATM   14  C   UNL     1      -6.578   2.466 -33.883  1.00  0.00     0.372 C 
BRANCH  14  15
HETATM   15  C   UNL     1      -7.925   3.186 -33.717  1.00  0.00     0.250 C 
HETATM   16  N   UNL     1      -8.904   2.352 -33.221  1.00  0.00    -0.322 N 
HETATM   17  H   UNL     1      -8.614   1.385 -33.101  1.00  0.00     0.169 HD
HETATM   18  O   UNL     1      -8.051   4.358 -34.051  1.00  0.00    -0.271 OA
BRANCH  16  19
HETATM   19  C   UNL     1     -10.202   2.675 -32.875  1.00  0.00     0.085 A 
HETATM   20  C   UNL     1     -11.463   2.533 -33.526  1.00  0.00     0.079 A 
HETATM   21  C   UNL     1     -11.804   1.982 -34.862  1.00  0.00     0.075 C 
HETATM   22  N   UNL     1     -12.460   3.024 -32.773  1.00  0.00    -0.177 NA
HETATM   23  N   UNL     1     -11.853   3.467 -31.669  1.00  0.00    -0.280 N 
HETATM   24  H   UNL     1     -12.430   3.882 -30.945  1.00  0.00     0.189 HD
HETATM   25  C   UNL     1     -10.499   3.295 -31.675  1.00  0.00     0.052 A 
HETATM   26  C   UNL     1      -9.655   3.732 -30.539  1.00  0.00     0.072 C 
ENDBRANCH  16  19
ENDBRANCH  14  15
ENDBRANCH   1  14
TORSDOF 6
ENDMDL
MODEL 6
REMARK VINA RESULT:      -7.2      1.940      2.153
REMARK  6 active torsions:
REMARK  status: ('A' for Active; 'I' for Inactive)
REMARK    1  A    between atoms: C_2  and  C_3 
REMARK    2  A    between atoms: C_3  and  N_4 
REMARK    3  A    between atoms: C_3  and  C_17 
REMARK    4  A    between atoms: N_4  and  C_5 
REMARK    5  A    between atoms: C_5  and  C_6 
REMARK       I    between atoms: C_6  and  N_7 
REMARK    6  A    between atoms: N_7  and  C_8 
ROOT
HETATM    1  N   UNL     1      -6.946   2.183 -33.124  1.00  0.00     0.101 N 
HETATM    2  H   UNL     1      -7.172   2.963 -32.504  1.00  0.00     0.317 HD
ENDROOT
BRANCH   1   3
HETATM    3  C   UNL     1      -6.200   1.169 -32.349  1.00  0.00     0.256 C 
BRANCH   3   4
HETATM    4  C   UNL     1      -6.825   0.884 -30.957  1.00  0.00     0.036 C 
HETATM    5  C   UNL     1      -5.836   0.498 -29.861  1.00  0.00     0.007 C 
ENDBRANCH   3   4
BRANCH   3   6
HETATM    6  C   UNL     1      -6.009  -0.123 -33.137  1.00  0.00     0.013 A 
HETATM    7  C   UNL     1      -4.705  -0.610 -33.333  1.00  0.00     0.127 A 
HETATM    8  F   UNL     1      -3.661   0.073 -32.842  1.00  0.00    -0.205 F 
HETATM    9  C   UNL     1      -4.456  -1.794 -34.018  1.00  0.00     0.085 A 
HETATM   10  C   UNL     1      -5.527  -2.507 -34.530  1.00  0.00     0.119 A 
HETATM   11  F   UNL     1      -5.304  -3.650 -35.194  1.00  0.00    -0.206 F 
HETATM   12  C   UNL     1      -6.833  -2.059 -34.363  1.00  0.00     0.043 A 
HETATM   13  C   UNL     1      -7.076  -0.871 -33.667  1.00  0.00     0.015 A 
ENDBRANCH   3   6
ENDBRANCH   1   3
BRANCH   1  14
HETATM   14  C   UNL     1      -6.141   2.719 -34.247  1.00  0.00     0.372 C 
BRANCH  14  15
HETATM   15  C   UNL     1      -5.755   4.183 -33.983  1.00  0.00     0.250 C 
HETATM   16  N   UNL     1      -4.482   4.303 -33.468  1.00  0.00    -0.322 N 
HETATM   17  H   UNL     1      -4.019   3.418 -33.280  1.00  0.00     0.169 HD
HETATM   18  O   UNL     1      -6.558   5.086 -34.191  1.00  0.00    -0.271 OA
BRANCH  16  19
HETATM   19  C   UNL     1      -3.783   5.461 -33.188  1.00  0.00     0.085 A 
HETATM   20  C   UNL     1      -3.991   6.547 -32.287  1.00  0.00     0.079 A 
HETATM   21  C   UNL     1      -5.091   6.807 -31.325  1.00  0.00     0.075 C 
HETATM   22  N   UNL     1      -3.018   7.466 -32.397  1.00  0.00    -0.177 NA
HETATM   23  N   UNL     1      -2.209   6.980 -33.341  1.00  0.00    -0.280 N 
HETATM   24  H   UNL     1      -1.387   7.521 -33.586  1.00  0.00     0.189 HD
HETATM   25  C   UNL     1      -2.620   5.786 -33.861  1.00  0.00     0.052 A 
HETATM   26  C   UNL     1      -1.854   5.097 -34.925  1.00  0.00     0.072 C 
ENDBRANCH  16  19
ENDBRANCH  14  15
ENDBRANCH   1  14
TORSDOF 6
ENDMDL
MODEL 7
REMARK VINA RESULT:      -7.2      2.287      3.469
REMARK  6 active torsions:
REMARK  status: ('A' for Active; 'I' for Inactive)
REMARK    1  A    between atoms: C_2  and  C_3 
REMARK    2  A    between atoms: C_3  and  N_4 
REMARK    3  A    between atoms: C_3  and  C_17 
REMARK    4  A    between atoms: N_4  and  C_5 
REMARK    5  A    between atoms: C_5  and  C_6 
REMARK       I    between atoms: C_6  and  N_7 
REMARK    6  A    between atoms: N_7  and  C_8 
ROOT
HETATM    1  N   UNL     1      -4.831   1.532 -31.342  1.00  0.00     0.101 N 
HETATM    2  H   UNL     1      -4.839   0.736 -30.703  1.00  0.00     0.317 HD
ENDROOT
BRANCH   1   3
HETATM    3  C   UNL     1      -5.244   1.061 -32.682  1.00  0.00     0.256 C 
BRANCH   3   4
HETATM    4  C   UNL     1      -4.466  -0.196 -33.153  1.00  0.00     0.036 C 
HETATM    5  C   UNL     1      -4.422  -1.352 -32.157  1.00  0.00     0.007 C 
ENDBRANCH   3   4
BRANCH   3   6
HETATM    6  C   UNL     1      -6.750   0.835 -32.767  1.00  0.00     0.013 A 
HETATM    7  C   UNL     1      -7.360   0.800 -34.033  1.00  0.00     0.127 A 
HETATM    8  F   UNL     1      -6.615   0.983 -35.133  1.00  0.00    -0.205 F 
HETATM    9  C   UNL     1      -8.722   0.574 -34.189  1.00  0.00     0.085 A 
HETATM   10  C   UNL     1      -9.502   0.384 -33.060  1.00  0.00     0.119 A 
HETATM   11  F   UNL     1     -10.817   0.165 -33.193  1.00  0.00    -0.206 F 
HETATM   12  C   UNL     1      -8.940   0.415 -31.788  1.00  0.00     0.043 A 
HETATM   13  C   UNL     1      -7.567   0.637 -31.640  1.00  0.00     0.015 A 
ENDBRANCH   3   6
ENDBRANCH   1   3
BRANCH   1  14
HETATM   14  C   UNL     1      -3.457   2.088 -31.354  1.00  0.00     0.372 C 
BRANCH  14  15
HETATM   15  C   UNL     1      -3.473   3.556 -31.809  1.00  0.00     0.250 C 
HETATM   16  N   UNL     1      -2.291   3.928 -32.411  1.00  0.00    -0.322 N 
HETATM   17  H   UNL     1      -1.571   3.210 -32.406  1.00  0.00     0.169 HD
HETATM   18  O   UNL     1      -4.448   4.265 -31.589  1.00  0.00    -0.271 OA
BRANCH  16  19
HETATM   19  C   UNL     1      -1.982   5.136 -33.006  1.00  0.00     0.085 A 
HETATM   20  C   UNL     1      -2.470   5.826 -34.155  1.00  0.00     0.079 A 
HETATM   21  C   UNL     1      -3.508   5.441 -35.144  1.00  0.00     0.075 C 
HETATM   22  N   UNL     1      -1.827   6.990 -34.335  1.00  0.00    -0.177 NA
HETATM   23  N   UNL     1      -0.952   7.045 -33.329  1.00  0.00    -0.280 N 
HETATM   24  H   UNL     1      -0.351   7.860 -33.266  1.00  0.00     0.189 HD
HETATM   25  C   UNL     1      -0.989   5.958 -32.504  1.00  0.00     0.052 A 
HETATM   26  C   UNL     1      -0.085   5.836 -31.337  1.00  0.00     0.072 C 
ENDBRANCH  16  19
ENDBRANCH  14  15
ENDBRANCH   1  14
TORSDOF 6
ENDMDL
MODEL 8
REMARK VINA RESULT:      -7.1      1.897      2.090
REMARK  6 active torsions:
REMARK  status: ('A' for Active; 'I' for Inactive)
REMARK    1  A    between atoms: C_2  and  C_3 
REMARK    2  A    between atoms: C_3  and  N_4 
REMARK    3  A    between atoms: C_3  and  C_17 
REMARK    4  A    between atoms: N_4  and  C_5 
REMARK    5  A    between atoms: C_5  and  C_6 
REMARK       I    between atoms: C_6  and  N_7 
REMARK    6  A    between atoms: N_7  and  C_8 
ROOT
HETATM    1  N   UNL     1      -5.134   2.768 -32.465  1.00  0.00     0.101 N 
HETATM    2  H   UNL     1      -5.535   3.682 -32.683  1.00  0.00     0.317 HD
ENDROOT
BRANCH   1   3
HETATM    3  C   UNL     1      -6.239   1.827 -32.181  1.00  0.00     0.256 C 
BRANCH   3   4
HETATM    4  C   UNL     1      -7.639   2.490 -32.257  1.00  0.00     0.036 C 
HETATM    5  C   UNL     1      -7.640   4.012 -32.375  1.00  0.00     0.007 C 
ENDBRANCH   3   4
BRANCH   3   6
HETATM    6  C   UNL     1      -6.172   0.587 -33.068  1.00  0.00     0.013 A 
HETATM    7  C   UNL     1      -5.378  -0.498 -32.656  1.00  0.00     0.127 A 
HETATM    8  F   UNL     1      -4.686  -0.416 -31.511  1.00  0.00    -0.205 F 
HETATM    9  C   UNL     1      -5.289  -1.669 -33.399  1.00  0.00     0.085 A 
HETATM   10  C   UNL     1      -5.999  -1.764 -34.584  1.00  0.00     0.119 A 
HETATM   11  F   UNL     1      -5.924  -2.886 -35.312  1.00  0.00    -0.206 F 
HETATM   12  C   UNL     1      -6.793  -0.713 -35.030  1.00  0.00     0.043 A 
HETATM   13  C   UNL     1      -6.883   0.460 -34.274  1.00  0.00     0.015 A 
ENDBRANCH   3   6
ENDBRANCH   1   3
BRANCH   1  14
HETATM   14  C   UNL     1      -4.240   2.935 -31.294  1.00  0.00     0.372 C 
BRANCH  14  15
HETATM   15  C   UNL     1      -3.112   3.928 -31.616  1.00  0.00     0.250 C 
HETATM   16  N   UNL     1      -3.567   5.025 -32.315  1.00  0.00    -0.322 N 
HETATM   17  H   UNL     1      -4.550   4.986 -32.569  1.00  0.00     0.169 HD
HETATM   18  O   UNL     1      -1.956   3.684 -31.292  1.00  0.00    -0.271 OA
BRANCH  16  19
HETATM   19  C   UNL     1      -2.854   6.145 -32.700  1.00  0.00     0.085 A 
HETATM   20  C   UNL     1      -2.697   7.453 -32.153  1.00  0.00     0.079 A 
HETATM   21  C   UNL     1      -3.294   8.072 -30.943  1.00  0.00     0.075 C 
HETATM   22  N   UNL     1      -1.893   8.209 -32.918  1.00  0.00    -0.177 NA
HETATM   23  N   UNL     1      -1.544   7.405 -33.926  1.00  0.00    -0.280 N 
HETATM   24  H   UNL     1      -0.922   7.778 -34.636  1.00  0.00     0.189 HD
HETATM   25  C   UNL     1      -2.097   6.159 -33.857  1.00  0.00     0.052 A 
HETATM   26  C   UNL     1      -1.832   5.132 -34.891  1.00  0.00     0.072 C 
ENDBRANCH  16  19
ENDBRANCH  14  15
ENDBRANCH   1  14
TORSDOF 6
ENDMDL
MODEL 9
REMARK VINA RESULT:      -7.1      4.426      6.059
REMARK  6 active torsions:
REMARK  status: ('A' for Active; 'I' for Inactive)
REMARK    1  A    between atoms: C_2  and  C_3 
REMARK    2  A    between atoms: C_3  and  N_4 
REMARK    3  A    between atoms: C_3  and  C_17 
REMARK    4  A    between atoms: N_4  and  C_5 
REMARK    5  A    between atoms: C_5  and  C_6 
REMARK       I    between atoms: C_6  and  N_7 
REMARK    6  A    between atoms: N_7  and  C_8 
ROOT
HETATM    1  N   UNL     1      -7.745   0.055 -32.569  1.00  0.00     0.101 N 
HETATM    2  H   UNL     1      -7.703   0.772 -31.842  1.00  0.00     0.317 HD
ENDROOT
BRANCH   1   3
HETATM    3  C   UNL     1      -6.603   0.251 -33.487  1.00  0.00     0.256 C 
BRANCH   3   4
HETATM    4  C   UNL     1      -5.744   1.494 -33.135  1.00  0.00     0.036 C 
HETATM    5  C   UNL     1      -6.050   2.143 -31.788  1.00  0.00     0.007 C 
ENDBRANCH   3   4
BRANCH   3   6
HETATM    6  C   UNL     1      -5.737  -1.000 -33.594  1.00  0.00     0.013 A 
HETATM    7  C   UNL     1      -6.114  -2.009 -34.498  1.00  0.00     0.127 A 
HETATM    8  F   UNL     1      -7.227  -1.861 -35.231  1.00  0.00    -0.205 F 
HETATM    9  C   UNL     1      -5.360  -3.165 -34.668  1.00  0.00     0.085 A 
HETATM   10  C   UNL     1      -4.209  -3.329 -33.916  1.00  0.00     0.119 A 
HETATM   11  F   UNL     1      -3.472  -4.437 -34.067  1.00  0.00    -0.206 F 
HETATM   12  C   UNL     1      -3.803  -2.358 -33.006  1.00  0.00     0.043 A 
HETATM   13  C   UNL     1      -4.563  -1.194 -32.846  1.00  0.00     0.015 A 
ENDBRANCH   3   6
ENDBRANCH   1   3
BRANCH   1  14
HETATM   14  C   UNL     1      -9.044   0.198 -33.268  1.00  0.00     0.372 C 
BRANCH  14  15
HETATM   15  C   UNL     1      -9.554   1.645 -33.168  1.00  0.00     0.250 C 
HETATM   16  N   UNL     1      -9.555   2.283 -34.390  1.00  0.00    -0.322 N 
HETATM   17  H   UNL     1      -9.164   1.735 -35.152  1.00  0.00     0.169 HD
HETATM   18  O   UNL     1      -9.865   2.122 -32.083  1.00  0.00    -0.271 OA
BRANCH  16  19
HETATM   19  C   UNL     1     -10.018   3.550 -34.687  1.00  0.00     0.085 A 
HETATM   20  C   UNL     1     -11.197   4.051 -35.312  1.00  0.00     0.079 A 
HETATM   21  C   UNL     1     -12.362   3.335 -35.892  1.00  0.00     0.075 C 
HETATM   22  N   UNL     1     -11.180   5.391 -35.387  1.00  0.00    -0.177 NA
HETATM   23  N   UNL     1     -10.021   5.739 -34.823  1.00  0.00    -0.280 N 
HETATM   24  H   UNL     1      -9.798   6.727 -34.767  1.00  0.00     0.189 HD
HETATM   25  C   UNL     1      -9.274   4.679 -34.394  1.00  0.00     0.052 A 
HETATM   26  C   UNL     1      -7.954   4.868 -33.751  1.00  0.00     0.072 C 
ENDBRANCH  16  19
ENDBRANCH  14  15
ENDBRANCH   1  14
TORSDOF 6
ENDMDL
MODEL 10
REMARK VINA RESULT:      -7.1      2.326      3.148
REMARK  6 active torsions:
REMARK  status: ('A' for Active; 'I' for Inactive)
REMARK    1  A    between atoms: C_2  and  C_3 
REMARK    2  A    between atoms: C_3  and  N_4 
REMARK    3  A    between atoms: C_3  and  C_17 
REMARK    4  A    between atoms: N_4  and  C_5 
REMARK    5  A    between atoms: C_5  and  C_6 
REMARK       I    between atoms: C_6  and  N_7 
REMARK    6  A    between atoms: N_7  and  C_8 
ROOT
HETATM    1  N   UNL     1      -7.810   1.839 -33.795  1.00  0.00     0.101 N 
HETATM    2  H   UNL     1      -8.167   2.674 -33.328  1.00  0.00     0.317 HD
ENDROOT
BRANCH   1   3
HETATM    3  C   UNL     1      -7.586   0.792 -32.774  1.00  0.00     0.256 C 
BRANCH   3   4
HETATM    4  C   UNL     1      -8.903   0.242 -32.166  1.00  0.00     0.036 C 
HETATM    5  C   UNL     1     -10.136   0.355 -33.058  1.00  0.00     0.007 C 
ENDBRANCH   3   4
BRANCH   3   6
HETATM    6  C   UNL     1      -6.713  -0.341 -33.304  1.00  0.00     0.013 A 
HETATM    7  C   UNL     1      -5.455  -0.559 -32.714  1.00  0.00     0.127 A 
HETATM    8  F   UNL     1      -5.043   0.238 -31.718  1.00  0.00    -0.205 F 
HETATM    9  C   UNL     1      -4.617  -1.588 -33.127  1.00  0.00     0.085 A 
HETATM   10  C   UNL     1      -5.032  -2.417 -34.156  1.00  0.00     0.119 A 
HETATM   11  F   UNL     1      -4.236  -3.413 -34.565  1.00  0.00    -0.206 F 
HETATM   12  C   UNL     1      -6.267  -2.234 -34.769  1.00  0.00     0.043 A 
HETATM   13  C   UNL     1      -7.108  -1.200 -34.344  1.00  0.00     0.015 A 
ENDBRANCH   3   6
ENDBRANCH   1   3
BRANCH   1  14
HETATM   14  C   UNL     1      -6.553   2.211 -34.486  1.00  0.00     0.372 C 
BRANCH  14  15
HETATM   15  C   UNL     1      -5.951   3.481 -33.864  1.00  0.00     0.250 C 
HETATM   16  N   UNL     1      -5.003   3.193 -32.906  1.00  0.00    -0.322 N 
HETATM   17  H   UNL     1      -4.890   2.203 -32.708  1.00  0.00     0.169 HD
HETATM   18  O   UNL     1      -6.351   4.589 -34.201  1.00  0.00    -0.271 OA
BRANCH  16  19
HETATM   19  C   UNL     1      -4.208   4.078 -32.204  1.00  0.00     0.085 A 
HETATM   20  C   UNL     1      -2.986   4.755 -32.494  1.00  0.00     0.079 A 
HETATM   21  C   UNL     1      -2.120   4.712 -33.699  1.00  0.00     0.075 C 
HETATM   22  N   UNL     1      -2.591   5.515 -31.460  1.00  0.00    -0.177 NA
HETATM   23  N   UNL     1      -3.535   5.331 -30.534  1.00  0.00    -0.280 N 
HETATM   24  H   UNL     1      -3.438   5.824 -29.653  1.00  0.00     0.189 HD
HETATM   25  C   UNL     1      -4.525   4.472 -30.916  1.00  0.00     0.052 A 
HETATM   26  C   UNL     1      -5.654   4.137 -30.017  1.00  0.00     0.072 C 
ENDBRANCH  16  19
ENDBRANCH  14  15
ENDBRANCH   1  14
TORSDOF 6
ENDMDL
