MODEL 1
REMARK VINA RESULT:      -8.6      0.000      0.000
REMARK  10 active torsions:
REMARK  status: ('A' for Active; 'I' for Inactive)
REMARK    1  A    between atoms: C_4  and  N_5 
REMARK    2  A    between atoms: N_5  and  C_6 
REMARK    3  A    between atoms: C_6  and  N_7 
REMARK    4  A    between atoms: N_7  and  N_8 
REMARK       I    between atoms: N_8  and  C_9 
REMARK    5  A    between atoms: C_9  and  C_10 
REMARK    6  A    between atoms: C_10  and  O_11 
REMARK    7  A    between atoms: O_11  and  C_12 
REMARK    8  A    between atoms: C_23  and  C_24 
REMARK    9  A    between atoms: C_24  and  O_25 
REMARK   10  A    between atoms: C_28  and  C_29 
ROOT
HETATM    1  C   UNL     1      -3.614   5.680 -33.399  1.00  0.00     0.191 C 
HETATM    2  S   UNL     1      -3.691   5.264 -35.028  1.00  0.00    -0.039 SA
ENDROOT
BRANCH   1   3
HETATM    3  N   UNL     1      -2.814   6.739 -33.065  1.00  0.00    -0.325 N 
HETATM    4  H   UNL     1      -2.177   6.982 -33.817  1.00  0.00     0.169 HD
BRANCH   3   5
HETATM    5  C   UNL     1      -2.406   7.145 -31.810  1.00  0.00     0.094 C 
HETATM    6  S   UNL     1      -3.328   8.474 -31.275  1.00  0.00    -0.075 SA
HETATM    7  C   UNL     1      -2.383   8.661 -29.866  1.00  0.00    -0.007 C 
HETATM    8  C   UNL     1      -2.641   9.824 -28.961  1.00  0.00     0.057 C 
HETATM    9  C   UNL     1      -1.464   7.632 -29.738  1.00  0.00     0.006 C 
HETATM   10  C   UNL     1      -1.528   6.688 -30.843  1.00  0.00     0.085 C 
BRANCH   9  11
HETATM   11  C   UNL     1      -0.542   7.576 -28.606  1.00  0.00    -0.024 A 
HETATM   12  C   UNL     1       0.670   8.276 -28.666  1.00  0.00     0.012 A 
HETATM   13  C   UNL     1       1.568   8.217 -27.598  1.00  0.00     0.001 A 
HETATM   14  C   UNL     1       1.259   7.462 -26.468  1.00  0.00     0.000 A 
HETATM   15  C   UNL     1       0.054   6.763 -26.403  1.00  0.00     0.001 A 
HETATM   16  C   UNL     1      -0.845   6.816 -27.470  1.00  0.00     0.012 A 
ENDBRANCH   9  11
BRANCH  10  17
HETATM   17  C   UNL     1      -0.821   5.411 -30.885  1.00  0.00     0.296 C 
HETATM   18  O   UNL     1      -1.375   4.334 -31.057  1.00  0.00    -0.259 OA
BRANCH  17  19
HETATM   19  O   UNL     1       0.520   5.552 -30.676  1.00  0.00    -0.322 OA
HETATM   20  C   UNL     1       1.078   4.628 -29.745  1.00  0.00     0.213 C 
ENDBRANCH  17  19
ENDBRANCH  10  17
ENDBRANCH   3   5
ENDBRANCH   1   3
BRANCH   1  21
HETATM   21  N   UNL     1      -4.175   4.934 -32.404  1.00  0.00    -0.273 N 
HETATM   22  H   UNL     1      -4.552   5.388 -31.573  1.00  0.00     0.189 HD
BRANCH  21  23
HETATM   23  N   UNL     1      -4.694   3.650 -32.638  1.00  0.00    -0.266 N 
HETATM   24  C   UNL     1      -5.603   3.143 -31.723  1.00  0.00     0.265 C 
HETATM   25  O   UNL     1      -5.970   3.797 -30.744  1.00  0.00    -0.269 OA
HETATM   26  H   UNL     1      -4.254   3.104 -33.372  1.00  0.00     0.190 HD
BRANCH  24  27
HETATM   27  C   UNL     1      -6.069   1.699 -31.997  1.00  0.00     0.218 C 
HETATM   28  C   UNL     1      -5.918   0.805 -30.768  1.00  0.00     0.050 C 
BRANCH  27  29
HETATM   29  O   UNL     1      -5.225   1.179 -33.035  1.00  0.00    -0.335 OA
BRANCH  29  30
HETATM   30  C   UNL     1      -5.511  -0.080 -33.485  1.00  0.00     0.091 A 
HETATM   31  C   UNL     1      -4.512  -1.062 -33.399  1.00  0.00     0.068 A 
HETATM   32 CL   UNL     1      -2.995  -0.731 -32.640  1.00  0.00    -0.081 Cl
HETATM   33  C   UNL     1      -4.725  -2.338 -33.921  1.00  0.00     0.046 A 
HETATM   34  C   UNL     1      -5.935  -2.629 -34.544  1.00  0.00     0.012 A 
HETATM   35 BR   UNL     1      -6.226  -4.351 -35.267  1.00  0.00    -0.051 Br
HETATM   36  C   UNL     1      -6.929  -1.656 -34.654  1.00  0.00     0.022 A 
HETATM   37  C   UNL     1      -6.713  -0.376 -34.134  1.00  0.00     0.040 A 
ENDBRANCH  29  30
ENDBRANCH  27  29
ENDBRANCH  24  27
ENDBRANCH  21  23
ENDBRANCH   1  21
TORSDOF 10
ENDMDL
MODEL 2
REMARK VINA RESULT:      -8.6      1.432      2.330
REMARK  10 active torsions:
REMARK  status: ('A' for Active; 'I' for Inactive)
REMARK    1  A    between atoms: C_4  and  N_5 
REMARK    2  A    between atoms: N_5  and  C_6 
REMARK    3  A    between atoms: C_6  and  N_7 
REMARK    4  A    between atoms: N_7  and  N_8 
REMARK       I    between atoms: N_8  and  C_9 
REMARK    5  A    between atoms: C_9  and  C_10 
REMARK    6  A    between atoms: C_10  and  O_11 
REMARK    7  A    between atoms: O_11  and  C_12 
REMARK    8  A    between atoms: C_23  and  C_24 
REMARK    9  A    between atoms: C_24  and  O_25 
REMARK   10  A    between atoms: C_28  and  C_29 
ROOT
HETATM    1  C   UNL     1      -3.868   5.714 -33.385  1.00  0.00     0.191 C 
HETATM    2  S   UNL     1      -3.693   5.227 -34.986  1.00  0.00    -0.039 SA
ENDROOT
BRANCH   1   3
HETATM    3  N   UNL     1      -3.042   6.711 -32.944  1.00  0.00    -0.325 N 
HETATM    4  H   UNL     1      -2.897   7.423 -33.653  1.00  0.00     0.169 HD
BRANCH   3   5
HETATM    5  C   UNL     1      -2.052   6.646 -31.984  1.00  0.00     0.094 C 
HETATM    6  S   UNL     1      -0.913   5.439 -32.371  1.00  0.00    -0.075 SA
HETATM    7  C   UNL     1      -0.072   5.654 -30.902  1.00  0.00    -0.007 C 
HETATM    8  C   UNL     1       1.059   4.735 -30.565  1.00  0.00     0.057 C 
HETATM    9  C   UNL     1      -0.572   6.733 -30.190  1.00  0.00     0.006 C 
HETATM   10  C   UNL     1      -1.690   7.374 -30.864  1.00  0.00     0.085 C 
BRANCH   9  11
HETATM   11  C   UNL     1      -0.008   7.115 -28.897  1.00  0.00    -0.024 A 
HETATM   12  C   UNL     1       0.986   8.102 -28.842  1.00  0.00     0.012 A 
HETATM   13  C   UNL     1       1.545   8.465 -27.615  1.00  0.00     0.001 A 
HETATM   14  C   UNL     1       1.116   7.847 -26.442  1.00  0.00     0.000 A 
HETATM   15  C   UNL     1       0.129   6.863 -26.492  1.00  0.00     0.001 A 
HETATM   16  C   UNL     1      -0.431   6.495 -27.717  1.00  0.00     0.012 A 
ENDBRANCH   9  11
BRANCH  10  17
HETATM   17  C   UNL     1      -2.292   8.639 -30.452  1.00  0.00     0.296 C 
HETATM   18  O   UNL     1      -2.163   9.685 -31.074  1.00  0.00    -0.259 OA
BRANCH  17  19
HETATM   19  O   UNL     1      -2.982   8.530 -29.280  1.00  0.00    -0.322 OA
HETATM   20  C   UNL     1      -2.687   9.541 -28.319  1.00  0.00     0.213 C 
ENDBRANCH  17  19
ENDBRANCH  10  17
ENDBRANCH   3   5
ENDBRANCH   1   3
BRANCH   1  21
HETATM   21  N   UNL     1      -4.668   5.071 -32.486  1.00  0.00    -0.273 N 
HETATM   22  H   UNL     1      -5.371   5.590 -31.961  1.00  0.00     0.189 HD
BRANCH  21  23
HETATM   23  N   UNL     1      -4.921   3.692 -32.567  1.00  0.00    -0.266 N 
HETATM   24  C   UNL     1      -5.913   3.167 -31.755  1.00  0.00     0.265 C 
HETATM   25  O   UNL     1      -6.576   3.880 -30.999  1.00  0.00    -0.269 OA
HETATM   26  H   UNL     1      -4.255   3.133 -33.093  1.00  0.00     0.190 HD
BRANCH  24  27
HETATM   27  C   UNL     1      -6.081   1.636 -31.835  1.00  0.00     0.218 C 
HETATM   28  C   UNL     1      -5.558   0.935 -30.583  1.00  0.00     0.050 C 
BRANCH  27  29
HETATM   29  O   UNL     1      -5.303   1.190 -32.954  1.00  0.00    -0.335 OA
BRANCH  29  30
HETATM   30  C   UNL     1      -5.563  -0.069 -33.420  1.00  0.00     0.091 A 
HETATM   31  C   UNL     1      -4.524  -1.013 -33.406  1.00  0.00     0.068 A 
HETATM   32 CL   UNL     1      -2.986  -0.641 -32.712  1.00  0.00    -0.081 Cl
HETATM   33  C   UNL     1      -4.715  -2.286 -33.947  1.00  0.00     0.046 A 
HETATM   34  C   UNL     1      -5.942  -2.609 -34.518  1.00  0.00     0.012 A 
HETATM   35 BR   UNL     1      -6.203  -4.324 -35.267  1.00  0.00    -0.051 Br
HETATM   36  C   UNL     1      -6.975  -1.672 -34.557  1.00  0.00     0.022 A 
HETATM   37  C   UNL     1      -6.782  -0.397 -34.018  1.00  0.00     0.040 A 
ENDBRANCH  29  30
ENDBRANCH  27  29
ENDBRANCH  24  27
ENDBRANCH  21  23
ENDBRANCH   1  21
TORSDOF 10
ENDMDL
MODEL 3
REMARK VINA RESULT:      -8.6      2.126      3.132
REMARK  10 active torsions:
REMARK  status: ('A' for Active; 'I' for Inactive)
REMARK    1  A    between atoms: C_4  and  N_5 
REMARK    2  A    between atoms: N_5  and  C_6 
REMARK    3  A    between atoms: C_6  and  N_7 
REMARK    4  A    between atoms: N_7  and  N_8 
REMARK       I    between atoms: N_8  and  C_9 
REMARK    5  A    between atoms: C_9  and  C_10 
REMARK    6  A    between atoms: C_10  and  O_11 
REMARK    7  A    between atoms: O_11  and  C_12 
REMARK    8  A    between atoms: C_23  and  C_24 
REMARK    9  A    between atoms: C_24  and  O_25 
REMARK   10  A    between atoms: C_28  and  C_29 
ROOT
HETATM    1  C   UNL     1      -5.010   5.331 -30.855  1.00  0.00     0.191 C 
HETATM    2  S   UNL     1      -6.422   6.151 -31.262  1.00  0.00    -0.039 SA
ENDROOT
BRANCH   1   3
HETATM    3  N   UNL     1      -3.848   5.771 -31.427  1.00  0.00    -0.325 N 
HETATM    4  H   UNL     1      -3.803   5.539 -32.415  1.00  0.00     0.169 HD
BRANCH   3   5
HETATM    5  C   UNL     1      -2.622   5.984 -30.830  1.00  0.00     0.094 C 
HETATM    6  S   UNL     1      -1.409   5.061 -31.591  1.00  0.00    -0.075 SA
HETATM    7  C   UNL     1      -0.227   5.534 -30.455  1.00  0.00    -0.007 C 
HETATM    8  C   UNL     1       1.136   4.921 -30.519  1.00  0.00     0.057 C 
HETATM    9  C   UNL     1      -0.720   6.496 -29.589  1.00  0.00     0.006 C 
HETATM   10  C   UNL     1      -2.112   6.826 -29.857  1.00  0.00     0.085 C 
BRANCH   9  11
HETATM   11  C   UNL     1       0.112   7.059 -28.528  1.00  0.00    -0.024 A 
HETATM   12  C   UNL     1       0.073   6.493 -27.247  1.00  0.00     0.012 A 
HETATM   13  C   UNL     1       0.851   7.030 -26.218  1.00  0.00     0.001 A 
HETATM   14  C   UNL     1       1.668   8.132 -26.465  1.00  0.00     0.000 A 
HETATM   15  C   UNL     1       1.709   8.700 -27.738  1.00  0.00     0.001 A 
HETATM   16  C   UNL     1       0.931   8.167 -28.768  1.00  0.00     0.012 A 
ENDBRANCH   9  11
BRANCH  10  17
HETATM   17  C   UNL     1      -2.836   7.932 -29.238  1.00  0.00     0.296 C 
HETATM   18  O   UNL     1      -2.875   8.125 -28.030  1.00  0.00    -0.259 OA
BRANCH  17  19
HETATM   19  O   UNL     1      -3.491   8.703 -30.154  1.00  0.00    -0.322 OA
HETATM   20  C   UNL     1      -4.728   9.247 -29.698  1.00  0.00     0.213 C 
ENDBRANCH  17  19
ENDBRANCH  10  17
ENDBRANCH   3   5
ENDBRANCH   1   3
BRANCH   1  21
HETATM   21  N   UNL     1      -4.993   4.180 -30.121  1.00  0.00    -0.273 N 
HETATM   22  H   UNL     1      -5.657   4.048 -29.359  1.00  0.00     0.189 HD
BRANCH  21  23
HETATM   23  N   UNL     1      -4.457   2.984 -30.625  1.00  0.00    -0.266 N 
HETATM   24  C   UNL     1      -5.343   2.008 -31.051  1.00  0.00     0.265 C 
HETATM   25  O   UNL     1      -6.563   2.181 -31.018  1.00  0.00    -0.269 OA
HETATM   26  H   UNL     1      -3.460   2.837 -30.496  1.00  0.00     0.190 HD
BRANCH  24  27
HETATM   27  C   UNL     1      -4.690   0.690 -31.515  1.00  0.00     0.218 C 
HETATM   28  C   UNL     1      -3.233   0.584 -31.070  1.00  0.00     0.050 C 
BRANCH  27  29
HETATM   29  O   UNL     1      -4.719   0.693 -32.950  1.00  0.00    -0.335 OA
BRANCH  29  30
HETATM   30  C   UNL     1      -5.053  -0.484 -33.560  1.00  0.00     0.091 A 
HETATM   31  C   UNL     1      -6.373  -0.653 -34.007  1.00  0.00     0.068 A 
HETATM   32 CL   UNL     1      -7.525   0.630 -33.899  1.00  0.00    -0.081 Cl
HETATM   33  C   UNL     1      -6.784  -1.867 -34.560  1.00  0.00     0.046 A 
HETATM   34  C   UNL     1      -5.877  -2.919 -34.651  1.00  0.00     0.012 A 
HETATM   35 BR   UNL     1      -6.432  -4.570 -35.385  1.00  0.00    -0.051 Br
HETATM   36  C   UNL     1      -4.569  -2.770 -34.191  1.00  0.00     0.022 A 
HETATM   37  C   UNL     1      -4.159  -1.555 -33.634  1.00  0.00     0.040 A 
ENDBRANCH  29  30
ENDBRANCH  27  29
ENDBRANCH  24  27
ENDBRANCH  21  23
ENDBRANCH   1  21
TORSDOF 10
ENDMDL
MODEL 4
REMARK VINA RESULT:      -8.3      3.838     10.139
REMARK  10 active torsions:
REMARK  status: ('A' for Active; 'I' for Inactive)
REMARK    1  A    between atoms: C_4  and  N_5 
REMARK    2  A    between atoms: N_5  and  C_6 
REMARK    3  A    between atoms: C_6  and  N_7 
REMARK    4  A    between atoms: N_7  and  N_8 
REMARK       I    between atoms: N_8  and  C_9 
REMARK    5  A    between atoms: C_9  and  C_10 
REMARK    6  A    between atoms: C_10  and  O_11 
REMARK    7  A    between atoms: O_11  and  C_12 
REMARK    8  A    between atoms: C_23  and  C_24 
REMARK    9  A    between atoms: C_24  and  O_25 
REMARK   10  A    between atoms: C_28  and  C_29 
ROOT
HETATM    1  C   UNL     1      -5.346   3.236 -31.220  1.00  0.00     0.191 C 
HETATM    2  S   UNL     1      -6.738   2.804 -30.378  1.00  0.00    -0.039 SA
ENDROOT
BRANCH   1   3
HETATM    3  N   UNL     1      -5.095   2.571 -32.389  1.00  0.00    -0.325 N 
HETATM    4  H   UNL     1      -5.364   3.119 -33.200  1.00  0.00     0.169 HD
BRANCH   3   5
HETATM    5  C   UNL     1      -5.038   1.209 -32.608  1.00  0.00     0.094 C 
HETATM    6  S   UNL     1      -3.911   0.474 -31.563  1.00  0.00    -0.075 SA
HETATM    7  C   UNL     1      -4.102  -1.051 -32.304  1.00  0.00    -0.007 C 
HETATM    8  C   UNL     1      -3.229  -2.187 -31.875  1.00  0.00     0.057 C 
HETATM    9  C   UNL     1      -5.119  -1.028 -33.245  1.00  0.00     0.006 C 
HETATM   10  C   UNL     1      -5.731   0.285 -33.371  1.00  0.00     0.085 C 
BRANCH   9  11
HETATM   11  C   UNL     1      -5.470  -2.223 -34.010  1.00  0.00    -0.024 A 
HETATM   12  C   UNL     1      -6.805  -2.645 -34.057  1.00  0.00     0.012 A 
HETATM   13  C   UNL     1      -7.153  -3.794 -34.771  1.00  0.00     0.001 A 
HETATM   14  C   UNL     1      -6.171  -4.523 -35.440  1.00  0.00     0.000 A 
HETATM   15  C   UNL     1      -4.840  -4.107 -35.395  1.00  0.00     0.001 A 
HETATM   16  C   UNL     1      -4.489  -2.961 -34.680  1.00  0.00     0.012 A 
ENDBRANCH   9  11
BRANCH  10  17
HETATM   17  C   UNL     1      -6.942   0.566 -34.137  1.00  0.00     0.296 C 
HETATM   18  O   UNL     1      -6.957   0.717 -35.351  1.00  0.00    -0.259 OA
BRANCH  17  19
HETATM   19  O   UNL     1      -8.046   0.676 -33.343  1.00  0.00    -0.322 OA
HETATM   20  C   UNL     1      -8.833   1.842 -33.575  1.00  0.00     0.213 C 
ENDBRANCH  17  19
ENDBRANCH  10  17
ENDBRANCH   3   5
ENDBRANCH   1   3
BRANCH   1  21
HETATM   21  N   UNL     1      -4.401   4.086 -30.725  1.00  0.00    -0.273 N 
HETATM   22  H   UNL     1      -3.832   3.811 -29.925  1.00  0.00     0.189 HD
BRANCH  21  23
HETATM   23  N   UNL     1      -3.829   5.102 -31.508  1.00  0.00    -0.266 N 
HETATM   24  C   UNL     1      -2.628   4.830 -32.144  1.00  0.00     0.265 C 
HETATM   25  O   UNL     1      -2.082   3.728 -32.054  1.00  0.00    -0.269 OA
HETATM   26  H   UNL     1      -4.241   6.027 -31.432  1.00  0.00     0.190 HD
BRANCH  24  27
HETATM   27  C   UNL     1      -2.016   6.015 -32.919  1.00  0.00     0.218 C 
HETATM   28  C   UNL     1      -1.908   5.727 -34.415  1.00  0.00     0.050 C 
BRANCH  27  29
HETATM   29  O   UNL     1      -0.691   6.208 -32.404  1.00  0.00    -0.335 OA
BRANCH  29  30
HETATM   30  C   UNL     1      -0.588   6.836 -31.195  1.00  0.00     0.091 A 
HETATM   31  C   UNL     1       0.268   6.286 -30.228  1.00  0.00     0.068 A 
HETATM   32 CL   UNL     1       1.259   4.916 -30.586  1.00  0.00    -0.081 Cl
HETATM   33  C   UNL     1       0.345   6.841 -28.950  1.00  0.00     0.046 A 
HETATM   34  C   UNL     1      -0.447   7.941 -28.634  1.00  0.00     0.012 A 
HETATM   35 BR   UNL     1      -0.360   8.689 -26.900  1.00  0.00    -0.051 Br
HETATM   36  C   UNL     1      -1.317   8.484 -29.579  1.00  0.00     0.022 A 
HETATM   37  C   UNL     1      -1.396   7.925 -30.858  1.00  0.00     0.040 A 
ENDBRANCH  29  30
ENDBRANCH  27  29
ENDBRANCH  24  27
ENDBRANCH  21  23
ENDBRANCH   1  21
TORSDOF 10
ENDMDL
MODEL 5
REMARK VINA RESULT:      -8.2      5.146      9.219
REMARK  10 active torsions:
REMARK  status: ('A' for Active; 'I' for Inactive)
REMARK    1  A    between atoms: C_4  and  N_5 
REMARK    2  A    between atoms: N_5  and  C_6 
REMARK    3  A    between atoms: C_6  and  N_7 
REMARK    4  A    between atoms: N_7  and  N_8 
REMARK       I    between atoms: N_8  and  C_9 
REMARK    5  A    between atoms: C_9  and  C_10 
REMARK    6  A    between atoms: C_10  and  O_11 
REMARK    7  A    between atoms: O_11  and  C_12 
REMARK    8  A    between atoms: C_23  and  C_24 
REMARK    9  A    between atoms: C_24  and  O_25 
REMARK   10  A    between atoms: C_28  and  C_29 
ROOT
HETATM    1  C   UNL     1      -7.724   5.406 -32.237  1.00  0.00     0.191 C 
HETATM    2  S   UNL     1      -8.310   6.880 -31.674  1.00  0.00    -0.039 SA
ENDROOT
BRANCH   1   3
HETATM    3  N   UNL     1      -8.223   4.952 -33.427  1.00  0.00    -0.325 N 
HETATM    4  H   UNL     1      -7.703   5.318 -34.219  1.00  0.00     0.169 HD
BRANCH   3   5
HETATM    5  C   UNL     1      -9.510   4.547 -33.721  1.00  0.00     0.094 C 
HETATM    6  S   UNL     1     -10.169   5.491 -34.977  1.00  0.00    -0.075 SA
HETATM    7  C   UNL     1     -11.696   4.743 -34.843  1.00  0.00    -0.007 C 
HETATM    8  C   UNL     1     -12.835   5.251 -35.668  1.00  0.00     0.057 C 
HETATM    9  C   UNL     1     -11.661   3.687 -33.946  1.00  0.00     0.006 C 
HETATM   10  C   UNL     1     -10.349   3.515 -33.341  1.00  0.00     0.085 C 
BRANCH   9  11
HETATM   11  C   UNL     1     -12.853   2.890 -33.666  1.00  0.00    -0.024 A 
HETATM   12  C   UNL     1     -13.200   1.841 -34.528  1.00  0.00     0.012 A 
HETATM   13  C   UNL     1     -14.346   1.081 -34.282  1.00  0.00     0.001 A 
HETATM   14  C   UNL     1     -15.147   1.365 -33.177  1.00  0.00     0.000 A 
HETATM   15  C   UNL     1     -14.806   2.409 -32.317  1.00  0.00     0.001 A 
HETATM   16  C   UNL     1     -13.663   3.172 -32.561  1.00  0.00     0.012 A 
ENDBRANCH   9  11
BRANCH  10  17
HETATM   17  C   UNL     1      -9.961   2.378 -32.511  1.00  0.00     0.296 C 
HETATM   18  O   UNL     1     -10.210   1.214 -32.796  1.00  0.00    -0.259 OA
BRANCH  17  19
HETATM   19  O   UNL     1      -9.324   2.762 -31.367  1.00  0.00    -0.322 OA
HETATM   20  C   UNL     1     -10.172   3.347 -30.381  1.00  0.00     0.213 C 
ENDBRANCH  17  19
ENDBRANCH  10  17
ENDBRANCH   3   5
ENDBRANCH   1   3
BRANCH   1  21
HETATM   21  N   UNL     1      -6.912   4.590 -31.504  1.00  0.00    -0.273 N 
HETATM   22  H   UNL     1      -7.094   4.442 -30.512  1.00  0.00     0.189 HD
BRANCH  21  23
HETATM   23  N   UNL     1      -6.139   3.579 -32.099  1.00  0.00    -0.266 N 
HETATM   24  C   UNL     1      -5.833   2.465 -31.335  1.00  0.00     0.265 C 
HETATM   25  O   UNL     1      -6.240   2.341 -30.178  1.00  0.00    -0.269 OA
HETATM   26  H   UNL     1      -5.714   3.795 -32.996  1.00  0.00     0.190 HD
BRANCH  24  27
HETATM   27  C   UNL     1      -4.914   1.434 -32.022  1.00  0.00     0.218 C 
HETATM   28  C   UNL     1      -3.474   1.929 -32.126  1.00  0.00     0.050 C 
BRANCH  27  29
HETATM   29  O   UNL     1      -5.420   1.247 -33.352  1.00  0.00    -0.335 OA
BRANCH  29  30
HETATM   30  C   UNL     1      -5.536  -0.044 -33.788  1.00  0.00     0.091 A 
HETATM   31  C   UNL     1      -6.666  -0.393 -34.544  1.00  0.00     0.068 A 
HETATM   32 CL   UNL     1      -7.830   0.795 -35.014  1.00  0.00    -0.081 Cl
HETATM   33  C   UNL     1      -6.873  -1.714 -34.942  1.00  0.00     0.046 A 
HETATM   34  C   UNL     1      -5.954  -2.692 -34.570  1.00  0.00     0.012 A 
HETATM   35 BR   UNL     1      -6.235  -4.486 -35.092  1.00  0.00    -0.051 Br
HETATM   36  C   UNL     1      -4.838  -2.361 -33.802  1.00  0.00     0.022 A 
HETATM   37  C   UNL     1      -4.634  -1.037 -33.401  1.00  0.00     0.040 A 
ENDBRANCH  29  30
ENDBRANCH  27  29
ENDBRANCH  24  27
ENDBRANCH  21  23
ENDBRANCH   1  21
TORSDOF 10
ENDMDL
MODEL 6
REMARK VINA RESULT:      -8.1      4.150      9.529
REMARK  10 active torsions:
REMARK  status: ('A' for Active; 'I' for Inactive)
REMARK    1  A    between atoms: C_4  and  N_5 
REMARK    2  A    between atoms: N_5  and  C_6 
REMARK    3  A    between atoms: C_6  and  N_7 
REMARK    4  A    between atoms: N_7  and  N_8 
REMARK       I    between atoms: N_8  and  C_9 
REMARK    5  A    between atoms: C_9  and  C_10 
REMARK    6  A    between atoms: C_10  and  O_11 
REMARK    7  A    between atoms: O_11  and  C_12 
REMARK    8  A    between atoms: C_23  and  C_24 
REMARK    9  A    between atoms: C_24  and  O_25 
REMARK   10  A    between atoms: C_28  and  C_29 
ROOT
HETATM    1  C   UNL     1      -5.391   5.337 -29.051  1.00  0.00     0.191 C 
HETATM    2  S   UNL     1      -5.533   5.963 -27.495  1.00  0.00    -0.039 SA
ENDROOT
BRANCH   1   3
HETATM    3  N   UNL     1      -5.410   3.975 -29.177  1.00  0.00    -0.325 N 
HETATM    4  H   UNL     1      -4.592   3.545 -28.756  1.00  0.00     0.169 HD
BRANCH   3   5
HETATM    5  C   UNL     1      -6.027   3.210 -30.147  1.00  0.00     0.094 C 
HETATM    6  S   UNL     1      -7.722   3.294 -29.997  1.00  0.00    -0.075 SA
HETATM    7  C   UNL     1      -7.966   2.140 -31.229  1.00  0.00    -0.007 C 
HETATM    8  C   UNL     1      -9.353   1.660 -31.519  1.00  0.00     0.057 C 
HETATM    9  C   UNL     1      -6.771   1.802 -31.844  1.00  0.00     0.006 C 
HETATM   10  C   UNL     1      -5.631   2.493 -31.263  1.00  0.00     0.085 C 
BRANCH   9  11
HETATM   11  C   UNL     1      -6.728   0.830 -32.935  1.00  0.00    -0.024 A 
HETATM   12  C   UNL     1      -6.961   1.257 -34.249  1.00  0.00     0.012 A 
HETATM   13  C   UNL     1      -6.939   0.336 -35.299  1.00  0.00     0.001 A 
HETATM   14  C   UNL     1      -6.685  -1.010 -35.042  1.00  0.00     0.000 A 
HETATM   15  C   UNL     1      -6.454  -1.440 -33.735  1.00  0.00     0.001 A 
HETATM   16  C   UNL     1      -6.478  -0.523 -32.682  1.00  0.00     0.012 A 
ENDBRANCH   9  11
BRANCH  10  17
HETATM   17  C   UNL     1      -4.282   2.484 -31.821  1.00  0.00     0.296 C 
HETATM   18  O   UNL     1      -3.710   1.469 -32.195  1.00  0.00    -0.259 OA
BRANCH  17  19
HETATM   19  O   UNL     1      -3.721   3.727 -31.846  1.00  0.00    -0.322 OA
HETATM   20  C   UNL     1      -2.855   3.967 -32.953  1.00  0.00     0.213 C 
ENDBRANCH  17  19
ENDBRANCH  10  17
ENDBRANCH   3   5
ENDBRANCH   1   3
BRANCH   1  21
HETATM   21  N   UNL     1      -5.107   6.100 -30.146  1.00  0.00    -0.273 N 
HETATM   22  H   UNL     1      -5.809   6.735 -30.525  1.00  0.00     0.189 HD
BRANCH  21  23
HETATM   23  N   UNL     1      -3.790   6.427 -30.505  1.00  0.00    -0.266 N 
HETATM   24  C   UNL     1      -3.428   7.765 -30.489  1.00  0.00     0.265 C 
HETATM   25  O   UNL     1      -4.220   8.646 -30.149  1.00  0.00    -0.269 OA
HETATM   26  H   UNL     1      -3.227   5.686 -30.912  1.00  0.00     0.190 HD
BRANCH  24  27
HETATM   27  C   UNL     1      -1.994   8.060 -30.972  1.00  0.00     0.218 C 
HETATM   28  C   UNL     1      -1.868   7.955 -32.490  1.00  0.00     0.050 C 
BRANCH  27  29
HETATM   29  O   UNL     1      -1.143   7.066 -30.383  1.00  0.00    -0.335 OA
BRANCH  29  30
HETATM   30  C   UNL     1      -0.410   7.451 -29.296  1.00  0.00     0.091 A 
HETATM   31  C   UNL     1       0.456   6.515 -28.710  1.00  0.00     0.068 A 
HETATM   32 CL   UNL     1       0.683   4.949 -29.404  1.00  0.00    -0.081 Cl
HETATM   33  C   UNL     1       1.163   6.833 -27.549  1.00  0.00     0.046 A 
HETATM   34  C   UNL     1       0.993   8.085 -26.966  1.00  0.00     0.012 A 
HETATM   35 BR   UNL     1       1.936   8.517 -25.386  1.00  0.00    -0.051 Br
HETATM   36  C   UNL     1       0.120   9.017 -27.528  1.00  0.00     0.022 A 
HETATM   37  C   UNL     1      -0.591   8.696 -28.688  1.00  0.00     0.040 A 
ENDBRANCH  29  30
ENDBRANCH  27  29
ENDBRANCH  24  27
ENDBRANCH  21  23
ENDBRANCH   1  21
TORSDOF 10
ENDMDL
MODEL 7
REMARK VINA RESULT:      -8.1      4.221     10.512
REMARK  10 active torsions:
REMARK  status: ('A' for Active; 'I' for Inactive)
REMARK    1  A    between atoms: C_4  and  N_5 
REMARK    2  A    between atoms: N_5  and  C_6 
REMARK    3  A    between atoms: C_6  and  N_7 
REMARK    4  A    between atoms: N_7  and  N_8 
REMARK       I    between atoms: N_8  and  C_9 
REMARK    5  A    between atoms: C_9  and  C_10 
REMARK    6  A    between atoms: C_10  and  O_11 
REMARK    7  A    between atoms: O_11  and  C_12 
REMARK    8  A    between atoms: C_23  and  C_24 
REMARK    9  A    between atoms: C_24  and  O_25 
REMARK   10  A    between atoms: C_28  and  C_29 
ROOT
HETATM    1  C   UNL     1      -3.322   4.299 -32.188  1.00  0.00     0.191 C 
HETATM    2  S   UNL     1      -2.515   4.513 -33.650  1.00  0.00    -0.039 SA
ENDROOT
BRANCH   1   3
HETATM    3  N   UNL     1      -4.445   3.519 -32.205  1.00  0.00    -0.325 N 
HETATM    4  H   UNL     1      -5.199   3.930 -31.664  1.00  0.00     0.169 HD
BRANCH   3   5
HETATM    5  C   UNL     1      -4.540   2.152 -32.378  1.00  0.00     0.094 C 
HETATM    6  S   UNL     1      -3.461   1.335 -31.343  1.00  0.00    -0.075 SA
HETATM    7  C   UNL     1      -3.838  -0.184 -32.022  1.00  0.00    -0.007 C 
HETATM    8  C   UNL     1      -3.075  -1.393 -31.581  1.00  0.00     0.057 C 
HETATM    9  C   UNL     1      -4.879  -0.083 -32.930  1.00  0.00     0.006 C 
HETATM   10  C   UNL     1      -5.354   1.284 -33.084  1.00  0.00     0.085 C 
BRANCH   9  11
HETATM   11  C   UNL     1      -5.382  -1.257 -33.641  1.00  0.00    -0.024 A 
HETATM   12  C   UNL     1      -4.492  -2.056 -34.371  1.00  0.00     0.012 A 
HETATM   13  C   UNL     1      -4.961  -3.171 -35.068  1.00  0.00     0.001 A 
HETATM   14  C   UNL     1      -6.317  -3.493 -35.039  1.00  0.00     0.000 A 
HETATM   15  C   UNL     1      -7.207  -2.700 -34.315  1.00  0.00     0.001 A 
HETATM   16  C   UNL     1      -6.742  -1.582 -33.619  1.00  0.00     0.012 A 
ENDBRANCH   9  11
BRANCH  10  17
HETATM   17  C   UNL     1      -6.555   1.667 -33.820  1.00  0.00     0.296 C 
HETATM   18  O   UNL     1      -6.721   1.440 -35.011  1.00  0.00    -0.259 OA
BRANCH  17  19
HETATM   19  O   UNL     1      -7.452   2.337 -33.040  1.00  0.00    -0.322 OA
HETATM   20  C   UNL     1      -8.219   1.508 -32.170  1.00  0.00     0.213 C 
ENDBRANCH  17  19
ENDBRANCH  10  17
ENDBRANCH   3   5
ENDBRANCH   1   3
BRANCH   1  21
HETATM   21  N   UNL     1      -3.005   4.978 -31.047  1.00  0.00    -0.273 N 
HETATM   22  H   UNL     1      -3.732   5.219 -30.375  1.00  0.00     0.189 HD
BRANCH  21  23
HETATM   23  N   UNL     1      -1.710   4.958 -30.504  1.00  0.00    -0.266 N 
HETATM   24  C   UNL     1      -1.079   6.173 -30.291  1.00  0.00     0.265 C 
HETATM   25  O   UNL     1      -1.634   7.245 -30.543  1.00  0.00    -0.269 OA
HETATM   26  H   UNL     1      -1.249   4.055 -30.451  1.00  0.00     0.190 HD
BRANCH  24  27
HETATM   27  C   UNL     1       0.369   6.075 -29.770  1.00  0.00     0.218 C 
HETATM   28  C   UNL     1       1.093   4.847 -30.317  1.00  0.00     0.050 C 
BRANCH  27  29
HETATM   29  O   UNL     1       0.290   5.948 -28.343  1.00  0.00    -0.335 OA
BRANCH  29  30
HETATM   30  C   UNL     1       0.423   7.099 -27.616  1.00  0.00     0.091 A 
HETATM   31  C   UNL     1      -0.414   7.286 -26.506  1.00  0.00     0.068 A 
HETATM   32 CL   UNL     1      -1.509   6.052 -25.992  1.00  0.00    -0.081 Cl
HETATM   33  C   UNL     1      -0.376   8.479 -25.781  1.00  0.00     0.046 A 
HETATM   34  C   UNL     1       0.492   9.492 -26.178  1.00  0.00     0.012 A 
HETATM   35 BR   UNL     1       0.539  11.116 -25.212  1.00  0.00    -0.051 Br
HETATM   36  C   UNL     1       1.315   9.326 -27.293  1.00  0.00     0.022 A 
HETATM   37  C   UNL     1       1.273   8.132 -28.020  1.00  0.00     0.040 A 
ENDBRANCH  29  30
ENDBRANCH  27  29
ENDBRANCH  24  27
ENDBRANCH  21  23
ENDBRANCH   1  21
TORSDOF 10
ENDMDL
MODEL 8
REMARK VINA RESULT:      -8.0      2.234      2.765
REMARK  10 active torsions:
REMARK  status: ('A' for Active; 'I' for Inactive)
REMARK    1  A    between atoms: C_4  and  N_5 
REMARK    2  A    between atoms: N_5  and  C_6 
REMARK    3  A    between atoms: C_6  and  N_7 
REMARK    4  A    between atoms: N_7  and  N_8 
REMARK       I    between atoms: N_8  and  C_9 
REMARK    5  A    between atoms: C_9  and  C_10 
REMARK    6  A    between atoms: C_10  and  O_11 
REMARK    7  A    between atoms: O_11  and  C_12 
REMARK    8  A    between atoms: C_23  and  C_24 
REMARK    9  A    between atoms: C_24  and  O_25 
REMARK   10  A    between atoms: C_28  and  C_29 
ROOT
HETATM    1  C   UNL     1      -5.530   5.559 -29.400  1.00  0.00     0.191 C 
HETATM    2  S   UNL     1      -7.186   5.409 -29.139  1.00  0.00    -0.039 SA
ENDROOT
BRANCH   1   3
HETATM    3  N   UNL     1      -4.967   6.778 -29.140  1.00  0.00    -0.325 N 
HETATM    4  H   UNL     1      -5.088   7.423 -29.915  1.00  0.00     0.169 HD
BRANCH   3   5
HETATM    5  C   UNL     1      -3.910   7.076 -28.304  1.00  0.00     0.094 C 
HETATM    6  S   UNL     1      -4.398   7.035 -26.672  1.00  0.00    -0.075 SA
HETATM    7  C   UNL     1      -2.879   7.588 -26.123  1.00  0.00    -0.007 C 
HETATM    8  C   UNL     1      -2.691   7.889 -24.670  1.00  0.00     0.057 C 
HETATM    9  C   UNL     1      -1.968   7.667 -27.164  1.00  0.00     0.006 C 
HETATM   10  C   UNL     1      -2.549   7.287 -28.443  1.00  0.00     0.085 C 
BRANCH   9  11
HETATM   11  C   UNL     1      -0.596   8.115 -26.938  1.00  0.00    -0.024 A 
HETATM   12  C   UNL     1      -0.287   9.477 -27.047  1.00  0.00     0.012 A 
HETATM   13  C   UNL     1       1.023   9.918 -26.850  1.00  0.00     0.001 A 
HETATM   14  C   UNL     1       2.028   9.001 -26.543  1.00  0.00     0.000 A 
HETATM   15  C   UNL     1       1.727   7.644 -26.434  1.00  0.00     0.001 A 
HETATM   16  C   UNL     1       0.418   7.200 -26.634  1.00  0.00     0.012 A 
ENDBRANCH   9  11
BRANCH  10  17
HETATM   17  C   UNL     1      -1.788   7.089 -29.674  1.00  0.00     0.296 C 
HETATM   18  O   UNL     1      -0.994   7.907 -30.118  1.00  0.00    -0.259 OA
BRANCH  17  19
HETATM   19  O   UNL     1      -2.090   5.909 -30.288  1.00  0.00    -0.322 OA
HETATM   20  C   UNL     1      -1.668   5.821 -31.647  1.00  0.00     0.213 C 
ENDBRANCH  17  19
ENDBRANCH  10  17
ENDBRANCH   3   5
ENDBRANCH   1   3
BRANCH   1  21
HETATM   21  N   UNL     1      -4.772   4.592 -29.992  1.00  0.00    -0.273 N 
HETATM   22  H   UNL     1      -3.759   4.586 -29.868  1.00  0.00     0.189 HD
BRANCH  21  23
HETATM   23  N   UNL     1      -5.307   3.347 -30.363  1.00  0.00    -0.266 N 
HETATM   24  C   UNL     1      -4.779   2.724 -31.482  1.00  0.00     0.265 C 
HETATM   25  O   UNL     1      -3.853   3.222 -32.125  1.00  0.00    -0.269 OA
HETATM   26  H   UNL     1      -6.156   3.054 -29.890  1.00  0.00     0.190 HD
BRANCH  24  27
HETATM   27  C   UNL     1      -5.468   1.402 -31.879  1.00  0.00     0.218 C 
HETATM   28  C   UNL     1      -5.651   0.469 -30.685  1.00  0.00     0.050 C 
BRANCH  27  29
HETATM   29  O   UNL     1      -4.606   0.753 -32.826  1.00  0.00    -0.335 OA
BRANCH  29  30
HETATM   30  C   UNL     1      -5.055  -0.424 -33.358  1.00  0.00     0.091 A 
HETATM   31  C   UNL     1      -4.295  -1.584 -33.147  1.00  0.00     0.068 A 
HETATM   32 CL   UNL     1      -2.887  -1.561 -32.146  1.00  0.00    -0.081 Cl
HETATM   33  C   UNL     1      -4.665  -2.793 -33.739  1.00  0.00     0.046 A 
HETATM   34  C   UNL     1      -5.792  -2.837 -34.555  1.00  0.00     0.012 A 
HETATM   35 BR   UNL     1      -6.291  -4.466 -35.373  1.00  0.00    -0.051 Br
HETATM   36  C   UNL     1      -6.544  -1.686 -34.790  1.00  0.00     0.022 A 
HETATM   37  C   UNL     1      -6.170  -0.475 -34.199  1.00  0.00     0.040 A 
ENDBRANCH  29  30
ENDBRANCH  27  29
ENDBRANCH  24  27
ENDBRANCH  21  23
ENDBRANCH   1  21
TORSDOF 10
ENDMDL
MODEL 9
REMARK VINA RESULT:      -8.0      4.032      7.179
REMARK  10 active torsions:
REMARK  status: ('A' for Active; 'I' for Inactive)
REMARK    1  A    between atoms: C_4  and  N_5 
REMARK    2  A    between atoms: N_5  and  C_6 
REMARK    3  A    between atoms: C_6  and  N_7 
REMARK    4  A    between atoms: N_7  and  N_8 
REMARK       I    between atoms: N_8  and  C_9 
REMARK    5  A    between atoms: C_9  and  C_10 
REMARK    6  A    between atoms: C_10  and  O_11 
REMARK    7  A    between atoms: O_11  and  C_12 
REMARK    8  A    between atoms: C_23  and  C_24 
REMARK    9  A    between atoms: C_24  and  O_25 
REMARK   10  A    between atoms: C_28  and  C_29 
ROOT
HETATM    1  C   UNL     1      -4.863   5.484 -30.766  1.00  0.00     0.191 C 
HETATM    2  S   UNL     1      -3.400   6.177 -31.227  1.00  0.00    -0.039 SA
ENDROOT
BRANCH   1   3
HETATM    3  N   UNL     1      -6.006   6.124 -31.159  1.00  0.00    -0.325 N 
HETATM    4  H   UNL     1      -6.074   7.055 -30.761  1.00  0.00     0.169 HD
BRANCH   3   5
HETATM    5  C   UNL     1      -7.213   5.572 -31.539  1.00  0.00     0.094 C 
HETATM    6  S   UNL     1      -8.496   6.246 -30.643  1.00  0.00    -0.075 SA
HETATM    7  C   UNL     1      -9.640   5.186 -31.336  1.00  0.00    -0.007 C 
HETATM    8  C   UNL     1     -11.050   5.203 -30.837  1.00  0.00     0.057 C 
HETATM    9  C   UNL     1      -9.071   4.424 -32.344  1.00  0.00     0.006 C 
HETATM   10  C   UNL     1      -7.655   4.706 -32.524  1.00  0.00     0.085 C 
BRANCH   9  11
HETATM   11  C   UNL     1      -9.859   3.444 -33.089  1.00  0.00    -0.024 A 
HETATM   12  C   UNL     1      -9.862   2.104 -32.677  1.00  0.00     0.012 A 
HETATM   13  C   UNL     1     -10.596   1.154 -33.389  1.00  0.00     0.001 A 
HETATM   14  C   UNL     1     -11.329   1.536 -34.511  1.00  0.00     0.000 A 
HETATM   15  C   UNL     1     -11.328   2.867 -34.926  1.00  0.00     0.001 A 
HETATM   16  C   UNL     1     -10.592   3.820 -34.219  1.00  0.00     0.012 A 
ENDBRANCH   9  11
BRANCH  10  17
HETATM   17  C   UNL     1      -6.843   4.201 -33.627  1.00  0.00     0.296 C 
HETATM   18  O   UNL     1      -6.789   3.021 -33.945  1.00  0.00    -0.259 OA
BRANCH  17  19
HETATM   19  O   UNL     1      -6.125   5.187 -34.239  1.00  0.00    -0.322 OA
HETATM   20  C   UNL     1      -4.776   4.841 -34.542  1.00  0.00     0.213 C 
ENDBRANCH  17  19
ENDBRANCH  10  17
ENDBRANCH   3   5
ENDBRANCH   1   3
BRANCH   1  21
HETATM   21  N   UNL     1      -4.958   4.427 -29.907  1.00  0.00    -0.273 N 
HETATM   22  H   UNL     1      -5.284   4.570 -28.952  1.00  0.00     0.189 HD
BRANCH  21  23
HETATM   23  N   UNL     1      -5.091   3.106 -30.364  1.00  0.00    -0.266 N 
HETATM   24  C   UNL     1      -6.284   2.450 -30.107  1.00  0.00     0.265 C 
HETATM   25  O   UNL     1      -7.215   3.005 -29.519  1.00  0.00    -0.269 OA
HETATM   26  H   UNL     1      -4.250   2.654 -30.711  1.00  0.00     0.190 HD
BRANCH  24  27
HETATM   27  C   UNL     1      -6.331   0.978 -30.564  1.00  0.00     0.218 C 
HETATM   28  C   UNL     1      -5.682   0.041 -29.548  1.00  0.00     0.050 C 
BRANCH  27  29
HETATM   29  O   UNL     1      -5.586   0.897 -31.787  1.00  0.00    -0.335 OA
BRANCH  29  30
HETATM   30  C   UNL     1      -5.763  -0.229 -32.541  1.00  0.00     0.091 A 
HETATM   31  C   UNL     1      -4.635  -0.998 -32.868  1.00  0.00     0.068 A 
HETATM   32 CL   UNL     1      -3.073  -0.605 -32.242  1.00  0.00    -0.081 Cl
HETATM   33  C   UNL     1      -4.752  -2.109 -33.704  1.00  0.00     0.046 A 
HETATM   34  C   UNL     1      -5.998  -2.443 -34.227  1.00  0.00     0.012 A 
HETATM   35 BR   UNL     1      -6.162  -3.938 -35.372  1.00  0.00    -0.051 Br
HETATM   36  C   UNL     1      -7.123  -1.675 -33.927  1.00  0.00     0.022 A 
HETATM   37  C   UNL     1      -7.004  -0.560 -33.092  1.00  0.00     0.040 A 
ENDBRANCH  29  30
ENDBRANCH  27  29
ENDBRANCH  24  27
ENDBRANCH  21  23
ENDBRANCH   1  21
TORSDOF 10
ENDMDL
MODEL 10
REMARK VINA RESULT:      -7.9      2.246      2.713
REMARK  10 active torsions:
REMARK  status: ('A' for Active; 'I' for Inactive)
REMARK    1  A    between atoms: C_4  and  N_5 
REMARK    2  A    between atoms: N_5  and  C_6 
REMARK    3  A    between atoms: C_6  and  N_7 
REMARK    4  A    between atoms: N_7  and  N_8 
REMARK       I    between atoms: N_8  and  C_9 
REMARK    5  A    between atoms: C_9  and  C_10 
REMARK    6  A    between atoms: C_10  and  O_11 
REMARK    7  A    between atoms: O_11  and  C_12 
REMARK    8  A    between atoms: C_23  and  C_24 
REMARK    9  A    between atoms: C_24  and  O_25 
REMARK   10  A    between atoms: C_28  and  C_29 
ROOT
HETATM    1  C   UNL     1      -6.636   7.153 -32.062  1.00  0.00     0.191 C 
HETATM    2  S   UNL     1      -8.309   7.321 -32.142  1.00  0.00    -0.039 SA
ENDROOT
BRANCH   1   3
HETATM    3  N   UNL     1      -5.950   8.092 -31.342  1.00  0.00    -0.325 N 
HETATM    4  H   UNL     1      -5.955   8.997 -31.801  1.00  0.00     0.169 HD
BRANCH   3   5
HETATM    5  C   UNL     1      -4.911   7.903 -30.453  1.00  0.00     0.094 C 
HETATM    6  S   UNL     1      -5.492   7.347 -28.951  1.00  0.00    -0.075 SA
HETATM    7  C   UNL     1      -3.945   7.428 -28.235  1.00  0.00    -0.007 C 
HETATM    8  C   UNL     1      -3.800   7.149 -26.773  1.00  0.00     0.057 C 
HETATM    9  C   UNL     1      -2.974   7.739 -29.173  1.00  0.00     0.006 C 
HETATM   10  C   UNL     1      -3.528   7.941 -30.503  1.00  0.00     0.085 C 
BRANCH   9  11
HETATM   11  C   UNL     1      -1.567   7.861 -28.795  1.00  0.00    -0.024 A 
HETATM   12  C   UNL     1      -1.115   9.040 -28.188  1.00  0.00     0.012 A 
HETATM   13  C   UNL     1       0.230   9.177 -27.837  1.00  0.00     0.001 A 
HETATM   14  C   UNL     1       1.126   8.140 -28.090  1.00  0.00     0.000 A 
HETATM   15  C   UNL     1       0.681   6.965 -28.696  1.00  0.00     0.001 A 
HETATM   16  C   UNL     1      -0.662   6.826 -29.051  1.00  0.00     0.012 A 
ENDBRANCH   9  11
BRANCH  10  17
HETATM   17  C   UNL     1      -2.734   8.090 -31.719  1.00  0.00     0.296 C 
HETATM   18  O   UNL     1      -2.022   9.058 -31.949  1.00  0.00    -0.259 OA
BRANCH  17  19
HETATM   19  O   UNL     1      -2.903   7.048 -32.582  1.00  0.00    -0.322 OA
HETATM   20  C   UNL     1      -2.166   7.156 -33.798  1.00  0.00     0.213 C 
ENDBRANCH  17  19
ENDBRANCH  10  17
ENDBRANCH   3   5
ENDBRANCH   1   3
BRANCH   1  21
HETATM   21  N   UNL     1      -5.937   6.238 -32.793  1.00  0.00    -0.273 N 
HETATM   22  H   UNL     1      -5.160   6.537 -33.383  1.00  0.00     0.189 HD
BRANCH  21  23
HETATM   23  N   UNL     1      -5.895   4.878 -32.442  1.00  0.00    -0.266 N 
HETATM   24  C   UNL     1      -6.619   3.987 -33.218  1.00  0.00     0.265 C 
HETATM   25  O   UNL     1      -7.264   4.359 -34.201  1.00  0.00    -0.269 OA
HETATM   26  H   UNL     1      -5.471   4.648 -31.549  1.00  0.00     0.190 HD
BRANCH  24  27
HETATM   27  C   UNL     1      -6.595   2.525 -32.728  1.00  0.00     0.218 C 
HETATM   28  C   UNL     1      -6.137   2.414 -31.276  1.00  0.00     0.050 C 
BRANCH  27  29
HETATM   29  O   UNL     1      -5.648   1.827 -33.550  1.00  0.00    -0.335 OA
BRANCH  29  30
HETATM   30  C   UNL     1      -5.917   0.513 -33.816  1.00  0.00     0.091 A 
HETATM   31  C   UNL     1      -4.965  -0.450 -33.448  1.00  0.00     0.068 A 
HETATM   32 CL   UNL     1      -3.539  -0.012 -32.577  1.00  0.00    -0.081 Cl
HETATM   33  C   UNL     1      -5.154  -1.794 -33.773  1.00  0.00     0.046 A 
HETATM   34  C   UNL     1      -6.292  -2.173 -34.480  1.00  0.00     0.012 A 
HETATM   35 BR   UNL     1      -6.548  -3.989 -34.937  1.00  0.00    -0.051 Br
HETATM   36  C   UNL     1      -7.235  -1.222 -34.870  1.00  0.00     0.022 A 
HETATM   37  C   UNL     1      -7.042   0.125 -34.547  1.00  0.00     0.040 A 
ENDBRANCH  29  30
ENDBRANCH  27  29
ENDBRANCH  24  27
ENDBRANCH  21  23
ENDBRANCH   1  21
TORSDOF 10
ENDMDL
