MODEL 1
REMARK VINA RESULT:      -9.3      0.000      0.000
REMARK  4 active torsions:
REMARK  status: ('A' for Active; 'I' for Inactive)
REMARK    1  A    between atoms: C_6  and  C_7 
REMARK    2  A    between atoms: C_10  and  N_11 
REMARK       I    between atoms: N_11  and  C_12 
REMARK    3  A    between atoms: C_24  and  C_25 
REMARK       I    between atoms: C_25  and  N_26 
REMARK    4  A    between atoms: N_26  and  C_27 
ROOT
HETATM    1  C   UNL     1     -10.116   4.198 -30.245  1.00  0.00     0.070 C 
HETATM    2  C   UNL     1      -8.956   3.929 -31.171  1.00  0.00     0.037 C 
HETATM    3  N   UNL     1      -7.701   4.235 -30.652  1.00  0.00    -0.193 N 
HETATM    4  C   UNL     1      -6.617   4.442 -31.426  1.00  0.00     0.709 A 
HETATM    5  N   UNL     1      -6.666   4.084 -32.749  1.00  0.00    -0.165 N 
HETATM    6  C   UNL     1      -7.827   3.414 -33.349  1.00  0.00     0.182 C 
HETATM    7  N   UNL     1      -5.477   5.008 -31.119  1.00  0.00    -0.062 NA
HETATM    8  C   UNL     1      -4.784   5.073 -32.306  1.00  0.00     0.103 A 
HETATM    9  C   UNL     1      -5.512   4.510 -33.355  1.00  0.00     0.082 A 
HETATM   10  C   UNL     1      -3.519   5.621 -32.570  1.00  0.00     0.034 A 
HETATM   11  C   UNL     1      -3.030   5.593 -33.882  1.00  0.00     0.002 A 
HETATM   12  C   UNL     1      -3.780   5.022 -34.912  1.00  0.00     0.002 A 
HETATM   13  C   UNL     1      -5.041   4.463 -34.671  1.00  0.00     0.032 A 
HETATM   14  C   UNL     1      -9.060   3.515 -32.459  1.00  0.00     0.061 C 
HETATM   15  H   UNL     1      -7.671   4.634 -29.717  1.00  0.00     0.184 HD
ENDROOT
BRANCH   6  16
HETATM   16  C   UNL     1      -7.471   1.970 -33.698  1.00  0.00    -0.030 A 
HETATM   17  C   UNL     1      -7.341   1.538 -35.028  1.00  0.00     0.012 A 
HETATM   18  C   UNL     1      -7.089   0.195 -35.330  1.00  0.00     0.030 A 
HETATM   19  C   UNL     1      -6.948  -0.746 -34.312  1.00  0.00     0.034 A 
HETATM   20  C   UNL     1      -7.032  -0.316 -32.982  1.00  0.00     0.030 A 
HETATM   21  C   UNL     1      -7.284   1.027 -32.677  1.00  0.00     0.012 A 
BRANCH  19  22
HETATM   22  N   UNL     1      -6.755  -2.126 -34.534  1.00  0.00    -0.328 N 
HETATM   23  C   UNL     1      -5.559  -2.820 -34.526  1.00  0.00     0.218 C 
HETATM   24  C   UNL     1      -5.737  -4.270 -34.904  1.00  0.00     0.117 C 
HETATM   25  O   UNL     1      -4.452  -2.384 -34.232  1.00  0.00    -0.274 OA
HETATM   26  H   UNL     1      -7.589  -2.662 -34.741  1.00  0.00     0.169 HD
ENDBRANCH  19  22
ENDBRANCH   6  16
BRANCH  14  27
HETATM   27  C   UNL     1     -10.342   3.302 -33.190  1.00  0.00     0.256 C 
HETATM   28  N   UNL     1     -11.039   2.176 -32.811  1.00  0.00    -0.323 N 
HETATM   29  H   UNL     1     -10.584   1.553 -32.157  1.00  0.00     0.169 HD
HETATM   30  O   UNL     1     -10.654   4.099 -34.069  1.00  0.00    -0.267 OA
BRANCH  28  31
HETATM   31  C   UNL     1     -12.363   1.838 -33.168  1.00  0.00     0.035 A 
HETATM   32  C   UNL     1     -13.490   2.554 -32.757  1.00  0.00     0.029 A 
HETATM   33  C   UNL     1     -14.773   2.123 -33.106  1.00  0.00     0.002 A 
HETATM   34  C   UNL     1     -14.943   0.967 -33.864  1.00  0.00     0.000 A 
HETATM   35  C   UNL     1     -13.827   0.248 -34.283  1.00  0.00     0.002 A 
HETATM   36  C   UNL     1     -12.544   0.684 -33.940  1.00  0.00     0.029 A 
ENDBRANCH  28  31
ENDBRANCH  14  27
TORSDOF 4
ENDMDL
MODEL 2
REMARK VINA RESULT:      -9.2      2.519      6.506
REMARK  4 active torsions:
REMARK  status: ('A' for Active; 'I' for Inactive)
REMARK    1  A    between atoms: C_6  and  C_7 
REMARK    2  A    between atoms: C_10  and  N_11 
REMARK       I    between atoms: N_11  and  C_12 
REMARK    3  A    between atoms: C_24  and  C_25 
REMARK       I    between atoms: C_25  and  N_26 
REMARK    4  A    between atoms: N_26  and  C_27 
ROOT
HETATM    1  C   UNL     1     -10.810   2.744 -33.682  1.00  0.00     0.070 C 
HETATM    2  C   UNL     1      -9.395   2.230 -33.590  1.00  0.00     0.037 C 
HETATM    3  N   UNL     1      -8.998   1.398 -34.633  1.00  0.00    -0.193 N 
HETATM    4  C   UNL     1      -7.959   0.545 -34.538  1.00  0.00     0.709 A 
HETATM    5  N   UNL     1      -7.087   0.675 -33.487  1.00  0.00    -0.165 N 
HETATM    6  C   UNL     1      -7.191   1.752 -32.494  1.00  0.00     0.182 C 
HETATM    7  N   UNL     1      -7.655  -0.477 -35.297  1.00  0.00    -0.062 NA
HETATM    8  C   UNL     1      -6.578  -1.069 -34.677  1.00  0.00     0.103 A 
HETATM    9  C   UNL     1      -6.203  -0.373 -33.527  1.00  0.00     0.082 A 
HETATM   10  C   UNL     1      -5.870  -2.227 -35.036  1.00  0.00     0.034 A 
HETATM   11  C   UNL     1      -4.813  -2.652 -34.222  1.00  0.00     0.002 A 
HETATM   12  C   UNL     1      -4.460  -1.936 -33.076  1.00  0.00     0.002 A 
HETATM   13  C   UNL     1      -5.147  -0.775 -32.703  1.00  0.00     0.032 A 
HETATM   14  C   UNL     1      -8.550   2.440 -32.549  1.00  0.00     0.061 C 
HETATM   15  H   UNL     1      -9.692   1.186 -35.346  1.00  0.00     0.184 HD
ENDROOT
BRANCH   6  16
HETATM   16  C   UNL     1      -6.030   2.730 -32.665  1.00  0.00    -0.030 A 
HETATM   17  C   UNL     1      -4.972   2.794 -31.744  1.00  0.00     0.012 A 
HETATM   18  C   UNL     1      -3.956   3.747 -31.875  1.00  0.00     0.030 A 
HETATM   19  C   UNL     1      -3.966   4.652 -32.935  1.00  0.00     0.034 A 
HETATM   20  C   UNL     1      -4.993   4.566 -33.882  1.00  0.00     0.030 A 
HETATM   21  C   UNL     1      -6.011   3.614 -33.754  1.00  0.00     0.012 A 
BRANCH  19  22
HETATM   22  N   UNL     1      -3.015   5.680 -33.103  1.00  0.00    -0.328 N 
HETATM   23  C   UNL     1      -1.995   5.739 -34.037  1.00  0.00     0.218 C 
HETATM   24  C   UNL     1      -1.116   6.951 -33.846  1.00  0.00     0.117 C 
HETATM   25  O   UNL     1      -1.784   4.954 -34.953  1.00  0.00    -0.274 OA
HETATM   26  H   UNL     1      -3.078   6.452 -32.452  1.00  0.00     0.169 HD
ENDBRANCH  19  22
ENDBRANCH   6  16
BRANCH  14  27
HETATM   27  C   UNL     1      -8.896   3.177 -31.299  1.00  0.00     0.256 C 
HETATM   28  N   UNL     1      -8.446   4.478 -31.257  1.00  0.00    -0.323 N 
HETATM   29  H   UNL     1      -7.849   4.783 -32.015  1.00  0.00     0.169 HD
HETATM   30  O   UNL     1      -9.504   2.580 -30.418  1.00  0.00    -0.267 OA
BRANCH  28  31
HETATM   31  C   UNL     1      -8.801   5.468 -30.314  1.00  0.00     0.035 A 
HETATM   32  C   UNL     1      -9.865   6.358 -30.478  1.00  0.00     0.029 A 
HETATM   33  C   UNL     1     -10.118   7.348 -29.523  1.00  0.00     0.002 A 
HETATM   34  C   UNL     1      -9.306   7.461 -28.398  1.00  0.00     0.000 A 
HETATM   35  C   UNL     1      -8.245   6.576 -28.221  1.00  0.00     0.002 A 
HETATM   36  C   UNL     1      -7.998   5.582 -29.172  1.00  0.00     0.029 A 
ENDBRANCH  28  31
ENDBRANCH  14  27
TORSDOF 4
ENDMDL
MODEL 3
REMARK VINA RESULT:      -9.1      2.425      6.646
REMARK  4 active torsions:
REMARK  status: ('A' for Active; 'I' for Inactive)
REMARK    1  A    between atoms: C_6  and  C_7 
REMARK    2  A    between atoms: C_10  and  N_11 
REMARK       I    between atoms: N_11  and  C_12 
REMARK    3  A    between atoms: C_24  and  C_25 
REMARK       I    between atoms: C_25  and  N_26 
REMARK    4  A    between atoms: N_26  and  C_27 
ROOT
HETATM    1  C   UNL     1     -10.298  -0.684 -32.624  1.00  0.00     0.070 C 
HETATM    2  C   UNL     1      -9.933   0.744 -32.941  1.00  0.00     0.037 C 
HETATM    3  N   UNL     1     -10.828   1.702 -32.475  1.00  0.00    -0.193 N 
HETATM    4  C   UNL     1     -10.897   2.951 -32.979  1.00  0.00     0.709 A 
HETATM    5  N   UNL     1      -9.886   3.396 -33.792  1.00  0.00    -0.165 N 
HETATM    6  C   UNL     1      -8.689   2.597 -34.083  1.00  0.00     0.182 C 
HETATM    7  N   UNL     1     -11.848   3.841 -32.855  1.00  0.00    -0.062 NA
HETATM    8  C   UNL     1     -11.466   4.882 -33.670  1.00  0.00     0.103 A 
HETATM    9  C   UNL     1     -10.239   4.626 -34.284  1.00  0.00     0.082 A 
HETATM   10  C   UNL     1     -12.132   6.085 -33.951  1.00  0.00     0.034 A 
HETATM   11  C   UNL     1     -11.548   6.989 -34.846  1.00  0.00     0.002 A 
HETATM   12  C   UNL     1     -10.319   6.707 -35.446  1.00  0.00     0.002 A 
HETATM   13  C   UNL     1      -9.632   5.517 -35.175  1.00  0.00     0.032 A 
HETATM   14  C   UNL     1      -8.881   1.134 -33.705  1.00  0.00     0.061 C 
HETATM   15  H   UNL     1     -11.656   1.365 -31.989  1.00  0.00     0.184 HD
ENDROOT
BRANCH   6  16
HETATM   16  C   UNL     1      -7.470   3.224 -33.407  1.00  0.00    -0.030 A 
HETATM   17  C   UNL     1      -7.411   3.419 -32.018  1.00  0.00     0.012 A 
HETATM   18  C   UNL     1      -6.319   4.063 -31.424  1.00  0.00     0.030 A 
HETATM   19  C   UNL     1      -5.255   4.517 -32.202  1.00  0.00     0.034 A 
HETATM   20  C   UNL     1      -5.286   4.286 -33.583  1.00  0.00     0.030 A 
HETATM   21  C   UNL     1      -6.377   3.642 -34.179  1.00  0.00     0.012 A 
BRANCH  19  22
HETATM   22  N   UNL     1      -4.150   5.228 -31.690  1.00  0.00    -0.328 N 
HETATM   23  C   UNL     1      -2.872   4.749 -31.464  1.00  0.00     0.218 C 
HETATM   24  C   UNL     1      -1.982   5.780 -30.814  1.00  0.00     0.117 C 
HETATM   25  O   UNL     1      -2.435   3.641 -31.755  1.00  0.00    -0.274 OA
HETATM   26  H   UNL     1      -4.322   6.195 -31.443  1.00  0.00     0.169 HD
ENDBRANCH  19  22
ENDBRANCH   6  16
BRANCH  14  27
HETATM   27  C   UNL     1      -7.935   0.210 -34.398  1.00  0.00     0.256 C 
HETATM   28  N   UNL     1      -7.231  -0.625 -33.559  1.00  0.00    -0.323 N 
HETATM   29  H   UNL     1      -7.339  -0.475 -32.564  1.00  0.00     0.169 HD
HETATM   30  O   UNL     1      -7.833   0.285 -35.617  1.00  0.00    -0.267 OA
BRANCH  28  31
HETATM   31  C   UNL     1      -6.439  -1.732 -33.935  1.00  0.00     0.035 A 
HETATM   32  C   UNL     1      -5.042  -1.735 -33.918  1.00  0.00     0.029 A 
HETATM   33  C   UNL     1      -4.328  -2.853 -34.358  1.00  0.00     0.002 A 
HETATM   34  C   UNL     1      -5.003  -3.977 -34.826  1.00  0.00     0.000 A 
HETATM   35  C   UNL     1      -6.395  -3.988 -34.843  1.00  0.00     0.002 A 
HETATM   36  C   UNL     1      -7.109  -2.873 -34.395  1.00  0.00     0.029 A 
ENDBRANCH  28  31
ENDBRANCH  14  27
TORSDOF 4
ENDMDL
MODEL 4
REMARK VINA RESULT:      -8.9      2.489      5.784
REMARK  4 active torsions:
REMARK  status: ('A' for Active; 'I' for Inactive)
REMARK    1  A    between atoms: C_6  and  C_7 
REMARK    2  A    between atoms: C_10  and  N_11 
REMARK       I    between atoms: N_11  and  C_12 
REMARK    3  A    between atoms: C_24  and  C_25 
REMARK       I    between atoms: C_25  and  N_26 
REMARK    4  A    between atoms: N_26  and  C_27 
ROOT
HETATM    1  C   UNL     1     -11.040   1.588 -34.358  1.00  0.00     0.070 C 
HETATM    2  C   UNL     1      -9.581   1.445 -34.003  1.00  0.00     0.037 C 
HETATM    3  N   UNL     1      -8.851   0.594 -34.827  1.00  0.00    -0.193 N 
HETATM    4  C   UNL     1      -7.681   0.036 -34.457  1.00  0.00     0.709 A 
HETATM    5  N   UNL     1      -7.039   0.516 -33.343  1.00  0.00    -0.165 N 
HETATM    6  C   UNL     1      -7.533   1.664 -32.573  1.00  0.00     0.182 C 
HETATM    7  N   UNL     1      -7.045  -0.980 -34.983  1.00  0.00    -0.062 NA
HETATM    8  C   UNL     1      -5.980  -1.205 -34.141  1.00  0.00     0.103 A 
HETATM    9  C   UNL     1      -5.956  -0.286 -33.091  1.00  0.00     0.082 A 
HETATM   10  C   UNL     1      -4.991  -2.198 -34.202  1.00  0.00     0.034 A 
HETATM   11  C   UNL     1      -4.013  -2.241 -33.201  1.00  0.00     0.002 A 
HETATM   12  C   UNL     1      -4.012  -1.309 -32.162  1.00  0.00     0.002 A 
HETATM   13  C   UNL     1      -4.985  -0.305 -32.084  1.00  0.00     0.032 A 
HETATM   14  C   UNL     1      -8.981   1.994 -32.916  1.00  0.00     0.061 C 
HETATM   15  H   UNL     1      -9.358   0.125 -35.574  1.00  0.00     0.184 HD
ENDROOT
BRANCH   6  16
HETATM   16  C   UNL     1      -6.598   2.858 -32.763  1.00  0.00    -0.030 A 
HETATM   17  C   UNL     1      -6.578   3.603 -33.953  1.00  0.00     0.012 A 
HETATM   18  C   UNL     1      -5.663   4.645 -34.138  1.00  0.00     0.030 A 
HETATM   19  C   UNL     1      -4.753   4.975 -33.135  1.00  0.00     0.034 A 
HETATM   20  C   UNL     1      -4.796   4.266 -31.929  1.00  0.00     0.030 A 
HETATM   21  C   UNL     1      -5.710   3.224 -31.741  1.00  0.00     0.012 A 
BRANCH  19  22
HETATM   22  N   UNL     1      -3.760   5.968 -33.267  1.00  0.00    -0.328 N 
HETATM   23  C   UNL     1      -2.674   5.964 -34.125  1.00  0.00     0.218 C 
HETATM   24  C   UNL     1      -1.773   7.155 -33.910  1.00  0.00     0.117 C 
HETATM   25  O   UNL     1      -2.422   5.140 -34.996  1.00  0.00    -0.274 OA
HETATM   26  H   UNL     1      -3.845   6.765 -32.648  1.00  0.00     0.169 HD
ENDBRANCH  19  22
ENDBRANCH   6  16
BRANCH  14  27
HETATM   27  C   UNL     1      -9.675   2.794 -31.866  1.00  0.00     0.256 C 
HETATM   28  N   UNL     1     -10.438   3.834 -32.347  1.00  0.00    -0.323 N 
HETATM   29  H   UNL     1     -10.382   4.024 -33.339  1.00  0.00     0.169 HD
HETATM   30  O   UNL     1      -9.494   2.497 -30.690  1.00  0.00    -0.267 OA
BRANCH  28  31
HETATM   31  C   UNL     1     -11.362   4.615 -31.620  1.00  0.00     0.035 A 
HETATM   32  C   UNL     1     -11.089   5.893 -31.126  1.00  0.00     0.029 A 
HETATM   33  C   UNL     1     -12.039   6.582 -30.366  1.00  0.00     0.002 A 
HETATM   34  C   UNL     1     -13.270   5.996 -30.086  1.00  0.00     0.000 A 
HETATM   35  C   UNL     1     -13.557   4.725 -30.576  1.00  0.00     0.002 A 
HETATM   36  C   UNL     1     -12.609   4.040 -31.343  1.00  0.00     0.029 A 
ENDBRANCH  28  31
ENDBRANCH  14  27
TORSDOF 4
ENDMDL
MODEL 5
REMARK VINA RESULT:      -8.8      2.051      2.620
REMARK  4 active torsions:
REMARK  status: ('A' for Active; 'I' for Inactive)
REMARK    1  A    between atoms: C_6  and  C_7 
REMARK    2  A    between atoms: C_10  and  N_11 
REMARK       I    between atoms: N_11  and  C_12 
REMARK    3  A    between atoms: C_24  and  C_25 
REMARK       I    between atoms: C_25  and  N_26 
REMARK    4  A    between atoms: N_26  and  C_27 
ROOT
HETATM    1  C   UNL     1      -8.696   6.444 -31.144  1.00  0.00     0.070 C 
HETATM    2  C   UNL     1      -7.443   5.824 -31.709  1.00  0.00     0.037 C 
HETATM    3  N   UNL     1      -6.250   6.362 -31.236  1.00  0.00    -0.193 N 
HETATM    4  C   UNL     1      -5.077   6.235 -31.887  1.00  0.00     0.709 A 
HETATM    5  N   UNL     1      -4.980   5.326 -32.910  1.00  0.00    -0.165 N 
HETATM    6  C   UNL     1      -6.080   4.428 -33.284  1.00  0.00     0.182 C 
HETATM    7  N   UNL     1      -3.966   6.908 -31.730  1.00  0.00    -0.062 NA
HETATM    8  C   UNL     1      -3.135   6.460 -32.732  1.00  0.00     0.103 A 
HETATM    9  C   UNL     1      -3.750   5.470 -33.500  1.00  0.00     0.082 A 
HETATM   10  C   UNL     1      -1.834   6.868 -33.060  1.00  0.00     0.034 A 
HETATM   11  C   UNL     1      -1.194   6.275 -34.155  1.00  0.00     0.002 A 
HETATM   12  C   UNL     1      -1.833   5.287 -34.907  1.00  0.00     0.002 A 
HETATM   13  C   UNL     1      -3.129   4.858 -34.594  1.00  0.00     0.032 A 
HETATM   14  C   UNL     1      -7.406   4.880 -32.683  1.00  0.00     0.061 C 
HETATM   15  H   UNL     1      -6.319   7.135 -30.578  1.00  0.00     0.184 HD
ENDROOT
BRANCH   6  16
HETATM   16  C   UNL     1      -5.726   2.989 -32.912  1.00  0.00    -0.030 A 
HETATM   17  C   UNL     1      -5.131   2.666 -31.682  1.00  0.00     0.012 A 
HETATM   18  C   UNL     1      -4.745   1.353 -31.389  1.00  0.00     0.030 A 
HETATM   19  C   UNL     1      -4.953   0.330 -32.313  1.00  0.00     0.034 A 
HETATM   20  C   UNL     1      -5.585   0.637 -33.523  1.00  0.00     0.030 A 
HETATM   21  C   UNL     1      -5.973   1.949 -33.819  1.00  0.00     0.012 A 
BRANCH  19  22
HETATM   22  N   UNL     1      -4.537  -1.003 -32.119  1.00  0.00    -0.328 N 
HETATM   23  C   UNL     1      -3.241  -1.471 -31.988  1.00  0.00     0.218 C 
HETATM   24  C   UNL     1      -3.183  -2.975 -31.895  1.00  0.00     0.117 C 
HETATM   25  O   UNL     1      -2.216  -0.802 -31.922  1.00  0.00    -0.274 OA
HETATM   26  H   UNL     1      -5.273  -1.698 -32.093  1.00  0.00     0.169 HD
ENDBRANCH  19  22
ENDBRANCH   6  16
BRANCH  14  27
HETATM   27  C   UNL     1      -8.599   4.330 -33.390  1.00  0.00     0.256 C 
HETATM   28  N   UNL     1      -9.245   3.314 -32.721  1.00  0.00    -0.323 N 
HETATM   29  H   UNL     1      -8.808   2.969 -31.877  1.00  0.00     0.169 HD
HETATM   30  O   UNL     1      -8.886   4.783 -34.493  1.00  0.00    -0.267 OA
BRANCH  28  31
HETATM   31  C   UNL     1     -10.504   2.758 -33.037  1.00  0.00     0.035 A 
HETATM   32  C   UNL     1     -11.712   3.454 -32.944  1.00  0.00     0.029 A 
HETATM   33  C   UNL     1     -12.924   2.815 -33.220  1.00  0.00     0.002 A 
HETATM   34  C   UNL     1     -12.942   1.472 -33.586  1.00  0.00     0.000 A 
HETATM   35  C   UNL     1     -11.744   0.769 -33.686  1.00  0.00     0.002 A 
HETATM   36  C   UNL     1     -10.532   1.410 -33.417  1.00  0.00     0.029 A 
ENDBRANCH  28  31
ENDBRANCH  14  27
TORSDOF 4
ENDMDL
MODEL 6
REMARK VINA RESULT:      -8.7      1.746      2.561
REMARK  4 active torsions:
REMARK  status: ('A' for Active; 'I' for Inactive)
REMARK    1  A    between atoms: C_6  and  C_7 
REMARK    2  A    between atoms: C_10  and  N_11 
REMARK       I    between atoms: N_11  and  C_12 
REMARK    3  A    between atoms: C_24  and  C_25 
REMARK       I    between atoms: C_25  and  N_26 
REMARK    4  A    between atoms: N_26  and  C_27 
ROOT
HETATM    1  C   UNL     1      -7.297   5.528 -28.862  1.00  0.00     0.070 C 
HETATM    2  C   UNL     1      -6.499   5.067 -30.056  1.00  0.00     0.037 C 
HETATM    3  N   UNL     1      -5.120   5.026 -29.867  1.00  0.00    -0.193 N 
HETATM    4  C   UNL     1      -4.238   5.033 -30.886  1.00  0.00     0.709 A 
HETATM    5  N   UNL     1      -4.693   4.804 -32.160  1.00  0.00    -0.165 N 
HETATM    6  C   UNL     1      -6.093   4.477 -32.458  1.00  0.00     0.182 C 
HETATM    7  N   UNL     1      -2.954   5.287 -30.867  1.00  0.00    -0.062 NA
HETATM    8  C   UNL     1      -2.574   5.282 -32.191  1.00  0.00     0.103 A 
HETATM    9  C   UNL     1      -3.650   4.992 -33.030  1.00  0.00     0.082 A 
HETATM   10  C   UNL     1      -1.315   5.536 -32.756  1.00  0.00     0.034 A 
HETATM   11  C   UNL     1      -1.180   5.497 -34.149  1.00  0.00     0.002 A 
HETATM   12  C   UNL     1      -2.274   5.204 -34.966  1.00  0.00     0.002 A 
HETATM   13  C   UNL     1      -3.537   4.941 -34.424  1.00  0.00     0.032 A 
HETATM   14  C   UNL     1      -7.010   4.794 -31.283  1.00  0.00     0.061 C 
HETATM   15  H   UNL     1      -4.767   5.331 -28.962  1.00  0.00     0.184 HD
ENDROOT
BRANCH   6  16
HETATM   16  C   UNL     1      -6.201   3.022 -32.912  1.00  0.00    -0.030 A 
HETATM   17  C   UNL     1      -6.573   2.679 -34.221  1.00  0.00     0.012 A 
HETATM   18  C   UNL     1      -6.741   1.341 -34.598  1.00  0.00     0.030 A 
HETATM   19  C   UNL     1      -6.530   0.314 -33.679  1.00  0.00     0.034 A 
HETATM   20  C   UNL     1      -6.116   0.646 -32.384  1.00  0.00     0.030 A 
HETATM   21  C   UNL     1      -5.947   1.983 -32.004  1.00  0.00     0.012 A 
BRANCH  19  22
HETATM   22  N   UNL     1      -6.738  -1.052 -33.962  1.00  0.00    -0.328 N 
HETATM   23  C   UNL     1      -5.779  -2.007 -34.249  1.00  0.00     0.218 C 
HETATM   24  C   UNL     1      -6.389  -3.343 -34.596  1.00  0.00     0.117 C 
HETATM   25  O   UNL     1      -4.562  -1.866 -34.220  1.00  0.00    -0.274 OA
HETATM   26  H   UNL     1      -7.702  -1.360 -33.974  1.00  0.00     0.169 HD
ENDBRANCH  19  22
ENDBRANCH   6  16
BRANCH  14  27
HETATM   27  C   UNL     1      -8.442   4.948 -31.669  1.00  0.00     0.256 C 
HETATM   28  N   UNL     1      -9.203   3.811 -31.516  1.00  0.00    -0.323 N 
HETATM   29  H   UNL     1      -8.716   2.963 -31.258  1.00  0.00     0.169 HD
HETATM   30  O   UNL     1      -8.816   6.030 -32.111  1.00  0.00    -0.267 OA
BRANCH  28  31
HETATM   31  C   UNL     1     -10.610   3.715 -31.595  1.00  0.00     0.035 A 
HETATM   32  C   UNL     1     -11.303   3.295 -32.733  1.00  0.00     0.029 A 
HETATM   33  C   UNL     1     -12.701   3.281 -32.751  1.00  0.00     0.002 A 
HETATM   34  C   UNL     1     -13.421   3.692 -31.633  1.00  0.00     0.000 A 
HETATM   35  C   UNL     1     -12.741   4.109 -30.491  1.00  0.00     0.002 A 
HETATM   36  C   UNL     1     -11.344   4.116 -30.471  1.00  0.00     0.029 A 
ENDBRANCH  28  31
ENDBRANCH  14  27
TORSDOF 4
ENDMDL
MODEL 7
REMARK VINA RESULT:      -8.6      2.255      3.231
REMARK  4 active torsions:
REMARK  status: ('A' for Active; 'I' for Inactive)
REMARK    1  A    between atoms: C_6  and  C_7 
REMARK    2  A    between atoms: C_10  and  N_11 
REMARK       I    between atoms: N_11  and  C_12 
REMARK    3  A    between atoms: C_24  and  C_25 
REMARK       I    between atoms: C_25  and  N_26 
REMARK    4  A    between atoms: N_26  and  C_27 
ROOT
HETATM    1  C   UNL     1      -6.751   5.187 -28.622  1.00  0.00     0.070 C 
HETATM    2  C   UNL     1      -5.856   4.722 -29.743  1.00  0.00     0.037 C 
HETATM    3  N   UNL     1      -4.560   5.228 -29.715  1.00  0.00    -0.193 N 
HETATM    4  C   UNL     1      -3.759   5.259 -30.799  1.00  0.00     0.709 A 
HETATM    5  N   UNL     1      -4.112   4.532 -31.907  1.00  0.00    -0.165 N 
HETATM    6  C   UNL     1      -5.292   3.659 -31.943  1.00  0.00     0.182 C 
HETATM    7  N   UNL     1      -2.663   5.947 -30.998  1.00  0.00    -0.062 NA
HETATM    8  C   UNL     1      -2.327   5.702 -32.311  1.00  0.00     0.103 A 
HETATM    9  C   UNL     1      -3.228   4.824 -32.914  1.00  0.00     0.082 A 
HETATM   10  C   UNL     1      -1.263   6.215 -33.068  1.00  0.00     0.034 A 
HETATM   11  C   UNL     1      -1.143   5.834 -34.410  1.00  0.00     0.002 A 
HETATM   12  C   UNL     1      -2.059   4.953 -34.988  1.00  0.00     0.002 A 
HETATM   13  C   UNL     1      -3.124   4.423 -34.250  1.00  0.00     0.032 A 
HETATM   14  C   UNL     1      -6.245   3.949 -30.789  1.00  0.00     0.061 C 
HETATM   15  H   UNL     1      -4.333   5.881 -28.968  1.00  0.00     0.184 HD
ENDROOT
BRANCH   6  16
HETATM   16  C   UNL     1      -4.855   2.196 -31.990  1.00  0.00    -0.030 A 
HETATM   17  C   UNL     1      -3.822   1.704 -31.177  1.00  0.00     0.012 A 
HETATM   18  C   UNL     1      -3.383   0.379 -31.288  1.00  0.00     0.030 A 
HETATM   19  C   UNL     1      -3.974  -0.488 -32.205  1.00  0.00     0.034 A 
HETATM   20  C   UNL     1      -5.034  -0.017 -32.989  1.00  0.00     0.030 A 
HETATM   21  C   UNL     1      -5.475   1.307 -32.880  1.00  0.00     0.012 A 
BRANCH  19  22
HETATM   22  N   UNL     1      -3.550  -1.816 -32.421  1.00  0.00    -0.328 N 
HETATM   23  C   UNL     1      -4.020  -2.706 -33.370  1.00  0.00     0.218 C 
HETATM   24  C   UNL     1      -3.393  -4.071 -33.233  1.00  0.00     0.117 C 
HETATM   25  O   UNL     1      -4.828  -2.478 -34.263  1.00  0.00    -0.274 OA
HETATM   26  H   UNL     1      -2.832  -2.159 -31.795  1.00  0.00     0.169 HD
ENDBRANCH  19  22
ENDBRANCH   6  16
BRANCH  14  27
HETATM   27  C   UNL     1      -7.636   3.469 -31.029  1.00  0.00     0.256 C 
HETATM   28  N   UNL     1      -8.106   3.684 -32.305  1.00  0.00    -0.323 N 
HETATM   29  H   UNL     1      -7.519   4.227 -32.926  1.00  0.00     0.169 HD
HETATM   30  O   UNL     1      -8.250   2.965 -30.094  1.00  0.00    -0.267 OA
BRANCH  28  31
HETATM   31  C   UNL     1      -9.283   3.154 -32.877  1.00  0.00     0.035 A 
HETATM   32  C   UNL     1     -10.565   3.651 -32.627  1.00  0.00     0.029 A 
HETATM   33  C   UNL     1     -11.689   3.035 -33.187  1.00  0.00     0.002 A 
HETATM   34  C   UNL     1     -11.542   1.913 -33.998  1.00  0.00     0.000 A 
HETATM   35  C   UNL     1     -10.269   1.411 -34.257  1.00  0.00     0.002 A 
HETATM   36  C   UNL     1      -9.146   2.032 -33.703  1.00  0.00     0.029 A 
ENDBRANCH  28  31
ENDBRANCH  14  27
TORSDOF 4
ENDMDL
MODEL 8
REMARK VINA RESULT:      -8.4      3.432      9.165
REMARK  4 active torsions:
REMARK  status: ('A' for Active; 'I' for Inactive)
REMARK    1  A    between atoms: C_6  and  C_7 
REMARK    2  A    between atoms: C_10  and  N_11 
REMARK       I    between atoms: N_11  and  C_12 
REMARK    3  A    between atoms: C_24  and  C_25 
REMARK       I    between atoms: C_25  and  N_26 
REMARK    4  A    between atoms: N_26  and  C_27 
ROOT
HETATM    1  C   UNL     1      -2.998   0.642 -30.973  1.00  0.00     0.070 C 
HETATM    2  C   UNL     1      -4.299   1.328 -31.308  1.00  0.00     0.037 C 
HETATM    3  N   UNL     1      -5.439   0.546 -31.150  1.00  0.00    -0.193 N 
HETATM    4  C   UNL     1      -6.611   0.823 -31.755  1.00  0.00     0.709 A 
HETATM    5  N   UNL     1      -6.784   2.053 -32.336  1.00  0.00    -0.165 N 
HETATM    6  C   UNL     1      -5.773   3.116 -32.265  1.00  0.00     0.182 C 
HETATM    7  N   UNL     1      -7.652   0.050 -31.936  1.00  0.00    -0.062 NA
HETATM    8  C   UNL     1      -8.509   0.791 -32.718  1.00  0.00     0.103 A 
HETATM    9  C   UNL     1      -7.985   2.053 -32.997  1.00  0.00     0.082 A 
HETATM   10  C   UNL     1      -9.760   0.438 -33.247  1.00  0.00     0.034 A 
HETATM   11  C   UNL     1     -10.441   1.364 -34.047  1.00  0.00     0.002 A 
HETATM   12  C   UNL     1      -9.893   2.622 -34.310  1.00  0.00     0.002 A 
HETATM   13  C   UNL     1      -8.650   2.998 -33.786  1.00  0.00     0.032 A 
HETATM   14  C   UNL     1      -4.416   2.577 -31.827  1.00  0.00     0.061 C 
HETATM   15  H   UNL     1      -5.302  -0.418 -30.851  1.00  0.00     0.184 HD
ENDROOT
BRANCH   6  16
HETATM   16  C   UNL     1      -6.272   4.249 -31.370  1.00  0.00    -0.030 A 
HETATM   17  C   UNL     1      -6.585   4.043 -30.017  1.00  0.00     0.012 A 
HETATM   18  C   UNL     1      -7.113   5.074 -29.231  1.00  0.00     0.030 A 
HETATM   19  C   UNL     1      -7.329   6.339 -29.776  1.00  0.00     0.034 A 
HETATM   20  C   UNL     1      -6.978   6.565 -31.112  1.00  0.00     0.030 A 
HETATM   21  C   UNL     1      -6.450   5.536 -31.900  1.00  0.00     0.012 A 
BRANCH  19  22
HETATM   22  N   UNL     1      -7.913   7.412 -29.070  1.00  0.00    -0.328 N 
HETATM   23  C   UNL     1      -7.458   7.999 -27.903  1.00  0.00     0.218 C 
HETATM   24  C   UNL     1      -8.403   9.058 -27.390  1.00  0.00     0.117 C 
HETATM   25  O   UNL     1      -6.410   7.760 -27.314  1.00  0.00    -0.274 OA
HETATM   26  H   UNL     1      -8.775   7.778 -29.455  1.00  0.00     0.169 HD
ENDBRANCH  19  22
ENDBRANCH   6  16
BRANCH  14  27
HETATM   27  C   UNL     1      -3.275   3.464 -32.194  1.00  0.00     0.256 C 
HETATM   28  N   UNL     1      -2.871   4.323 -31.197  1.00  0.00    -0.323 N 
HETATM   29  H   UNL     1      -3.434   4.349 -30.357  1.00  0.00     0.169 HD
HETATM   30  O   UNL     1      -2.818   3.388 -33.330  1.00  0.00    -0.267 OA
BRANCH  28  31
HETATM   31  C   UNL     1      -1.701   5.113 -31.181  1.00  0.00     0.035 A 
HETATM   32  C   UNL     1      -0.505   4.726 -30.570  1.00  0.00     0.029 A 
HETATM   33  C   UNL     1       0.595   5.590 -30.548  1.00  0.00     0.002 A 
HETATM   34  C   UNL     1       0.508   6.851 -31.131  1.00  0.00     0.000 A 
HETATM   35  C   UNL     1      -0.677   7.246 -31.746  1.00  0.00     0.002 A 
HETATM   36  C   UNL     1      -1.774   6.379 -31.775  1.00  0.00     0.029 A 
ENDBRANCH  28  31
ENDBRANCH  14  27
TORSDOF 4
ENDMDL
MODEL 9
REMARK VINA RESULT:      -8.3      2.680      8.691
REMARK  4 active torsions:
REMARK  status: ('A' for Active; 'I' for Inactive)
REMARK    1  A    between atoms: C_6  and  C_7 
REMARK    2  A    between atoms: C_10  and  N_11 
REMARK       I    between atoms: N_11  and  C_12 
REMARK    3  A    between atoms: C_24  and  C_25 
REMARK       I    between atoms: C_25  and  N_26 
REMARK    4  A    between atoms: N_26  and  C_27 
ROOT
HETATM    1  C   UNL     1      -4.564   1.187 -32.750  1.00  0.00     0.070 C 
HETATM    2  C   UNL     1      -5.979   1.705 -32.690  1.00  0.00     0.037 C 
HETATM    3  N   UNL     1      -6.947   0.751 -32.388  1.00  0.00    -0.193 N 
HETATM    4  C   UNL     1      -8.254   0.914 -32.673  1.00  0.00     0.709 A 
HETATM    5  N   UNL     1      -8.706   2.159 -33.029  1.00  0.00    -0.165 N 
HETATM    6  C   UNL     1      -7.842   3.346 -33.044  1.00  0.00     0.182 C 
HETATM    7  N   UNL     1      -9.208   0.019 -32.719  1.00  0.00    -0.062 NA
HETATM    8  C   UNL     1     -10.311   0.702 -33.182  1.00  0.00     0.103 A 
HETATM    9  C   UNL     1     -10.023   2.050 -33.398  1.00  0.00     0.082 A 
HETATM   10  C   UNL     1     -11.601   0.226 -33.461  1.00  0.00     0.034 A 
HETATM   11  C   UNL     1     -12.559   1.119 -33.956  1.00  0.00     0.002 A 
HETATM   12  C   UNL     1     -12.243   2.464 -34.163  1.00  0.00     0.002 A 
HETATM   13  C   UNL     1     -10.965   2.962 -33.885  1.00  0.00     0.032 A 
HETATM   14  C   UNL     1      -6.366   2.969 -32.996  1.00  0.00     0.061 C 
HETATM   15  H   UNL     1      -6.629  -0.207 -32.260  1.00  0.00     0.184 HD
ENDROOT
BRANCH   6  16
HETATM   16  C   UNL     1      -8.243   4.295 -31.915  1.00  0.00    -0.030 A 
HETATM   17  C   UNL     1      -8.048   3.965 -30.565  1.00  0.00     0.012 A 
HETATM   18  C   UNL     1      -8.491   4.813 -29.542  1.00  0.00     0.030 A 
HETATM   19  C   UNL     1      -9.127   6.016 -29.846  1.00  0.00     0.034 A 
HETATM   20  C   UNL     1      -9.286   6.372 -31.190  1.00  0.00     0.030 A 
HETATM   21  C   UNL     1      -8.844   5.526 -32.214  1.00  0.00     0.012 A 
BRANCH  19  22
HETATM   22  N   UNL     1      -9.657   6.894 -28.877  1.00  0.00    -0.328 N 
HETATM   23  C   UNL     1      -8.983   7.494 -27.828  1.00  0.00     0.218 C 
HETATM   24  C   UNL     1      -9.906   8.293 -26.941  1.00  0.00     0.117 C 
HETATM   25  O   UNL     1      -7.780   7.450 -27.598  1.00  0.00    -0.274 OA
HETATM   26  H   UNL     1     -10.647   7.089 -28.951  1.00  0.00     0.169 HD
ENDBRANCH  19  22
ENDBRANCH   6  16
BRANCH  14  27
HETATM   27  C   UNL     1      -5.459   4.048 -33.487  1.00  0.00     0.256 C 
HETATM   28  N   UNL     1      -4.525   4.473 -32.570  1.00  0.00    -0.323 N 
HETATM   29  H   UNL     1      -4.596   4.099 -31.633  1.00  0.00     0.169 HD
HETATM   30  O   UNL     1      -5.630   4.484 -34.620  1.00  0.00    -0.267 OA
BRANCH  28  31
HETATM   31  C   UNL     1      -3.416   5.313 -32.817  1.00  0.00     0.035 A 
HETATM   32  C   UNL     1      -3.356   6.658 -32.444  1.00  0.00     0.029 A 
HETATM   33  C   UNL     1      -2.244   7.439 -32.774  1.00  0.00     0.002 A 
HETATM   34  C   UNL     1      -1.184   6.885 -33.485  1.00  0.00     0.000 A 
HETATM   35  C   UNL     1      -1.230   5.544 -33.859  1.00  0.00     0.002 A 
HETATM   36  C   UNL     1      -2.338   4.761 -33.522  1.00  0.00     0.029 A 
ENDBRANCH  28  31
ENDBRANCH  14  27
TORSDOF 4
ENDMDL
MODEL 10
REMARK VINA RESULT:      -8.0      2.623      6.085
REMARK  4 active torsions:
REMARK  status: ('A' for Active; 'I' for Inactive)
REMARK    1  A    between atoms: C_6  and  C_7 
REMARK    2  A    between atoms: C_10  and  N_11 
REMARK       I    between atoms: N_11  and  C_12 
REMARK    3  A    between atoms: C_24  and  C_25 
REMARK       I    between atoms: C_25  and  N_26 
REMARK    4  A    between atoms: N_26  and  C_27 
ROOT
HETATM    1  C   UNL     1      -5.431   3.737 -30.071  1.00  0.00     0.070 C 
HETATM    2  C   UNL     1      -5.844   2.648 -31.029  1.00  0.00     0.037 C 
HETATM    3  N   UNL     1      -5.455   1.362 -30.667  1.00  0.00    -0.193 N 
HETATM    4  C   UNL     1      -5.372   0.344 -31.547  1.00  0.00     0.709 A 
HETATM    5  N   UNL     1      -5.940   0.490 -32.787  1.00  0.00    -0.165 N 
HETATM    6  C   UNL     1      -6.701   1.684 -33.178  1.00  0.00     0.182 C 
HETATM    7  N   UNL     1      -4.762  -0.807 -31.425  1.00  0.00    -0.062 NA
HETATM    8  C   UNL     1      -4.888  -1.406 -32.659  1.00  0.00     0.103 A 
HETATM    9  C   UNL     1      -5.615  -0.607 -33.542  1.00  0.00     0.082 A 
HETATM   10  C   UNL     1      -4.386  -2.638 -33.106  1.00  0.00     0.034 A 
HETATM   11  C   UNL     1      -4.625  -3.024 -34.430  1.00  0.00     0.002 A 
HETATM   12  C   UNL     1      -5.357  -2.205 -35.293  1.00  0.00     0.002 A 
HETATM   13  C   UNL     1      -5.873  -0.976 -34.867  1.00  0.00     0.032 A 
HETATM   14  C   UNL     1      -6.460   2.845 -32.222  1.00  0.00     0.061 C 
HETATM   15  H   UNL     1      -4.909   1.266 -29.813  1.00  0.00     0.184 HD
ENDROOT
BRANCH   6  16
HETATM   16  C   UNL     1      -8.181   1.333 -33.317  1.00  0.00    -0.030 A 
HETATM   17  C   UNL     1      -9.020   2.001 -34.223  1.00  0.00     0.012 A 
HETATM   18  C   UNL     1     -10.390   1.719 -34.284  1.00  0.00     0.030 A 
HETATM   19  C   UNL     1     -10.952   0.756 -33.448  1.00  0.00     0.034 A 
HETATM   20  C   UNL     1     -10.115   0.055 -32.572  1.00  0.00     0.030 A 
HETATM   21  C   UNL     1      -8.745   0.334 -32.510  1.00  0.00     0.012 A 
BRANCH  19  22
HETATM   22  N   UNL     1     -12.330   0.458 -33.403  1.00  0.00    -0.328 N 
HETATM   23  C   UNL     1     -13.298   0.811 -34.326  1.00  0.00     0.218 C 
HETATM   24  C   UNL     1     -14.682   0.399 -33.889  1.00  0.00     0.117 C 
HETATM   25  O   UNL     1     -13.125   1.369 -35.404  1.00  0.00    -0.274 OA
HETATM   26  H   UNL     1     -12.645  -0.057 -32.591  1.00  0.00     0.169 HD
ENDBRANCH  19  22
ENDBRANCH   6  16
BRANCH  14  27
HETATM   27  C   UNL     1      -6.792   4.177 -32.806  1.00  0.00     0.256 C 
HETATM   28  N   UNL     1      -7.860   4.814 -32.213  1.00  0.00    -0.323 N 
HETATM   29  H   UNL     1      -8.377   4.293 -31.517  1.00  0.00     0.169 HD
HETATM   30  O   UNL     1      -6.134   4.578 -33.760  1.00  0.00    -0.267 OA
BRANCH  28  31
HETATM   31  C   UNL     1      -8.261   6.154 -32.407  1.00  0.00     0.035 A 
HETATM   32  C   UNL     1      -7.553   7.259 -31.928  1.00  0.00     0.029 A 
HETATM   33  C   UNL     1      -8.046   8.555 -32.112  1.00  0.00     0.002 A 
HETATM   34  C   UNL     1      -9.256   8.758 -32.771  1.00  0.00     0.000 A 
HETATM   35  C   UNL     1      -9.968   7.664 -33.256  1.00  0.00     0.002 A 
HETATM   36  C   UNL     1      -9.471   6.370 -33.079  1.00  0.00     0.029 A 
ENDBRANCH  28  31
ENDBRANCH  14  27
TORSDOF 4
ENDMDL
