MODEL 1
REMARK VINA RESULT:      -8.0      0.000      0.000
REMARK  5 active torsions:
REMARK  status: ('A' for Active; 'I' for Inactive)
REMARK    1  A    between atoms: C_2  and  C_3 
REMARK    2  A    between atoms: C_2  and  C_21 
REMARK       I    between atoms: C_3  and  N_4 
REMARK    3  A    between atoms: N_4  and  C_5 
REMARK    4  A    between atoms: C_8  and  O_9 
REMARK    5  A    between atoms: O_9  and  C_10 
ROOT
HETATM    1  C   UNL     1      -8.633   1.021 -33.610  1.00  0.00     0.052 A 
HETATM    2  C   UNL     1      -8.012   0.772 -32.388  1.00  0.00     0.149 A 
HETATM    3  N   UNL     1      -6.713   0.399 -32.255  1.00  0.00    -0.235 NA
HETATM    4  C   UNL     1      -5.995   0.272 -33.391  1.00  0.00     0.169 A 
HETATM    5  C   UNL     1      -6.504   0.539 -34.651  1.00  0.00     0.060 A 
HETATM    6  C   UNL     1      -7.845   0.908 -34.758  1.00  0.00     0.035 A 
ENDROOT
BRANCH   1   7
HETATM    7  N   UNL     1      -9.996   1.347 -33.785  1.00  0.00    -0.325 N 
HETATM    8  C   UNL     1     -11.086   0.560 -33.456  1.00  0.00     0.231 C 
HETATM    9  O   UNL     1     -11.009  -0.517 -32.874  1.00  0.00    -0.272 OA
HETATM   10  H   UNL     1     -10.177   2.247 -34.211  1.00  0.00     0.169 HD
BRANCH   8  11
HETATM   11  C   UNL     1     -12.452   1.131 -33.906  1.00  0.00     0.046 C 
HETATM   12  C   UNL     1     -12.374   1.573 -35.379  1.00  0.00     0.026 C 
HETATM   13  C   UNL     1     -13.524   0.039 -33.734  1.00  0.00     0.026 C 
BRANCH  11  14
HETATM   14  C   UNL     1     -12.759   2.343 -32.992  1.00  0.00     0.133 C 
HETATM   15 CL   UNL     1     -14.409   2.339 -32.304  1.00  0.00    -0.129 Cl
ENDBRANCH  11  14
ENDBRANCH   8  11
ENDBRANCH   1   7
BRANCH   4  16
HETATM   16  O   UNL     1      -4.667  -0.118 -33.327  1.00  0.00    -0.289 OA
BRANCH  16  17
HETATM   17  C   UNL     1      -4.401  -1.468 -33.318  1.00  0.00     0.116 A 
HETATM   18  C   UNL     1      -3.645  -1.965 -32.256  1.00  0.00     0.153 A 
HETATM   19  F   UNL     1      -3.249  -1.147 -31.268  1.00  0.00    -0.203 F 
HETATM   20  C   UNL     1      -3.279  -3.306 -32.202  1.00  0.00     0.087 A 
HETATM   21  C   UNL     1      -3.666  -4.148 -33.234  1.00  0.00     0.119 A 
HETATM   22  F   UNL     1      -3.317  -5.441 -33.197  1.00  0.00    -0.206 F 
HETATM   23  C   UNL     1      -4.403  -3.672 -34.315  1.00  0.00     0.045 A 
HETATM   24  C   UNL     1      -4.764  -2.324 -34.366  1.00  0.00     0.043 A 
ENDBRANCH  16  17
ENDBRANCH   4  16
TORSDOF 5
ENDMDL
MODEL 2
REMARK VINA RESULT:      -7.7      1.546      1.893
REMARK  5 active torsions:
REMARK  status: ('A' for Active; 'I' for Inactive)
REMARK    1  A    between atoms: C_2  and  C_3 
REMARK    2  A    between atoms: C_2  and  C_21 
REMARK       I    between atoms: C_3  and  N_4 
REMARK    3  A    between atoms: N_4  and  C_5 
REMARK    4  A    between atoms: C_8  and  O_9 
REMARK    5  A    between atoms: O_9  and  C_10 
ROOT
HETATM    1  C   UNL     1      -9.711   1.256 -33.439  1.00  0.00     0.052 A 
HETATM    2  C   UNL     1      -9.141   0.727 -32.282  1.00  0.00     0.149 A 
HETATM    3  N   UNL     1      -7.896   0.189 -32.223  1.00  0.00    -0.235 NA
HETATM    4  C   UNL     1      -7.180   0.180 -33.367  1.00  0.00     0.169 A 
HETATM    5  C   UNL     1      -7.635   0.720 -34.558  1.00  0.00     0.060 A 
HETATM    6  C   UNL     1      -8.923   1.255 -34.593  1.00  0.00     0.035 A 
ENDROOT
BRANCH   1   7
HETATM    7  N   UNL     1     -11.024   1.763 -33.547  1.00  0.00    -0.325 N 
HETATM    8  C   UNL     1     -12.198   1.030 -33.572  1.00  0.00     0.231 C 
HETATM    9  O   UNL     1     -12.255  -0.186 -33.412  1.00  0.00    -0.272 OA
HETATM   10  H   UNL     1     -11.097   2.769 -33.630  1.00  0.00     0.169 HD
BRANCH   8  11
HETATM   11  C   UNL     1     -13.472   1.861 -33.849  1.00  0.00     0.046 C 
HETATM   12  C   UNL     1     -14.627   0.928 -34.256  1.00  0.00     0.026 C 
HETATM   13  C   UNL     1     -13.842   2.640 -32.573  1.00  0.00     0.026 C 
BRANCH  11  14
HETATM   14  C   UNL     1     -13.132   2.839 -35.002  1.00  0.00     0.133 C 
HETATM   15 CL   UNL     1     -13.040   4.552 -34.504  1.00  0.00    -0.129 Cl
ENDBRANCH  11  14
ENDBRANCH   8  11
ENDBRANCH   1   7
BRANCH   4  16
HETATM   16  O   UNL     1      -5.906  -0.366 -33.379  1.00  0.00    -0.289 OA
BRANCH  16  17
HETATM   17  C   UNL     1      -5.780  -1.673 -33.791  1.00  0.00     0.116 A 
HETATM   18  C   UNL     1      -4.511  -2.251 -33.711  1.00  0.00     0.153 A 
HETATM   19  F   UNL     1      -3.484  -1.554 -33.201  1.00  0.00    -0.203 F 
HETATM   20  C   UNL     1      -4.284  -3.546 -34.163  1.00  0.00     0.087 A 
HETATM   21  C   UNL     1      -5.339  -4.259 -34.713  1.00  0.00     0.119 A 
HETATM   22  F   UNL     1      -5.132  -5.506 -35.157  1.00  0.00    -0.206 F 
HETATM   23  C   UNL     1      -6.608  -3.698 -34.823  1.00  0.00     0.045 A 
HETATM   24  C   UNL     1      -6.830  -2.396 -34.371  1.00  0.00     0.043 A 
ENDBRANCH  16  17
ENDBRANCH   4  16
TORSDOF 5
ENDMDL
MODEL 3
REMARK VINA RESULT:      -7.7      5.877      7.857
REMARK  5 active torsions:
REMARK  status: ('A' for Active; 'I' for Inactive)
REMARK    1  A    between atoms: C_2  and  C_3 
REMARK    2  A    between atoms: C_2  and  C_21 
REMARK       I    between atoms: C_3  and  N_4 
REMARK    3  A    between atoms: N_4  and  C_5 
REMARK    4  A    between atoms: C_8  and  O_9 
REMARK    5  A    between atoms: O_9  and  C_10 
ROOT
HETATM    1  C   UNL     1      -3.511   3.760 -32.349  1.00  0.00     0.052 A 
HETATM    2  C   UNL     1      -4.709   3.537 -33.025  1.00  0.00     0.149 A 
HETATM    3  N   UNL     1      -5.469   2.421 -32.882  1.00  0.00    -0.235 NA
HETATM    4  C   UNL     1      -5.019   1.482 -32.023  1.00  0.00     0.169 A 
HETATM    5  C   UNL     1      -3.866   1.625 -31.270  1.00  0.00     0.060 A 
HETATM    6  C   UNL     1      -3.098   2.777 -31.446  1.00  0.00     0.035 A 
ENDROOT
BRANCH   1   7
HETATM    7  N   UNL     1      -2.669   4.879 -32.524  1.00  0.00    -0.325 N 
HETATM    8  C   UNL     1      -2.615   6.011 -31.730  1.00  0.00     0.231 C 
HETATM    9  O   UNL     1      -3.252   6.155 -30.690  1.00  0.00    -0.272 OA
HETATM   10  H   UNL     1      -2.057   4.841 -33.329  1.00  0.00     0.169 HD
BRANCH   8  11
HETATM   11  C   UNL     1      -1.694   7.132 -32.265  1.00  0.00     0.046 C 
HETATM   12  C   UNL     1      -1.832   7.237 -33.794  1.00  0.00     0.026 C 
HETATM   13  C   UNL     1      -2.096   8.462 -31.601  1.00  0.00     0.026 C 
BRANCH  11  14
HETATM   14  C   UNL     1      -0.244   6.749 -31.876  1.00  0.00     0.133 C 
HETATM   15 CL   UNL     1       0.186   7.136 -30.185  1.00  0.00    -0.129 Cl
ENDBRANCH  11  14
ENDBRANCH   8  11
ENDBRANCH   1   7
BRANCH   4  16
HETATM   16  O   UNL     1      -5.739   0.313 -31.839  1.00  0.00    -0.289 OA
BRANCH  16  17
HETATM   17  C   UNL     1      -5.660  -0.643 -32.825  1.00  0.00     0.116 A 
HETATM   18  C   UNL     1      -6.845  -0.998 -33.473  1.00  0.00     0.153 A 
HETATM   19  F   UNL     1      -7.994  -0.378 -33.162  1.00  0.00    -0.203 F 
HETATM   20  C   UNL     1      -6.863  -1.999 -34.437  1.00  0.00     0.087 A 
HETATM   21  C   UNL     1      -5.681  -2.658 -34.742  1.00  0.00     0.119 A 
HETATM   22  F   UNL     1      -5.685  -3.627 -35.666  1.00  0.00    -0.206 F 
HETATM   23  C   UNL     1      -4.490  -2.337 -34.096  1.00  0.00     0.045 A 
HETATM   24  C   UNL     1      -4.479  -1.334 -33.125  1.00  0.00     0.043 A 
ENDBRANCH  16  17
ENDBRANCH   4  16
TORSDOF 5
ENDMDL
MODEL 4
REMARK VINA RESULT:      -7.3      6.144      8.315
REMARK  5 active torsions:
REMARK  status: ('A' for Active; 'I' for Inactive)
REMARK    1  A    between atoms: C_2  and  C_3 
REMARK    2  A    between atoms: C_2  and  C_21 
REMARK       I    between atoms: C_3  and  N_4 
REMARK    3  A    between atoms: N_4  and  C_5 
REMARK    4  A    between atoms: C_8  and  O_9 
REMARK    5  A    between atoms: O_9  and  C_10 
ROOT
HETATM    1  C   UNL     1      -4.090   4.620 -31.650  1.00  0.00     0.052 A 
HETATM    2  C   UNL     1      -4.830   3.942 -30.683  1.00  0.00     0.149 A 
HETATM    3  N   UNL     1      -5.802   3.037 -30.963  1.00  0.00    -0.235 NA
HETATM    4  C   UNL     1      -6.049   2.789 -32.266  1.00  0.00     0.169 A 
HETATM    5  C   UNL     1      -5.342   3.374 -33.303  1.00  0.00     0.060 A 
HETATM    6  C   UNL     1      -4.357   4.310 -32.987  1.00  0.00     0.035 A 
ENDROOT
BRANCH   1   7
HETATM    7  N   UNL     1      -3.120   5.612 -31.393  1.00  0.00    -0.325 N 
HETATM    8  C   UNL     1      -1.766   5.414 -31.183  1.00  0.00     0.231 C 
HETATM    9  O   UNL     1      -1.203   4.328 -31.282  1.00  0.00    -0.272 OA
HETATM   10  H   UNL     1      -3.469   6.560 -31.344  1.00  0.00     0.169 HD
BRANCH   8  11
HETATM   11  C   UNL     1      -0.984   6.685 -30.776  1.00  0.00     0.046 C 
HETATM   12  C   UNL     1       0.458   6.606 -31.311  1.00  0.00     0.026 C 
HETATM   13  C   UNL     1      -1.701   7.916 -31.362  1.00  0.00     0.026 C 
BRANCH  11  14
HETATM   14  C   UNL     1      -0.985   6.742 -29.228  1.00  0.00     0.133 C 
HETATM   15 CL   UNL     1       0.374   5.869 -28.464  1.00  0.00    -0.129 Cl
ENDBRANCH  11  14
ENDBRANCH   8  11
ENDBRANCH   1   7
BRANCH   4  16
HETATM   16  O   UNL     1      -7.038   1.885 -32.621  1.00  0.00    -0.289 OA
BRANCH  16  17
HETATM   17  C   UNL     1      -6.641   0.722 -33.241  1.00  0.00     0.116 A 
HETATM   18  C   UNL     1      -7.275   0.385 -34.438  1.00  0.00     0.153 A 
HETATM   19  F   UNL     1      -8.195   1.205 -34.967  1.00  0.00    -0.203 F 
HETATM   20  C   UNL     1      -6.978  -0.803 -35.096  1.00  0.00     0.087 A 
HETATM   21  C   UNL     1      -6.045  -1.665 -34.537  1.00  0.00     0.119 A 
HETATM   22  F   UNL     1      -5.753  -2.814 -35.159  1.00  0.00    -0.206 F 
HETATM   23  C   UNL     1      -5.414  -1.361 -33.334  1.00  0.00     0.045 A 
HETATM   24  C   UNL     1      -5.720  -0.168 -32.675  1.00  0.00     0.043 A 
ENDBRANCH  16  17
ENDBRANCH   4  16
TORSDOF 5
ENDMDL
MODEL 5
REMARK VINA RESULT:      -7.1      5.893      8.075
REMARK  5 active torsions:
REMARK  status: ('A' for Active; 'I' for Inactive)
REMARK    1  A    between atoms: C_2  and  C_3 
REMARK    2  A    between atoms: C_2  and  C_21 
REMARK       I    between atoms: C_3  and  N_4 
REMARK    3  A    between atoms: N_4  and  C_5 
REMARK    4  A    between atoms: C_8  and  O_9 
REMARK    5  A    between atoms: O_9  and  C_10 
ROOT
HETATM    1  C   UNL     1      -4.258   4.546 -31.783  1.00  0.00     0.052 A 
HETATM    2  C   UNL     1      -4.679   4.011 -32.999  1.00  0.00     0.149 A 
HETATM    3  N   UNL     1      -5.583   3.004 -33.116  1.00  0.00    -0.235 NA
HETATM    4  C   UNL     1      -6.096   2.508 -31.971  1.00  0.00     0.169 A 
HETATM    5  C   UNL     1      -5.778   2.998 -30.715  1.00  0.00     0.060 A 
HETATM    6  C   UNL     1      -4.838   4.024 -30.624  1.00  0.00     0.035 A 
ENDROOT
BRANCH   1   7
HETATM    7  N   UNL     1      -3.274   5.546 -31.626  1.00  0.00    -0.325 N 
HETATM    8  C   UNL     1      -1.926   5.354 -31.381  1.00  0.00     0.231 C 
HETATM    9  O   UNL     1      -1.379   4.255 -31.355  1.00  0.00    -0.272 OA
HETATM   10  H   UNL     1      -3.610   6.499 -31.685  1.00  0.00     0.169 HD
BRANCH   8  11
HETATM   11  C   UNL     1      -1.128   6.651 -31.109  1.00  0.00     0.046 C 
HETATM   12  C   UNL     1       0.382   6.369 -31.221  1.00  0.00     0.026 C 
HETATM   13  C   UNL     1      -1.548   7.715 -32.139  1.00  0.00     0.026 C 
BRANCH  11  14
HETATM   14  C   UNL     1      -1.489   7.111 -29.674  1.00  0.00     0.133 C 
HETATM   15 CL   UNL     1      -0.156   6.941 -28.496  1.00  0.00    -0.129 Cl
ENDBRANCH  11  14
ENDBRANCH   8  11
ENDBRANCH   1   7
BRANCH   4  16
HETATM   16  O   UNL     1      -7.014   1.471 -32.018  1.00  0.00    -0.289 OA
BRANCH  16  17
HETATM   17  C   UNL     1      -6.744   0.423 -32.868  1.00  0.00     0.116 A 
HETATM   18  C   UNL     1      -5.771  -0.494 -32.467  1.00  0.00     0.153 A 
HETATM   19  F   UNL     1      -5.174  -0.363 -31.272  1.00  0.00    -0.203 F 
HETATM   20  C   UNL     1      -5.394  -1.547 -33.293  1.00  0.00     0.087 A 
HETATM   21  C   UNL     1      -5.992  -1.669 -34.539  1.00  0.00     0.119 A 
HETATM   22  F   UNL     1      -5.634  -2.676 -35.346  1.00  0.00    -0.206 F 
HETATM   23  C   UNL     1      -6.950  -0.756 -34.970  1.00  0.00     0.045 A 
HETATM   24  C   UNL     1      -7.322   0.301 -34.138  1.00  0.00     0.043 A 
ENDBRANCH  16  17
ENDBRANCH   4  16
TORSDOF 5
ENDMDL
MODEL 6
REMARK VINA RESULT:      -7.1      6.525      8.282
REMARK  5 active torsions:
REMARK  status: ('A' for Active; 'I' for Inactive)
REMARK    1  A    between atoms: C_2  and  C_3 
REMARK    2  A    between atoms: C_2  and  C_21 
REMARK       I    between atoms: C_3  and  N_4 
REMARK    3  A    between atoms: N_4  and  C_5 
REMARK    4  A    between atoms: C_8  and  O_9 
REMARK    5  A    between atoms: O_9  and  C_10 
ROOT
HETATM    1  C   UNL     1      -4.237   3.053 -32.564  1.00  0.00     0.052 A 
HETATM    2  C   UNL     1      -3.282   2.949 -31.554  1.00  0.00     0.149 A 
HETATM    3  N   UNL     1      -2.172   3.727 -31.472  1.00  0.00    -0.235 NA
HETATM    4  C   UNL     1      -2.004   4.654 -32.438  1.00  0.00     0.169 A 
HETATM    5  C   UNL     1      -2.914   4.868 -33.460  1.00  0.00     0.060 A 
HETATM    6  C   UNL     1      -4.040   4.046 -33.526  1.00  0.00     0.035 A 
ENDROOT
BRANCH   1   7
HETATM    7  N   UNL     1      -5.366   2.218 -32.712  1.00  0.00    -0.325 N 
HETATM    8  C   UNL     1      -5.367   0.869 -33.023  1.00  0.00     0.231 C 
HETATM    9  O   UNL     1      -4.353   0.185 -33.129  1.00  0.00    -0.272 OA
HETATM   10  H   UNL     1      -6.262   2.672 -32.590  1.00  0.00     0.169 HD
BRANCH   8  11
HETATM   11  C   UNL     1      -6.769   0.263 -33.263  1.00  0.00     0.046 C 
HETATM   12  C   UNL     1      -7.492   1.043 -34.377  1.00  0.00     0.026 C 
HETATM   13  C   UNL     1      -6.607  -1.214 -33.667  1.00  0.00     0.026 C 
BRANCH  11  14
HETATM   14  C   UNL     1      -7.546   0.379 -31.928  1.00  0.00     0.133 C 
HETATM   15 CL   UNL     1      -6.625  -0.164 -30.497  1.00  0.00    -0.129 Cl
ENDBRANCH  11  14
ENDBRANCH   8  11
ENDBRANCH   1   7
BRANCH   4  16
HETATM   16  O   UNL     1      -0.886   5.473 -32.421  1.00  0.00    -0.289 OA
BRANCH  16  17
HETATM   17  C   UNL     1      -0.755   6.346 -31.367  1.00  0.00     0.116 A 
HETATM   18  C   UNL     1       0.309   6.136 -30.488  1.00  0.00     0.153 A 
HETATM   19  F   UNL     1       1.185   5.145 -30.715  1.00  0.00    -0.203 F 
HETATM   20  C   UNL     1       0.478   6.935 -29.363  1.00  0.00     0.087 A 
HETATM   21  C   UNL     1      -0.440   7.945 -29.113  1.00  0.00     0.119 A 
HETATM   22  F   UNL     1      -0.292   8.718 -28.030  1.00  0.00    -0.206 F 
HETATM   23  C   UNL     1      -1.522   8.161 -29.963  1.00  0.00     0.045 A 
HETATM   24  C   UNL     1      -1.688   7.353 -31.089  1.00  0.00     0.043 A 
ENDBRANCH  16  17
ENDBRANCH   4  16
TORSDOF 5
ENDMDL
MODEL 7
REMARK VINA RESULT:      -7.0      6.836      8.464
REMARK  5 active torsions:
REMARK  status: ('A' for Active; 'I' for Inactive)
REMARK    1  A    between atoms: C_2  and  C_3 
REMARK    2  A    between atoms: C_2  and  C_21 
REMARK       I    between atoms: C_3  and  N_4 
REMARK    3  A    between atoms: N_4  and  C_5 
REMARK    4  A    between atoms: C_8  and  O_9 
REMARK    5  A    between atoms: O_9  and  C_10 
ROOT
HETATM    1  C   UNL     1      -4.109   3.124 -31.965  1.00  0.00     0.052 A 
HETATM    2  C   UNL     1      -4.404   4.149 -31.068  1.00  0.00     0.149 A 
HETATM    3  N   UNL     1      -3.631   5.251 -30.890  1.00  0.00    -0.235 NA
HETATM    4  C   UNL     1      -2.515   5.342 -31.642  1.00  0.00     0.169 A 
HETATM    5  C   UNL     1      -2.155   4.402 -32.593  1.00  0.00     0.060 A 
HETATM    6  C   UNL     1      -2.960   3.273 -32.746  1.00  0.00     0.035 A 
ENDROOT
BRANCH   1   7
HETATM    7  N   UNL     1      -4.857   1.937 -32.127  1.00  0.00    -0.325 N 
HETATM    8  C   UNL     1      -6.006   1.776 -32.882  1.00  0.00     0.231 C 
HETATM    9  O   UNL     1      -6.488   2.648 -33.599  1.00  0.00    -0.272 OA
HETATM   10  H   UNL     1      -4.513   1.134 -31.618  1.00  0.00     0.169 HD
BRANCH   8  11
HETATM   11  C   UNL     1      -6.681   0.392 -32.742  1.00  0.00     0.046 C 
HETATM   12  C   UNL     1      -6.076  -0.366 -31.546  1.00  0.00     0.026 C 
HETATM   13  C   UNL     1      -8.192   0.598 -32.532  1.00  0.00     0.026 C 
BRANCH  11  14
HETATM   14  C   UNL     1      -6.416  -0.377 -34.061  1.00  0.00     0.133 C 
HETATM   15 CL   UNL     1      -7.574  -0.001 -35.370  1.00  0.00    -0.129 Cl
ENDBRANCH  11  14
ENDBRANCH   8  11
ENDBRANCH   1   7
BRANCH   4  16
HETATM   16  O   UNL     1      -1.675   6.435 -31.501  1.00  0.00    -0.289 OA
BRANCH  16  17
HETATM   17  C   UNL     1      -0.904   6.501 -30.363  1.00  0.00     0.116 A 
HETATM   18  C   UNL     1      -0.858   7.723 -29.690  1.00  0.00     0.153 A 
HETATM   19  F   UNL     1      -1.587   8.762 -30.127  1.00  0.00    -0.203 F 
HETATM   20  C   UNL     1      -0.056   7.893 -28.567  1.00  0.00     0.087 A 
HETATM   21  C   UNL     1       0.717   6.828 -28.127  1.00  0.00     0.119 A 
HETATM   22  F   UNL     1       1.498   6.980 -27.050  1.00  0.00    -0.206 F 
HETATM   23  C   UNL     1       0.704   5.606 -28.794  1.00  0.00     0.045 A 
HETATM   24  C   UNL     1      -0.100   5.442 -29.923  1.00  0.00     0.043 A 
ENDBRANCH  16  17
ENDBRANCH   4  16
TORSDOF 5
ENDMDL
MODEL 8
REMARK VINA RESULT:      -6.9      6.598      8.292
REMARK  5 active torsions:
REMARK  status: ('A' for Active; 'I' for Inactive)
REMARK    1  A    between atoms: C_2  and  C_3 
REMARK    2  A    between atoms: C_2  and  C_21 
REMARK       I    between atoms: C_3  and  N_4 
REMARK    3  A    between atoms: N_4  and  C_5 
REMARK    4  A    between atoms: C_8  and  O_9 
REMARK    5  A    between atoms: O_9  and  C_10 
ROOT
HETATM    1  C   UNL     1      -4.199   3.043 -32.046  1.00  0.00     0.052 A 
HETATM    2  C   UNL     1      -4.583   4.053 -31.166  1.00  0.00     0.149 A 
HETATM    3  N   UNL     1      -3.837   5.157 -30.901  1.00  0.00    -0.235 NA
HETATM    4  C   UNL     1      -2.656   5.265 -31.544  1.00  0.00     0.169 A 
HETATM    5  C   UNL     1      -2.203   4.341 -32.471  1.00  0.00     0.060 A 
HETATM    6  C   UNL     1      -2.984   3.211 -32.715  1.00  0.00     0.035 A 
ENDROOT
BRANCH   1   7
HETATM    7  N   UNL     1      -4.921   1.855 -32.294  1.00  0.00    -0.325 N 
HETATM    8  C   UNL     1      -5.920   1.671 -33.234  1.00  0.00     0.231 C 
HETATM    9  O   UNL     1      -6.258   2.517 -34.056  1.00  0.00    -0.272 OA
HETATM   10  H   UNL     1      -4.681   1.070 -31.703  1.00  0.00     0.169 HD
BRANCH   8  11
HETATM   11  C   UNL     1      -6.626   0.297 -33.164  1.00  0.00     0.046 C 
HETATM   12  C   UNL     1      -5.815  -0.663 -32.274  1.00  0.00     0.026 C 
HETATM   13  C   UNL     1      -8.038   0.495 -32.584  1.00  0.00     0.026 C 
BRANCH  11  14
HETATM   14  C   UNL     1      -6.705  -0.245 -34.613  1.00  0.00     0.133 C 
HETATM   15 CL   UNL     1      -6.605  -2.025 -34.734  1.00  0.00    -0.129 Cl
ENDBRANCH  11  14
ENDBRANCH   8  11
ENDBRANCH   1   7
BRANCH   4  16
HETATM   16  O   UNL     1      -1.841   6.361 -31.310  1.00  0.00    -0.289 OA
BRANCH  16  17
HETATM   17  C   UNL     1      -1.280   6.479 -30.059  1.00  0.00     0.116 A 
HETATM   18  C   UNL     1      -0.068   5.825 -29.835  1.00  0.00     0.153 A 
HETATM   19  F   UNL     1       0.532   5.156 -30.832  1.00  0.00    -0.203 F 
HETATM   20  C   UNL     1       0.535   5.842 -28.582  1.00  0.00     0.087 A 
HETATM   21  C   UNL     1      -0.096   6.511 -27.543  1.00  0.00     0.119 A 
HETATM   22  F   UNL     1       0.472   6.531 -26.330  1.00  0.00    -0.206 F 
HETATM   23  C   UNL     1      -1.316   7.154 -27.736  1.00  0.00     0.045 A 
HETATM   24  C   UNL     1      -1.918   7.130 -28.995  1.00  0.00     0.043 A 
ENDBRANCH  16  17
ENDBRANCH   4  16
TORSDOF 5
ENDMDL
MODEL 9
REMARK VINA RESULT:      -6.9      1.733      2.171
REMARK  5 active torsions:
REMARK  status: ('A' for Active; 'I' for Inactive)
REMARK    1  A    between atoms: C_2  and  C_3 
REMARK    2  A    between atoms: C_2  and  C_21 
REMARK       I    between atoms: C_3  and  N_4 
REMARK    3  A    between atoms: N_4  and  C_5 
REMARK    4  A    between atoms: C_8  and  O_9 
REMARK    5  A    between atoms: O_9  and  C_10 
ROOT
HETATM    1  C   UNL     1      -8.948   0.717 -33.683  1.00  0.00     0.052 A 
HETATM    2  C   UNL     1      -8.309   0.074 -32.624  1.00  0.00     0.149 A 
HETATM    3  N   UNL     1      -6.981  -0.209 -32.594  1.00  0.00    -0.235 NA
HETATM    4  C   UNL     1      -6.253   0.166 -33.666  1.00  0.00     0.169 A 
HETATM    5  C   UNL     1      -6.781   0.849 -34.749  1.00  0.00     0.060 A 
HETATM    6  C   UNL     1      -8.150   1.116 -34.758  1.00  0.00     0.035 A 
ENDROOT
BRANCH   1   7
HETATM    7  N   UNL     1     -10.334   0.968 -33.771  1.00  0.00    -0.325 N 
HETATM    8  C   UNL     1     -10.976   2.174 -33.550  1.00  0.00     0.231 C 
HETATM    9  O   UNL     1     -10.396   3.233 -33.326  1.00  0.00    -0.272 OA
HETATM   10  H   UNL     1     -10.907   0.167 -34.006  1.00  0.00     0.169 HD
BRANCH   8  11
HETATM   11  C   UNL     1     -12.520   2.098 -33.577  1.00  0.00     0.046 C 
HETATM   12  C   UNL     1     -12.970   0.627 -33.628  1.00  0.00     0.026 C 
HETATM   13  C   UNL     1     -13.071   2.779 -32.311  1.00  0.00     0.026 C 
BRANCH  11  14
HETATM   14  C   UNL     1     -12.988   2.853 -34.846  1.00  0.00     0.133 C 
HETATM   15 CL   UNL     1     -12.167   2.336 -36.347  1.00  0.00    -0.129 Cl
ENDBRANCH  11  14
ENDBRANCH   8  11
ENDBRANCH   1   7
BRANCH   4  16
HETATM   16  O   UNL     1      -4.894  -0.104 -33.705  1.00  0.00    -0.289 OA
BRANCH  16  17
HETATM   17  C   UNL     1      -4.503  -1.414 -33.553  1.00  0.00     0.116 A 
HETATM   18  C   UNL     1      -4.967  -2.336 -34.492  1.00  0.00     0.153 A 
HETATM   19  F   UNL     1      -5.721  -1.925 -35.524  1.00  0.00    -0.203 F 
HETATM   20  C   UNL     1      -4.670  -3.689 -34.376  1.00  0.00     0.087 A 
HETATM   21  C   UNL     1      -3.911  -4.119 -33.297  1.00  0.00     0.119 A 
HETATM   22  F   UNL     1      -3.621  -5.421 -33.171  1.00  0.00    -0.206 F 
HETATM   23  C   UNL     1      -3.454  -3.223 -32.336  1.00  0.00     0.045 A 
HETATM   24  C   UNL     1      -3.759  -1.865 -32.455  1.00  0.00     0.043 A 
ENDBRANCH  16  17
ENDBRANCH   4  16
TORSDOF 5
ENDMDL
MODEL 10
REMARK VINA RESULT:      -6.9      5.981      8.398
REMARK  5 active torsions:
REMARK  status: ('A' for Active; 'I' for Inactive)
REMARK    1  A    between atoms: C_2  and  C_3 
REMARK    2  A    between atoms: C_2  and  C_21 
REMARK       I    between atoms: C_3  and  N_4 
REMARK    3  A    between atoms: N_4  and  C_5 
REMARK    4  A    between atoms: C_8  and  O_9 
REMARK    5  A    between atoms: O_9  and  C_10 
ROOT
HETATM    1  C   UNL     1      -3.695   3.602 -31.387  1.00  0.00     0.052 A 
HETATM    2  C   UNL     1      -4.887   3.416 -30.691  1.00  0.00     0.149 A 
HETATM    3  N   UNL     1      -5.674   2.315 -30.808  1.00  0.00    -0.235 NA
HETATM    4  C   UNL     1      -5.254   1.352 -31.655  1.00  0.00     0.169 A 
HETATM    5  C   UNL     1      -4.064   1.419 -32.360  1.00  0.00     0.060 A 
HETATM    6  C   UNL     1      -3.282   2.567 -32.230  1.00  0.00     0.035 A 
ENDROOT
BRANCH   1   7
HETATM    7  N   UNL     1      -2.889   4.761 -31.335  1.00  0.00    -0.325 N 
HETATM    8  C   UNL     1      -3.025   5.902 -32.107  1.00  0.00     0.231 C 
HETATM    9  O   UNL     1      -3.942   6.094 -32.899  1.00  0.00    -0.272 OA
HETATM   10  H   UNL     1      -2.127   4.731 -30.670  1.00  0.00     0.169 HD
BRANCH   8  11
HETATM   11  C   UNL     1      -1.896   6.943 -31.923  1.00  0.00     0.046 C 
HETATM   12  C   UNL     1      -1.085   7.071 -33.225  1.00  0.00     0.026 C 
HETATM   13  C   UNL     1      -2.529   8.298 -31.555  1.00  0.00     0.026 C 
BRANCH  11  14
HETATM   14  C   UNL     1      -0.995   6.434 -30.771  1.00  0.00     0.133 C 
HETATM   15 CL   UNL     1       0.740   6.813 -30.978  1.00  0.00    -0.129 Cl
ENDBRANCH  11  14
ENDBRANCH   8  11
ENDBRANCH   1   7
BRANCH   4  16
HETATM   16  O   UNL     1      -6.016   0.208 -31.831  1.00  0.00    -0.289 OA
BRANCH  16  17
HETATM   17  C   UNL     1      -7.228   0.345 -32.468  1.00  0.00     0.116 A 
HETATM   18  C   UNL     1      -7.227   0.308 -33.864  1.00  0.00     0.153 A 
HETATM   19  F   UNL     1      -6.082   0.095 -34.531  1.00  0.00    -0.203 F 
HETATM   20  C   UNL     1      -8.399   0.500 -34.587  1.00  0.00     0.087 A 
HETATM   21  C   UNL     1      -9.579   0.745 -33.899  1.00  0.00     0.119 A 
HETATM   22  F   UNL     1     -10.714   0.936 -34.584  1.00  0.00    -0.206 F 
HETATM   23  C   UNL     1      -9.602   0.807 -32.509  1.00  0.00     0.045 A 
HETATM   24  C   UNL     1      -8.422   0.617 -31.788  1.00  0.00     0.043 A 
ENDBRANCH  16  17
ENDBRANCH   4  16
TORSDOF 5
ENDMDL
