MODEL 1
REMARK VINA RESULT:      -7.9      0.000      0.000
REMARK  3 active torsions:
REMARK  status: ('A' for Active; 'I' for Inactive)
REMARK    1  A    between atoms: C_4  and  C_5 
REMARK    2  A    between atoms: C_11  and  C_12 
REMARK    3  A    between atoms: C_21  and  N_22 
ROOT
HETATM    1  C   UNL     1      -6.642   2.455 -33.846  1.00  0.00     0.098 C 
HETATM    2  N   UNL     1      -5.610   3.275 -33.555  1.00  0.00    -0.172 NA
HETATM    3  N   UNL     1      -6.135   4.510 -33.570  1.00  0.00    -0.256 N 
HETATM    4  H   UNL     1      -5.521   5.305 -33.438  1.00  0.00     0.191 HD
HETATM    5  C   UNL     1      -7.457   4.510 -33.857  1.00  0.00     0.175 C 
HETATM    6  C   UNL     1      -7.859   3.198 -33.927  1.00  0.00     0.036 C 
HETATM    7  C   UNL     1      -9.299   2.896 -34.201  1.00  0.00     0.077 C 
HETATM    8  C   UNL     1      -9.942   4.149 -34.854  1.00  0.00     0.076 C 
HETATM    9  C   UNL     1     -11.152   3.952 -35.584  1.00  0.00     0.100 C 
HETATM   10  N   UNL     1     -12.149   3.782 -36.153  1.00  0.00    -0.192 NA
HETATM   11  C   UNL     1      -9.391   5.391 -34.764  1.00  0.00     0.140 C 
HETATM   12  O   UNL     1      -8.167   5.602 -34.106  1.00  0.00    -0.279 OA
ENDROOT
BRANCH   7  13
HETATM   13  C   UNL     1     -10.163   2.464 -32.965  1.00  0.00     0.003 C 
HETATM   14  C   UNL     1      -9.453   2.543 -31.594  1.00  0.00     0.032 C 
HETATM   15  C   UNL     1      -8.795   1.275 -31.157  1.00  0.00    -0.030 C 
HETATM   16  C   UNL     1      -9.109   0.077 -31.661  1.00  0.00    -0.031 C 
HETATM   17  C   UNL     1     -10.158  -0.132 -32.705  1.00  0.00     0.027 C 
HETATM   18  C   UNL     1     -10.915   1.128 -33.126  1.00  0.00     0.009 C 
ENDBRANCH   7  13
BRANCH  11  19
HETATM   19  N   UNL     1      -9.925   6.548 -35.283  1.00  0.00    -0.282 NA
HETATM   20  H   UNL     1      -9.355   7.024 -35.979  1.00  0.00     0.126 HD
HETATM   21  H   UNL     1     -10.893   6.428 -35.570  1.00  0.00     0.126 HD
ENDBRANCH  11  19
BRANCH   1  22
HETATM   22  C   UNL     1      -6.390   1.027 -34.054  1.00  0.00    -0.005 A 
HETATM   23  C   UNL     1      -5.379   0.383 -33.323  1.00  0.00     0.014 A 
HETATM   24  C   UNL     1      -5.131  -0.980 -33.492  1.00  0.00     0.001 A 
HETATM   25  C   UNL     1      -5.882  -1.715 -34.407  1.00  0.00     0.000 A 
HETATM   26  C   UNL     1      -6.871  -1.084 -35.159  1.00  0.00     0.001 A 
HETATM   27  C   UNL     1      -7.120   0.282 -34.989  1.00  0.00     0.014 A 
ENDBRANCH   1  22
TORSDOF 3
ENDMDL
MODEL 2
REMARK VINA RESULT:      -7.8      1.501      2.049
REMARK  3 active torsions:
REMARK  status: ('A' for Active; 'I' for Inactive)
REMARK    1  A    between atoms: C_4  and  C_5 
REMARK    2  A    between atoms: C_11  and  C_12 
REMARK    3  A    between atoms: C_21  and  N_22 
ROOT
HETATM    1  C   UNL     1      -5.728   1.710 -32.728  1.00  0.00     0.098 C 
HETATM    2  N   UNL     1      -4.617   1.919 -31.992  1.00  0.00    -0.172 NA
HETATM    3  N   UNL     1      -4.707   3.195 -31.585  1.00  0.00    -0.256 N 
HETATM    4  H   UNL     1      -3.940   3.598 -31.060  1.00  0.00     0.191 HD
HETATM    5  C   UNL     1      -5.829   3.806 -32.030  1.00  0.00     0.175 C 
HETATM    6  C   UNL     1      -6.582   2.854 -32.676  1.00  0.00     0.036 C 
HETATM    7  C   UNL     1      -7.909   3.246 -33.248  1.00  0.00     0.077 C 
HETATM    8  C   UNL     1      -7.923   4.788 -33.428  1.00  0.00     0.076 C 
HETATM    9  C   UNL     1      -8.881   5.326 -34.338  1.00  0.00     0.100 C 
HETATM   10  N   UNL     1      -9.682   5.752 -35.061  1.00  0.00    -0.192 NA
HETATM   11  C   UNL     1      -7.062   5.613 -32.772  1.00  0.00     0.140 C 
HETATM   12  O   UNL     1      -6.067   5.106 -31.919  1.00  0.00    -0.279 OA
ENDROOT
BRANCH   7  13
HETATM   13  C   UNL     1      -9.172   2.816 -32.422  1.00  0.00     0.003 C 
HETATM   14  C   UNL     1      -8.911   1.811 -31.277  1.00  0.00     0.032 C 
HETATM   15  C   UNL     1      -9.081   0.375 -31.654  1.00  0.00    -0.030 C 
HETATM   16  C   UNL     1      -9.776  -0.022 -32.725  1.00  0.00    -0.031 C 
HETATM   17  C   UNL     1     -10.471   0.919 -33.656  1.00  0.00     0.027 C 
HETATM   18  C   UNL     1     -10.393   2.395 -33.265  1.00  0.00     0.009 C 
ENDBRANCH   7  13
BRANCH  11  19
HETATM   19  N   UNL     1      -7.045   6.987 -32.854  1.00  0.00    -0.282 NA
HETATM   20  H   UNL     1      -7.951   7.433 -32.983  1.00  0.00     0.126 HD
HETATM   21  H   UNL     1      -6.493   7.409 -32.111  1.00  0.00     0.126 HD
ENDBRANCH  11  19
BRANCH   1  22
HETATM   22  C   UNL     1      -5.885   0.446 -33.452  1.00  0.00    -0.005 A 
HETATM   23  C   UNL     1      -5.130  -0.674 -33.071  1.00  0.00     0.014 A 
HETATM   24  C   UNL     1      -5.272  -1.894 -33.736  1.00  0.00     0.001 A 
HETATM   25  C   UNL     1      -6.162  -2.003 -34.802  1.00  0.00     0.000 A 
HETATM   26  C   UNL     1      -6.898  -0.893 -35.209  1.00  0.00     0.001 A 
HETATM   27  C   UNL     1      -6.756   0.328 -34.543  1.00  0.00     0.014 A 
ENDBRANCH   1  22
TORSDOF 3
ENDMDL
MODEL 3
REMARK VINA RESULT:      -7.8      2.913      4.790
REMARK  3 active torsions:
REMARK  status: ('A' for Active; 'I' for Inactive)
REMARK    1  A    between atoms: C_4  and  C_5 
REMARK    2  A    between atoms: C_11  and  C_12 
REMARK    3  A    between atoms: C_21  and  N_22 
ROOT
HETATM    1  C   UNL     1      -4.062  -0.830 -32.476  1.00  0.00     0.098 C 
HETATM    2  N   UNL     1      -3.075  -1.237 -31.651  1.00  0.00    -0.172 NA
HETATM    3  N   UNL     1      -2.651  -0.118 -31.042  1.00  0.00    -0.256 N 
HETATM    4  H   UNL     1      -1.858  -0.173 -30.414  1.00  0.00     0.191 HD
HETATM    5  C   UNL     1      -3.327   0.982 -31.445  1.00  0.00     0.175 C 
HETATM    6  C   UNL     1      -4.330   0.560 -32.284  1.00  0.00     0.036 C 
HETATM    7  C   UNL     1      -5.268   1.575 -32.859  1.00  0.00     0.077 C 
HETATM    8  C   UNL     1      -4.585   2.967 -32.779  1.00  0.00     0.076 C 
HETATM    9  C   UNL     1      -5.087   3.987 -33.642  1.00  0.00     0.100 C 
HETATM   10  N   UNL     1      -5.522   4.813 -34.329  1.00  0.00    -0.192 NA
HETATM   11  C   UNL     1      -3.541   3.228 -31.945  1.00  0.00     0.140 C 
HETATM   12  O   UNL     1      -2.985   2.225 -31.132  1.00  0.00    -0.279 OA
ENDROOT
BRANCH   7  13
HETATM   13  C   UNL     1      -6.686   1.663 -32.193  1.00  0.00     0.003 C 
HETATM   14  C   UNL     1      -7.313   0.313 -31.777  1.00  0.00     0.032 C 
HETATM   15  C   UNL     1      -8.201  -0.308 -32.807  1.00  0.00    -0.030 C 
HETATM   16  C   UNL     1      -8.747   0.383 -33.813  1.00  0.00    -0.031 C 
HETATM   17  C   UNL     1      -8.544   1.850 -34.015  1.00  0.00     0.027 C 
HETATM   18  C   UNL     1      -7.707   2.544 -32.941  1.00  0.00     0.009 C 
ENDBRANCH   7  13
BRANCH  11  19
HETATM   19  N   UNL     1      -2.916   4.444 -31.795  1.00  0.00    -0.282 NA
HETATM   20  H   UNL     1      -3.372   5.234 -32.246  1.00  0.00     0.126 HD
HETATM   21  H   UNL     1      -2.661   4.628 -30.827  1.00  0.00     0.126 HD
ENDBRANCH  11  19
BRANCH   1  22
HETATM   22  C   UNL     1      -4.661  -1.787 -33.410  1.00  0.00    -0.005 A 
HETATM   23  C   UNL     1      -4.183  -3.106 -33.457  1.00  0.00     0.014 A 
HETATM   24  C   UNL     1      -4.747  -4.041 -34.328  1.00  0.00     0.001 A 
HETATM   25  C   UNL     1      -5.788  -3.663 -35.173  1.00  0.00     0.000 A 
HETATM   26  C   UNL     1      -6.254  -2.351 -35.156  1.00  0.00     0.001 A 
HETATM   27  C   UNL     1      -5.690  -1.415 -34.284  1.00  0.00     0.014 A 
ENDBRANCH   1  22
TORSDOF 3
ENDMDL
MODEL 4
REMARK VINA RESULT:      -7.8      2.634      3.861
REMARK  3 active torsions:
REMARK  status: ('A' for Active; 'I' for Inactive)
REMARK    1  A    between atoms: C_4  and  C_5 
REMARK    2  A    between atoms: C_11  and  C_12 
REMARK    3  A    between atoms: C_21  and  N_22 
ROOT
HETATM    1  C   UNL     1      -6.268  -0.118 -32.136  1.00  0.00     0.098 C 
HETATM    2  N   UNL     1      -6.424  -0.429 -30.832  1.00  0.00    -0.172 NA
HETATM    3  N   UNL     1      -6.509   0.753 -30.203  1.00  0.00    -0.256 N 
HETATM    4  H   UNL     1      -6.567   0.766 -29.191  1.00  0.00     0.191 HD
HETATM    5  C   UNL     1      -6.414   1.802 -31.051  1.00  0.00     0.175 C 
HETATM    6  C   UNL     1      -6.376   1.293 -32.327  1.00  0.00     0.036 C 
HETATM    7  C   UNL     1      -6.305   2.241 -33.483  1.00  0.00     0.077 C 
HETATM    8  C   UNL     1      -5.776   3.604 -32.961  1.00  0.00     0.076 C 
HETATM    9  C   UNL     1      -5.223   4.498 -33.926  1.00  0.00     0.100 C 
HETATM   10  N   UNL     1      -4.800   5.226 -34.724  1.00  0.00    -0.192 NA
HETATM   11  C   UNL     1      -5.810   3.952 -31.645  1.00  0.00     0.140 C 
HETATM   12  O   UNL     1      -6.290   3.066 -30.666  1.00  0.00    -0.279 OA
ENDROOT
BRANCH   7  13
HETATM   13  C   UNL     1      -7.644   2.480 -34.266  1.00  0.00     0.003 C 
HETATM   14  C   UNL     1      -8.542   3.614 -33.721  1.00  0.00     0.032 C 
HETATM   15  C   UNL     1      -9.582   3.173 -32.741  1.00  0.00    -0.030 C 
HETATM   16  C   UNL     1      -9.993   1.905 -32.634  1.00  0.00    -0.031 C 
HETATM   17  C   UNL     1      -9.475   0.792 -33.486  1.00  0.00     0.027 C 
HETATM   18  C   UNL     1      -8.468   1.209 -34.558  1.00  0.00     0.009 C 
ENDBRANCH   7  13
BRANCH  11  19
HETATM   19  N   UNL     1      -5.396   5.154 -31.120  1.00  0.00    -0.282 NA
HETATM   20  H   UNL     1      -4.479   5.151 -30.678  1.00  0.00     0.126 HD
HETATM   21  H   UNL     1      -5.522   5.923 -31.773  1.00  0.00     0.126 HD
ENDBRANCH  11  19
BRANCH   1  22
HETATM   22  C   UNL     1      -5.999  -1.185 -33.104  1.00  0.00    -0.005 A 
HETATM   23  C   UNL     1      -4.676  -1.573 -33.363  1.00  0.00     0.014 A 
HETATM   24  C   UNL     1      -4.395  -2.597 -34.270  1.00  0.00     0.001 A 
HETATM   25  C   UNL     1      -5.436  -3.236 -34.941  1.00  0.00     0.000 A 
HETATM   26  C   UNL     1      -6.753  -2.843 -34.713  1.00  0.00     0.001 A 
HETATM   27  C   UNL     1      -7.034  -1.818 -33.805  1.00  0.00     0.014 A 
ENDBRANCH   1  22
TORSDOF 3
ENDMDL
MODEL 5
REMARK VINA RESULT:      -7.6      3.142      6.319
REMARK  3 active torsions:
REMARK  status: ('A' for Active; 'I' for Inactive)
REMARK    1  A    between atoms: C_4  and  C_5 
REMARK    2  A    between atoms: C_11  and  C_12 
REMARK    3  A    between atoms: C_21  and  N_22 
ROOT
HETATM    1  C   UNL     1      -6.437   1.844 -34.264  1.00  0.00     0.098 C 
HETATM    2  N   UNL     1      -7.230   1.764 -35.353  1.00  0.00    -0.172 NA
HETATM    3  N   UNL     1      -7.324   0.452 -35.616  1.00  0.00    -0.256 N 
HETATM    4  H   UNL     1      -7.829   0.152 -36.442  1.00  0.00     0.191 HD
HETATM    5  C   UNL     1      -6.625  -0.306 -34.741  1.00  0.00     0.175 C 
HETATM    6  C   UNL     1      -6.130   0.538 -33.776  1.00  0.00     0.036 C 
HETATM    7  C   UNL     1      -5.334  -0.040 -32.647  1.00  0.00     0.077 C 
HETATM    8  C   UNL     1      -4.808  -1.433 -33.088  1.00  0.00     0.076 C 
HETATM    9  C   UNL     1      -3.695  -1.963 -32.369  1.00  0.00     0.100 C 
HETATM   10  N   UNL     1      -2.807  -2.393 -31.761  1.00  0.00    -0.192 NA
HETATM   11  C   UNL     1      -5.355  -2.133 -34.119  1.00  0.00     0.140 C 
HETATM   12  O   UNL     1      -6.409  -1.607 -34.884  1.00  0.00    -0.279 OA
ENDROOT
BRANCH   7  13
HETATM   13  C   UNL     1      -6.083  -0.187 -31.277  1.00  0.00     0.003 C 
HETATM   14  C   UNL     1      -7.597   0.127 -31.307  1.00  0.00     0.032 C 
HETATM   15  C   UNL     1      -7.949   1.540 -30.968  1.00  0.00    -0.030 C 
HETATM   16  C   UNL     1      -7.124   2.361 -30.309  1.00  0.00    -0.031 C 
HETATM   17  C   UNL     1      -5.768   1.958 -29.825  1.00  0.00     0.027 C 
HETATM   18  C   UNL     1      -5.396   0.497 -30.078  1.00  0.00     0.009 C 
ENDBRANCH   7  13
BRANCH  11  19
HETATM   19  N   UNL     1      -4.966  -3.386 -34.536  1.00  0.00    -0.282 NA
HETATM   20  H   UNL     1      -3.990  -3.476 -34.812  1.00  0.00     0.126 HD
HETATM   21  H   UNL     1      -5.271  -4.115 -33.897  1.00  0.00     0.126 HD
ENDBRANCH  11  19
BRANCH   1  22
HETATM   22  C   UNL     1      -6.006   3.159 -33.783  1.00  0.00    -0.005 A 
HETATM   23  C   UNL     1      -6.871   4.259 -33.890  1.00  0.00     0.014 A 
HETATM   24  C   UNL     1      -6.488   5.519 -33.425  1.00  0.00     0.001 A 
HETATM   25  C   UNL     1      -5.227   5.697 -32.860  1.00  0.00     0.000 A 
HETATM   26  C   UNL     1      -4.348   4.620 -32.772  1.00  0.00     0.001 A 
HETATM   27  C   UNL     1      -4.731   3.359 -33.237  1.00  0.00     0.014 A 
ENDBRANCH   1  22
TORSDOF 3
ENDMDL
MODEL 6
REMARK VINA RESULT:      -7.5      3.293      4.869
REMARK  3 active torsions:
REMARK  status: ('A' for Active; 'I' for Inactive)
REMARK    1  A    between atoms: C_4  and  C_5 
REMARK    2  A    between atoms: C_11  and  C_12 
REMARK    3  A    between atoms: C_21  and  N_22 
ROOT
HETATM    1  C   UNL     1      -5.070   4.184 -31.628  1.00  0.00     0.098 C 
HETATM    2  N   UNL     1      -4.850   4.795 -30.445  1.00  0.00    -0.172 NA
HETATM    3  N   UNL     1      -5.879   4.423 -29.668  1.00  0.00    -0.256 N 
HETATM    4  H   UNL     1      -5.959   4.817 -28.738  1.00  0.00     0.191 HD
HETATM    5  C   UNL     1      -6.743   3.601 -30.306  1.00  0.00     0.175 C 
HETATM    6  C   UNL     1      -6.204   3.320 -31.538  1.00  0.00     0.036 C 
HETATM    7  C   UNL     1      -6.939   2.394 -32.457  1.00  0.00     0.077 C 
HETATM    8  C   UNL     1      -8.425   2.346 -32.008  1.00  0.00     0.076 C 
HETATM    9  C   UNL     1      -9.377   1.892 -32.969  1.00  0.00     0.100 C 
HETATM   10  N   UNL     1     -10.138   1.497 -33.751  1.00  0.00    -0.192 NA
HETATM   11  C   UNL     1      -8.832   2.726 -30.767  1.00  0.00     0.140 C 
HETATM   12  O   UNL     1      -7.924   3.237 -29.823  1.00  0.00    -0.279 OA
ENDROOT
BRANCH   7  13
HETATM   13  C   UNL     1      -6.386   0.929 -32.551  1.00  0.00     0.003 C 
HETATM   14  C   UNL     1      -6.343   0.145 -31.220  1.00  0.00     0.032 C 
HETATM   15  C   UNL     1      -5.045   0.233 -30.483  1.00  0.00    -0.030 C 
HETATM   16  C   UNL     1      -3.897   0.591 -31.067  1.00  0.00    -0.031 C 
HETATM   17  C   UNL     1      -3.777   0.931 -32.518  1.00  0.00     0.027 C 
HETATM   18  C   UNL     1      -5.063   0.777 -33.329  1.00  0.00     0.009 C 
ENDBRANCH   7  13
BRANCH  11  19
HETATM   19  N   UNL     1     -10.122   2.672 -30.291  1.00  0.00    -0.282 NA
HETATM   20  H   UNL     1     -10.475   1.742 -30.078  1.00  0.00     0.126 HD
HETATM   21  H   UNL     1     -10.284   3.343 -29.544  1.00  0.00     0.126 HD
ENDBRANCH  11  19
BRANCH   1  22
HETATM   22  C   UNL     1      -4.201   4.488 -32.768  1.00  0.00    -0.005 A 
HETATM   23  C   UNL     1      -2.807   4.413 -32.622  1.00  0.00     0.014 A 
HETATM   24  C   UNL     1      -1.959   4.684 -33.697  1.00  0.00     0.001 A 
HETATM   25  C   UNL     1      -2.495   5.049 -34.930  1.00  0.00     0.000 A 
HETATM   26  C   UNL     1      -3.876   5.154 -35.082  1.00  0.00     0.001 A 
HETATM   27  C   UNL     1      -4.725   4.882 -34.005  1.00  0.00     0.014 A 
ENDBRANCH   1  22
TORSDOF 3
ENDMDL
MODEL 7
REMARK VINA RESULT:      -7.4     16.081     18.047
REMARK  3 active torsions:
REMARK  status: ('A' for Active; 'I' for Inactive)
REMARK    1  A    between atoms: C_4  and  C_5 
REMARK    2  A    between atoms: C_11  and  C_12 
REMARK    3  A    between atoms: C_21  and  N_22 
ROOT
HETATM    1  C   UNL     1      -7.104 -13.847 -37.230  1.00  0.00     0.098 C 
HETATM    2  N   UNL     1      -7.495 -13.294 -36.063  1.00  0.00    -0.172 NA
HETATM    3  N   UNL     1      -6.359 -13.093 -35.377  1.00  0.00    -0.256 N 
HETATM    4  H   UNL     1      -6.414 -12.738 -34.430  1.00  0.00     0.191 HD
HETATM    5  C   UNL     1      -5.261 -13.495 -36.060  1.00  0.00     0.175 C 
HETATM    6  C   UNL     1      -5.678 -13.880 -37.311  1.00  0.00     0.036 C 
HETATM    7  C   UNL     1      -4.658 -14.344 -38.303  1.00  0.00     0.077 C 
HETATM    8  C   UNL     1      -3.384 -14.772 -37.524  1.00  0.00     0.076 C 
HETATM    9  C   UNL     1      -2.471 -15.636 -38.199  1.00  0.00     0.100 C 
HETATM   10  N   UNL     1      -1.724 -16.317 -38.768  1.00  0.00    -0.192 NA
HETATM   11  C   UNL     1      -3.131 -14.368 -36.249  1.00  0.00     0.140 C 
HETATM   12  O   UNL     1      -4.044 -13.570 -35.539  1.00  0.00    -0.279 OA
ENDROOT
BRANCH   7  13
HETATM   13  C   UNL     1      -4.254 -13.314 -39.415  1.00  0.00     0.003 C 
HETATM   14  C   UNL     1      -5.050 -11.988 -39.416  1.00  0.00     0.032 C 
HETATM   15  C   UNL     1      -6.249 -11.978 -40.309  1.00  0.00    -0.030 C 
HETATM   16  C   UNL     1      -6.416 -12.841 -41.317  1.00  0.00    -0.031 C 
HETATM   17  C   UNL     1      -5.423 -13.899 -41.674  1.00  0.00     0.027 C 
HETATM   18  C   UNL     1      -4.142 -13.896 -40.839  1.00  0.00     0.009 C 
ENDBRANCH   7  13
BRANCH  11  19
HETATM   19  N   UNL     1      -2.008 -14.675 -35.516  1.00  0.00    -0.282 NA
HETATM   20  H   UNL     1      -1.985 -14.307 -34.568  1.00  0.00     0.126 HD
HETATM   21  H   UNL     1      -1.774 -15.664 -35.568  1.00  0.00     0.126 HD
ENDBRANCH  11  19
BRANCH   1  22
HETATM   22  C   UNL     1      -8.116 -14.330 -38.173  1.00  0.00    -0.005 A 
HETATM   23  C   UNL     1      -9.085 -13.444 -38.670  1.00  0.00     0.014 A 
HETATM   24  C   UNL     1     -10.051 -13.878 -39.581  1.00  0.00     0.001 A 
HETATM   25  C   UNL     1     -10.068 -15.208 -39.994  1.00  0.00     0.000 A 
HETATM   26  C   UNL     1      -9.129 -16.104 -39.489  1.00  0.00     0.001 A 
HETATM   27  C   UNL     1      -8.162 -15.670 -38.577  1.00  0.00     0.014 A 
ENDBRANCH   1  22
TORSDOF 3
ENDMDL
MODEL 8
REMARK VINA RESULT:      -7.1      3.090      5.097
REMARK  3 active torsions:
REMARK  status: ('A' for Active; 'I' for Inactive)
REMARK    1  A    between atoms: C_4  and  C_5 
REMARK    2  A    between atoms: C_11  and  C_12 
REMARK    3  A    between atoms: C_21  and  N_22 
ROOT
HETATM    1  C   UNL     1      -5.923   5.339 -33.368  1.00  0.00     0.098 C 
HETATM    2  N   UNL     1      -6.704   6.410 -33.114  1.00  0.00    -0.172 NA
HETATM    3  N   UNL     1      -7.956   5.927 -33.094  1.00  0.00    -0.256 N 
HETATM    4  H   UNL     1      -8.729   6.573 -32.981  1.00  0.00     0.191 HD
HETATM    5  C   UNL     1      -8.004   4.595 -33.324  1.00  0.00     0.175 C 
HETATM    6  C   UNL     1      -6.707   4.146 -33.390  1.00  0.00     0.036 C 
HETATM    7  C   UNL     1      -6.457   2.685 -33.605  1.00  0.00     0.077 C 
HETATM    8  C   UNL     1      -7.738   2.059 -34.218  1.00  0.00     0.076 C 
HETATM    9  C   UNL     1      -7.590   0.813 -34.897  1.00  0.00     0.100 C 
HETATM   10  N   UNL     1      -7.460  -0.212 -35.424  1.00  0.00    -0.192 NA
HETATM   11  C   UNL     1      -8.959   2.656 -34.140  1.00  0.00     0.140 C 
HETATM   12  O   UNL     1      -9.122   3.912 -33.533  1.00  0.00    -0.279 OA
ENDROOT
BRANCH   7  13
HETATM   13  C   UNL     1      -6.041   1.860 -32.337  1.00  0.00     0.003 C 
HETATM   14  C   UNL     1      -5.920   2.669 -31.025  1.00  0.00     0.032 C 
HETATM   15  C   UNL     1      -4.547   3.182 -30.731  1.00  0.00    -0.030 C 
HETATM   16  C   UNL     1      -3.443   2.676 -31.292  1.00  0.00    -0.031 C 
HETATM   17  C   UNL     1      -3.453   1.538 -32.260  1.00  0.00     0.027 C 
HETATM   18  C   UNL     1      -4.829   0.928 -32.530  1.00  0.00     0.009 C 
ENDBRANCH   7  13
BRANCH  11  19
HETATM   19  N   UNL     1     -10.139   2.140 -34.624  1.00  0.00    -0.282 NA
HETATM   20  H   UNL     1     -10.115   1.810 -35.587  1.00  0.00     0.126 HD
HETATM   21  H   UNL     1     -10.558   1.472 -33.982  1.00  0.00     0.126 HD
ENDBRANCH  11  19
BRANCH   1  22
HETATM   22  C   UNL     1      -4.489   5.532 -33.599  1.00  0.00    -0.005 A 
HETATM   23  C   UNL     1      -3.901   5.043 -34.775  1.00  0.00     0.014 A 
HETATM   24  C   UNL     1      -2.539   5.227 -35.026  1.00  0.00     0.001 A 
HETATM   25  C   UNL     1      -1.746   5.892 -34.093  1.00  0.00     0.000 A 
HETATM   26  C   UNL     1      -2.311   6.360 -32.909  1.00  0.00     0.001 A 
HETATM   27  C   UNL     1      -3.674   6.175 -32.659  1.00  0.00     0.014 A 
ENDBRANCH   1  22
TORSDOF 3
ENDMDL
MODEL 9
REMARK VINA RESULT:      -7.1      2.233      3.294
REMARK  3 active torsions:
REMARK  status: ('A' for Active; 'I' for Inactive)
REMARK    1  A    between atoms: C_4  and  C_5 
REMARK    2  A    between atoms: C_11  and  C_12 
REMARK    3  A    between atoms: C_21  and  N_22 
ROOT
HETATM    1  C   UNL     1      -4.401   1.120 -32.951  1.00  0.00     0.098 C 
HETATM    2  N   UNL     1      -3.119   1.365 -32.609  1.00  0.00    -0.172 NA
HETATM    3  N   UNL     1      -3.082   2.675 -32.323  1.00  0.00    -0.256 N 
HETATM    4  H   UNL     1      -2.191   3.103 -32.097  1.00  0.00     0.191 HD
HETATM    5  C   UNL     1      -4.286   3.274 -32.468  1.00  0.00     0.175 C 
HETATM    6  C   UNL     1      -5.199   2.289 -32.758  1.00  0.00     0.036 C 
HETATM    7  C   UNL     1      -6.637   2.664 -32.939  1.00  0.00     0.077 C 
HETATM    8  C   UNL     1      -6.705   4.181 -33.259  1.00  0.00     0.076 C 
HETATM    9  C   UNL     1      -7.894   4.659 -33.887  1.00  0.00     0.100 C 
HETATM   10  N   UNL     1      -8.876   5.038 -34.373  1.00  0.00    -0.192 NA
HETATM   11  C   UNL     1      -5.686   5.039 -32.979  1.00  0.00     0.140 C 
HETATM   12  O   UNL     1      -4.480   4.586 -32.420  1.00  0.00    -0.279 OA
ENDROOT
BRANCH   7  13
HETATM   13  C   UNL     1      -7.590   2.353 -31.733  1.00  0.00     0.003 C 
HETATM   14  C   UNL     1      -7.148   2.927 -30.367  1.00  0.00     0.032 C 
HETATM   15  C   UNL     1      -6.331   1.995 -29.531  1.00  0.00    -0.030 C 
HETATM   16  C   UNL     1      -6.312   0.672 -29.720  1.00  0.00    -0.031 C 
HETATM   17  C   UNL     1      -7.109  -0.026 -30.774  1.00  0.00     0.027 C 
HETATM   18  C   UNL     1      -8.022   0.878 -31.602  1.00  0.00     0.009 C 
ENDBRANCH   7  13
BRANCH  11  19
HETATM   19  N   UNL     1      -5.695   6.398 -33.199  1.00  0.00    -0.282 NA
HETATM   20  H   UNL     1      -6.495   6.757 -33.715  1.00  0.00     0.126 HD
HETATM   21  H   UNL     1      -5.496   6.925 -32.352  1.00  0.00     0.126 HD
ENDBRANCH  11  19
BRANCH   1  22
HETATM   22  C   UNL     1      -4.769  -0.202 -33.465  1.00  0.00    -0.005 A 
HETATM   23  C   UNL     1      -5.924  -0.348 -34.249  1.00  0.00     0.014 A 
HETATM   24  C   UNL     1      -6.287  -1.595 -34.763  1.00  0.00     0.001 A 
HETATM   25  C   UNL     1      -5.507  -2.715 -34.484  1.00  0.00     0.000 A 
HETATM   26  C   UNL     1      -4.373  -2.590 -33.685  1.00  0.00     0.001 A 
HETATM   27  C   UNL     1      -4.009  -1.341 -33.171  1.00  0.00     0.014 A 
ENDBRANCH   1  22
TORSDOF 3
ENDMDL
MODEL 10
REMARK VINA RESULT:      -7.0     16.170     18.021
REMARK  3 active torsions:
REMARK  status: ('A' for Active; 'I' for Inactive)
REMARK    1  A    between atoms: C_4  and  C_5 
REMARK    2  A    between atoms: C_11  and  C_12 
REMARK    3  A    between atoms: C_21  and  N_22 
ROOT
HETATM    1  C   UNL     1      -5.259 -13.659 -38.443  1.00  0.00     0.098 C 
HETATM    2  N   UNL     1      -4.247 -12.789 -38.244  1.00  0.00    -0.172 NA
HETATM    3  N   UNL     1      -3.795 -12.498 -39.474  1.00  0.00    -0.256 N 
HETATM    4  H   UNL     1      -2.982 -11.901 -39.569  1.00  0.00     0.191 HD
HETATM    5  C   UNL     1      -4.477 -13.146 -40.446  1.00  0.00     0.175 C 
HETATM    6  C   UNL     1      -5.511 -13.818 -39.840  1.00  0.00     0.036 C 
HETATM    7  C   UNL     1      -6.461 -14.604 -40.689  1.00  0.00     0.077 C 
HETATM    8  C   UNL     1      -5.766 -14.902 -42.045  1.00  0.00     0.076 C 
HETATM    9  C   UNL     1      -6.290 -15.980 -42.820  1.00  0.00     0.100 C 
HETATM   10  N   UNL     1      -6.743 -16.841 -43.451  1.00  0.00    -0.192 NA
HETATM   11  C   UNL     1      -4.693 -14.194 -42.494  1.00  0.00     0.140 C 
HETATM   12  O   UNL     1      -4.117 -13.171 -41.723  1.00  0.00    -0.279 OA
ENDROOT
BRANCH   7  13
HETATM   13  C   UNL     1      -7.855 -13.938 -40.966  1.00  0.00     0.003 C 
HETATM   14  C   UNL     1      -8.029 -12.503 -40.418  1.00  0.00     0.032 C 
HETATM   15  C   UNL     1      -8.634 -12.423 -39.054  1.00  0.00    -0.030 C 
HETATM   16  C   UNL     1      -9.337 -13.420 -38.507  1.00  0.00    -0.031 C 
HETATM   17  C   UNL     1      -9.608 -14.717 -39.197  1.00  0.00     0.027 C 
HETATM   18  C   UNL     1      -9.077 -14.815 -40.628  1.00  0.00     0.009 C 
ENDBRANCH   7  13
BRANCH  11  19
HETATM   19  N   UNL     1      -4.055 -14.378 -43.699  1.00  0.00    -0.282 NA
HETATM   20  H   UNL     1      -3.820 -15.341 -43.932  1.00  0.00     0.126 HD
HETATM   21  H   UNL     1      -4.517 -13.884 -44.458  1.00  0.00     0.126 HD
ENDBRANCH  11  19
BRANCH   1  22
HETATM   22  C   UNL     1      -5.895 -14.299 -37.289  1.00  0.00    -0.005 A 
HETATM   23  C   UNL     1      -6.055 -13.581 -36.093  1.00  0.00     0.014 A 
HETATM   24  C   UNL     1      -6.671 -14.163 -34.984  1.00  0.00     0.001 A 
HETATM   25  C   UNL     1      -7.124 -15.479 -35.053  1.00  0.00     0.000 A 
HETATM   26  C   UNL     1      -6.949 -16.213 -36.225  1.00  0.00     0.001 A 
HETATM   27  C   UNL     1      -6.331 -15.629 -37.335  1.00  0.00     0.014 A 
ENDBRANCH   1  22
TORSDOF 3
ENDMDL
