MODEL 1
REMARK VINA RESULT:      -6.5      0.000      0.000
REMARK  2 active torsions:
REMARK  status: ('A' for Active; 'I' for Inactive)
REMARK    1  A    between atoms: N_6  and  C_7 
REMARK    2  A    between atoms: C_8  and  N_9 
ROOT
HETATM    1  C   UNL     1      -4.935  -0.748 -32.795  1.00  0.00     0.066 A 
HETATM    2  C   UNL     1      -6.240  -0.819 -33.342  1.00  0.00     0.130 A 
HETATM    3  C   UNL     1      -6.688  -1.888 -34.135  1.00  0.00     0.060 A 
HETATM    4  C   UNL     1      -5.810  -2.926 -34.417  1.00  0.00     0.052 A 
HETATM    5 BR   UNL     1      -6.387  -4.382 -35.470  1.00  0.00    -0.048 Br
HETATM    6  C   UNL     1      -4.511  -2.880 -33.921  1.00  0.00     0.136 A 
HETATM    7  F   UNL     1      -3.641  -3.868 -34.175  1.00  0.00    -0.205 F 
HETATM    8  C   UNL     1      -4.079  -1.810 -33.130  1.00  0.00     0.075 A 
ENDROOT
BRANCH   1   9
HETATM    9  N   UNL     1      -4.485   0.260 -31.958  1.00  0.00    -0.376 N 
HETATM   10  C   UNL     1      -4.801   0.263 -30.521  1.00  0.00     0.150 C 
HETATM   11  C   UNL     1      -5.622   1.513 -30.144  1.00  0.00     0.254 C 
HETATM   12  N   UNL     1      -4.917   2.782 -30.625  1.00  0.00    -0.072 N 
HETATM   13  C   UNL     1      -5.672   4.019 -30.241  1.00  0.00     0.269 C 
HETATM   14  H   UNL     1      -4.003   2.817 -30.155  1.00  0.00     0.279 HD
HETATM   15  C   UNL     1      -4.642   2.728 -32.128  1.00  0.00     0.254 C 
HETATM   16  C   UNL     1      -3.832   1.466 -32.496  1.00  0.00     0.150 C 
ENDBRANCH   1   9
BRANCH   2  17
HETATM   17  N   UNL     1      -7.172   0.273 -33.143  1.00  0.00    -0.113 N 
HETATM   18  O   UNL     1      -7.972   0.178 -32.204  1.00  0.00    -0.532 OA
HETATM   19  O   UNL     1      -7.117   1.204 -33.957  1.00  0.00    -0.532 OA
ENDBRANCH   2  17
TORSDOF 2
ENDMDL
MODEL 2
REMARK VINA RESULT:      -6.3      2.369      3.300
REMARK  2 active torsions:
REMARK  status: ('A' for Active; 'I' for Inactive)
REMARK    1  A    between atoms: N_6  and  C_7 
REMARK    2  A    between atoms: C_8  and  N_9 
ROOT
HETATM    1  C   UNL     1      -6.367  -1.160 -33.962  1.00  0.00     0.066 A 
HETATM    2  C   UNL     1      -5.183  -1.203 -33.186  1.00  0.00     0.130 A 
HETATM    3  C   UNL     1      -4.297  -2.293 -33.187  1.00  0.00     0.060 A 
HETATM    4  C   UNL     1      -4.597  -3.397 -33.974  1.00  0.00     0.052 A 
HETATM    5 BR   UNL     1      -3.420  -4.872 -34.004  1.00  0.00    -0.048 Br
HETATM    6  C   UNL     1      -5.764  -3.404 -34.729  1.00  0.00     0.136 A 
HETATM    7  F   UNL     1      -6.079  -4.456 -35.500  1.00  0.00    -0.205 F 
HETATM    8  C   UNL     1      -6.636  -2.310 -34.721  1.00  0.00     0.075 A 
ENDROOT
BRANCH   1   9
HETATM    9  N   UNL     1      -7.225  -0.074 -34.032  1.00  0.00    -0.376 N 
HETATM   10  C   UNL     1      -6.925   1.089 -34.880  1.00  0.00     0.150 C 
HETATM   11  C   UNL     1      -6.784   2.367 -34.028  1.00  0.00     0.254 C 
HETATM   12  N   UNL     1      -8.011   2.553 -33.134  1.00  0.00    -0.072 N 
HETATM   13  C   UNL     1      -7.921   3.808 -32.318  1.00  0.00     0.269 C 
HETATM   14  H   UNL     1      -8.826   2.643 -33.754  1.00  0.00     0.279 HD
HETATM   15  C   UNL     1      -8.251   1.323 -32.259  1.00  0.00     0.254 C 
HETATM   16  C   UNL     1      -8.378   0.047 -33.121  1.00  0.00     0.150 C 
ENDBRANCH   1   9
BRANCH   2  17
HETATM   17  N   UNL     1      -4.861  -0.110 -32.289  1.00  0.00    -0.113 N 
HETATM   18  O   UNL     1      -4.082   0.759 -32.702  1.00  0.00    -0.532 OA
HETATM   19  O   UNL     1      -5.366  -0.153 -31.160  1.00  0.00    -0.532 OA
ENDBRANCH   2  17
TORSDOF 2
ENDMDL
MODEL 3
REMARK VINA RESULT:      -6.3      1.491      2.035
REMARK  2 active torsions:
REMARK  status: ('A' for Active; 'I' for Inactive)
REMARK    1  A    between atoms: N_6  and  C_7 
REMARK    2  A    between atoms: C_8  and  N_9 
ROOT
HETATM    1  C   UNL     1      -6.277   0.254 -33.226  1.00  0.00     0.066 A 
HETATM    2  C   UNL     1      -7.470  -0.425 -33.575  1.00  0.00     0.130 A 
HETATM    3  C   UNL     1      -7.491  -1.723 -34.113  1.00  0.00     0.060 A 
HETATM    4  C   UNL     1      -6.286  -2.376 -34.333  1.00  0.00     0.052 A 
HETATM    5 BR   UNL     1      -6.284  -4.124 -35.044  1.00  0.00    -0.048 Br
HETATM    6  C   UNL     1      -5.091  -1.731 -34.029  1.00  0.00     0.136 A 
HETATM    7  F   UNL     1      -3.912  -2.337 -34.229  1.00  0.00    -0.205 F 
HETATM    8  C   UNL     1      -5.085  -0.440 -33.491  1.00  0.00     0.075 A 
ENDROOT
BRANCH   1   9
HETATM    9  N   UNL     1      -6.226   1.506 -32.634  1.00  0.00    -0.376 N 
HETATM   10  C   UNL     1      -6.188   2.735 -33.442  1.00  0.00     0.150 C 
HETATM   11  C   UNL     1      -4.887   3.522 -33.179  1.00  0.00     0.254 C 
HETATM   12  N   UNL     1      -4.699   3.759 -31.680  1.00  0.00    -0.072 N 
HETATM   13  C   UNL     1      -3.460   4.555 -31.392  1.00  0.00     0.269 C 
HETATM   14  H   UNL     1      -5.504   4.311 -31.358  1.00  0.00     0.279 HD
HETATM   15  C   UNL     1      -4.721   2.443 -30.903  1.00  0.00     0.254 C 
HETATM   16  C   UNL     1      -6.021   1.657 -31.183  1.00  0.00     0.150 C 
ENDBRANCH   1   9
BRANCH   2  17
HETATM   17  N   UNL     1      -8.752   0.238 -33.438  1.00  0.00    -0.113 N 
HETATM   18  O   UNL     1      -9.341   0.125 -32.356  1.00  0.00    -0.532 OA
HETATM   19  O   UNL     1      -9.174   0.839 -34.433  1.00  0.00    -0.532 OA
ENDBRANCH   2  17
TORSDOF 2
ENDMDL
MODEL 4
REMARK VINA RESULT:      -5.9      7.281      9.219
REMARK  2 active torsions:
REMARK  status: ('A' for Active; 'I' for Inactive)
REMARK    1  A    between atoms: N_6  and  C_7 
REMARK    2  A    between atoms: C_8  and  N_9 
ROOT
HETATM    1  C   UNL     1      -1.026   5.786 -30.943  1.00  0.00     0.066 A 
HETATM    2  C   UNL     1      -1.243   7.178 -30.789  1.00  0.00     0.130 A 
HETATM    3  C   UNL     1      -0.573   7.963 -29.837  1.00  0.00     0.060 A 
HETATM    4  C   UNL     1       0.339   7.352 -28.987  1.00  0.00     0.052 A 
HETATM    5 BR   UNL     1       1.262   8.384 -27.704  1.00  0.00    -0.048 Br
HETATM    6  C   UNL     1       0.559   5.983 -29.088  1.00  0.00     0.136 A 
HETATM    7  F   UNL     1       1.435   5.364 -28.282  1.00  0.00    -0.205 F 
HETATM    8  C   UNL     1      -0.113   5.213 -30.043  1.00  0.00     0.075 A 
ENDROOT
BRANCH   1   9
HETATM    9  N   UNL     1      -1.622   4.998 -31.914  1.00  0.00    -0.376 N 
HETATM   10  C   UNL     1      -1.361   5.214 -33.345  1.00  0.00     0.150 C 
HETATM   11  C   UNL     1      -2.661   5.583 -34.089  1.00  0.00     0.254 C 
HETATM   12  N   UNL     1      -3.752   4.548 -33.807  1.00  0.00    -0.072 N 
HETATM   13  C   UNL     1      -5.019   4.858 -34.546  1.00  0.00     0.269 C 
HETATM   14  H   UNL     1      -3.405   3.643 -34.152  1.00  0.00     0.279 HD
HETATM   15  C   UNL     1      -3.993   4.390 -32.307  1.00  0.00     0.254 C 
HETATM   16  C   UNL     1      -2.683   4.035 -31.570  1.00  0.00     0.150 C 
ENDBRANCH   1   9
BRANCH   2  17
HETATM   17  N   UNL     1      -2.239   7.852 -31.598  1.00  0.00    -0.113 N 
HETATM   18  O   UNL     1      -1.834   8.585 -32.509  1.00  0.00    -0.532 OA
HETATM   19  O   UNL     1      -3.422   7.668 -31.287  1.00  0.00    -0.532 OA
ENDBRANCH   2  17
TORSDOF 2
ENDMDL
MODEL 5
REMARK VINA RESULT:      -5.9      1.647      2.285
REMARK  2 active torsions:
REMARK  status: ('A' for Active; 'I' for Inactive)
REMARK    1  A    between atoms: N_6  and  C_7 
REMARK    2  A    between atoms: C_8  and  N_9 
ROOT
HETATM    1  C   UNL     1      -5.532   0.110 -32.813  1.00  0.00     0.066 A 
HETATM    2  C   UNL     1      -6.081  -0.687 -33.848  1.00  0.00     0.130 A 
HETATM    3  C   UNL     1      -5.585  -1.955 -34.192  1.00  0.00     0.060 A 
HETATM    4  C   UNL     1      -4.491  -2.456 -33.500  1.00  0.00     0.052 A 
HETATM    5 BR   UNL     1      -3.809  -4.162 -33.934  1.00  0.00    -0.048 Br
HETATM    6  C   UNL     1      -3.906  -1.692 -32.496  1.00  0.00     0.136 A 
HETATM    7  F   UNL     1      -2.849  -2.150 -31.809  1.00  0.00    -0.205 F 
HETATM    8  C   UNL     1      -4.412  -0.432 -32.162  1.00  0.00     0.075 A 
ENDROOT
BRANCH   1   9
HETATM    9  N   UNL     1      -6.038   1.334 -32.408  1.00  0.00    -0.376 N 
HETATM   10  C   UNL     1      -5.437   2.600 -32.857  1.00  0.00     0.150 C 
HETATM   11  C   UNL     1      -4.903   3.408 -31.656  1.00  0.00     0.254 C 
HETATM   12  N   UNL     1      -5.994   3.581 -30.599  1.00  0.00    -0.072 N 
HETATM   13  C   UNL     1      -5.517   4.396 -29.434  1.00  0.00     0.269 C 
HETATM   14  H   UNL     1      -6.766   4.096 -31.043  1.00  0.00     0.279 HD
HETATM   15  C   UNL     1      -6.557   2.231 -30.156  1.00  0.00     0.254 C 
HETATM   16  C   UNL     1      -7.076   1.424 -31.366  1.00  0.00     0.150 C 
ENDBRANCH   1   9
BRANCH   2  17
HETATM   17  N   UNL     1      -7.176  -0.181 -34.652  1.00  0.00    -0.113 N 
HETATM   18  O   UNL     1      -6.888   0.444 -35.681  1.00  0.00    -0.532 OA
HETATM   19  O   UNL     1      -8.318  -0.385 -34.224  1.00  0.00    -0.532 OA
ENDBRANCH   2  17
TORSDOF 2
ENDMDL
MODEL 6
REMARK VINA RESULT:      -5.7     14.002     14.920
REMARK  2 active torsions:
REMARK  status: ('A' for Active; 'I' for Inactive)
REMARK    1  A    between atoms: N_6  and  C_7 
REMARK    2  A    between atoms: C_8  and  N_9 
ROOT
HETATM    1  C   UNL     1      -5.841 -13.366 -38.259  1.00  0.00     0.066 A 
HETATM    2  C   UNL     1      -7.084 -13.579 -37.612  1.00  0.00     0.130 A 
HETATM    3  C   UNL     1      -8.318 -13.203 -38.167  1.00  0.00     0.060 A 
HETATM    4  C   UNL     1      -8.331 -12.574 -39.405  1.00  0.00     0.052 A 
HETATM    5 BR   UNL     1      -9.976 -12.068 -40.180  1.00  0.00    -0.048 Br
HETATM    6  C   UNL     1      -7.130 -12.322 -40.059  1.00  0.00     0.136 A 
HETATM    7  F   UNL     1      -7.111 -11.718 -41.256  1.00  0.00    -0.205 F 
HETATM    8  C   UNL     1      -5.908 -12.705 -39.496  1.00  0.00     0.075 A 
ENDROOT
BRANCH   1   9
HETATM    9  N   UNL     1      -4.615 -13.783 -37.767  1.00  0.00    -0.376 N 
HETATM   10  C   UNL     1      -3.723 -12.861 -37.046  1.00  0.00     0.150 C 
HETATM   11  C   UNL     1      -2.384 -12.698 -37.795  1.00  0.00     0.254 C 
HETATM   12  N   UNL     1      -1.761 -14.064 -38.082  1.00  0.00    -0.072 N 
HETATM   13  C   UNL     1      -0.438 -13.939 -38.778  1.00  0.00     0.269 C 
HETATM   14  H   UNL     1      -1.593 -14.517 -37.174  1.00  0.00     0.279 HD
HETATM   15  C   UNL     1      -2.726 -14.962 -38.855  1.00  0.00     0.254 C 
HETATM   16  C   UNL     1      -4.067 -15.108 -38.105  1.00  0.00     0.150 C 
ENDBRANCH   1   9
BRANCH   2  17
HETATM   17  N   UNL     1      -7.122 -14.162 -36.285  1.00  0.00    -0.113 N 
HETATM   18  O   UNL     1      -7.162 -15.396 -36.204  1.00  0.00    -0.532 OA
HETATM   19  O   UNL     1      -7.150 -13.371 -35.334  1.00  0.00    -0.532 OA
ENDBRANCH   2  17
TORSDOF 2
ENDMDL
MODEL 7
REMARK VINA RESULT:      -5.6      3.907      5.237
REMARK  2 active torsions:
REMARK  status: ('A' for Active; 'I' for Inactive)
REMARK    1  A    between atoms: N_6  and  C_7 
REMARK    2  A    between atoms: C_8  and  N_9 
ROOT
HETATM    1  C   UNL     1      -3.761   3.810 -32.477  1.00  0.00     0.066 A 
HETATM    2  C   UNL     1      -4.919   3.622 -33.271  1.00  0.00     0.130 A 
HETATM    3  C   UNL     1      -5.692   2.450 -33.246  1.00  0.00     0.060 A 
HETATM    4  C   UNL     1      -5.301   1.409 -32.414  1.00  0.00     0.052 A 
HETATM    5 BR   UNL     1      -6.327  -0.174 -32.350  1.00  0.00    -0.048 Br
HETATM    6  C   UNL     1      -4.154   1.544 -31.640  1.00  0.00     0.136 A 
HETATM    7  F   UNL     1      -3.752   0.556 -30.826  1.00  0.00    -0.205 F 
HETATM    8  C   UNL     1      -3.395   2.718 -31.673  1.00  0.00     0.075 A 
ENDROOT
BRANCH   1   9
HETATM    9  N   UNL     1      -3.015   4.977 -32.433  1.00  0.00    -0.376 N 
HETATM   10  C   UNL     1      -1.702   5.074 -33.087  1.00  0.00     0.150 C 
HETATM   11  C   UNL     1      -0.595   5.361 -32.052  1.00  0.00     0.254 C 
HETATM   12  N   UNL     1      -0.956   6.582 -31.205  1.00  0.00    -0.072 N 
HETATM   13  C   UNL     1       0.118   6.911 -30.212  1.00  0.00     0.269 C 
HETATM   14  H   UNL     1      -1.040   7.381 -31.848  1.00  0.00     0.279 HD
HETATM   15  C   UNL     1      -2.317   6.407 -30.532  1.00  0.00     0.254 C 
HETATM   16  C   UNL     1      -3.416   6.107 -31.576  1.00  0.00     0.150 C 
ENDBRANCH   1   9
BRANCH   2  17
HETATM   17  N   UNL     1      -5.329   4.646 -34.213  1.00  0.00    -0.113 N 
HETATM   18  O   UNL     1      -6.398   5.230 -33.993  1.00  0.00    -0.532 OA
HETATM   19  O   UNL     1      -4.589   4.831 -35.187  1.00  0.00    -0.532 OA
ENDBRANCH   2  17
TORSDOF 2
ENDMDL
MODEL 8
REMARK VINA RESULT:      -5.5      3.195      3.773
REMARK  2 active torsions:
REMARK  status: ('A' for Active; 'I' for Inactive)
REMARK    1  A    between atoms: N_6  and  C_7 
REMARK    2  A    between atoms: C_8  and  N_9 
ROOT
HETATM    1  C   UNL     1      -6.608   1.053 -32.718  1.00  0.00     0.066 A 
HETATM    2  C   UNL     1      -5.201   0.899 -32.676  1.00  0.00     0.130 A 
HETATM    3  C   UNL     1      -4.538  -0.264 -33.100  1.00  0.00     0.060 A 
HETATM    4  C   UNL     1      -5.293  -1.330 -33.571  1.00  0.00     0.052 A 
HETATM    5 BR   UNL     1      -4.429  -2.902 -34.159  1.00  0.00    -0.048 Br
HETATM    6  C   UNL     1      -6.679  -1.228 -33.602  1.00  0.00     0.136 A 
HETATM    7  F   UNL     1      -7.435  -2.240 -34.053  1.00  0.00    -0.205 F 
HETATM    8  C   UNL     1      -7.326  -0.062 -33.179  1.00  0.00     0.075 A 
ENDROOT
BRANCH   1   9
HETATM    9  N   UNL     1      -7.286   2.210 -32.367  1.00  0.00    -0.376 N 
HETATM   10  C   UNL     1      -7.776   2.428 -30.997  1.00  0.00     0.150 C 
HETATM   11  C   UNL     1      -9.312   2.566 -30.981  1.00  0.00     0.254 C 
HETATM   12  N   UNL     1      -9.764   3.634 -31.977  1.00  0.00    -0.072 N 
HETATM   13  C   UNL     1     -11.252   3.819 -31.959  1.00  0.00     0.269 C 
HETATM   14  H   UNL     1      -9.337   4.522 -31.683  1.00  0.00     0.279 HD
HETATM   15  C   UNL     1      -9.246   3.336 -33.384  1.00  0.00     0.254 C 
HETATM   16  C   UNL     1      -7.709   3.186 -33.387  1.00  0.00     0.150 C 
ENDBRANCH   1   9
BRANCH   2  17
HETATM   17  N   UNL     1      -4.370   1.951 -32.122  1.00  0.00    -0.113 N 
HETATM   18  O   UNL     1      -4.050   1.859 -30.931  1.00  0.00    -0.532 OA
HETATM   19  O   UNL     1      -4.075   2.882 -32.882  1.00  0.00    -0.532 OA
ENDBRANCH   2  17
TORSDOF 2
ENDMDL
MODEL 9
REMARK VINA RESULT:      -5.4     14.458     15.810
REMARK  2 active torsions:
REMARK  status: ('A' for Active; 'I' for Inactive)
REMARK    1  A    between atoms: N_6  and  C_7 
REMARK    2  A    between atoms: C_8  and  N_9 
ROOT
HETATM    1  C   UNL     1      -2.912 -14.416 -39.616  1.00  0.00     0.066 A 
HETATM    2  C   UNL     1      -2.266 -13.581 -38.672  1.00  0.00     0.130 A 
HETATM    3  C   UNL     1      -0.889 -13.643 -38.401  1.00  0.00     0.060 A 
HETATM    4  C   UNL     1      -0.116 -14.579 -39.075  1.00  0.00     0.052 A 
HETATM    5 BR   UNL     1       1.739 -14.678 -38.738  1.00  0.00    -0.048 Br
HETATM    6  C   UNL     1      -0.719 -15.436 -39.989  1.00  0.00     0.136 A 
HETATM    7  F   UNL     1       0.002 -16.349 -40.656  1.00  0.00    -0.205 F 
HETATM    8  C   UNL     1      -2.091 -15.361 -40.251  1.00  0.00     0.075 A 
ENDROOT
BRANCH   1   9
HETATM    9  N   UNL     1      -4.254 -14.335 -39.952  1.00  0.00    -0.376 N 
HETATM   10  C   UNL     1      -4.757 -13.290 -40.856  1.00  0.00     0.150 C 
HETATM   11  C   UNL     1      -5.783 -12.390 -40.135  1.00  0.00     0.254 C 
HETATM   12  N   UNL     1      -6.883 -13.238 -39.496  1.00  0.00    -0.072 N 
HETATM   13  C   UNL     1      -7.918 -12.391 -38.817  1.00  0.00     0.269 C 
HETATM   14  H   UNL     1      -7.350 -13.750 -40.256  1.00  0.00     0.279 HD
HETATM   15  C   UNL     1      -6.297 -14.285 -38.549  1.00  0.00     0.254 C 
HETATM   16  C   UNL     1      -5.262 -15.171 -39.276  1.00  0.00     0.150 C 
ENDBRANCH   1   9
BRANCH   2  17
HETATM   17  N   UNL     1      -3.038 -12.639 -37.885  1.00  0.00    -0.113 N 
HETATM   18  O   UNL     1      -3.099 -11.471 -38.291  1.00  0.00    -0.532 OA
HETATM   19  O   UNL     1      -3.547 -13.073 -36.845  1.00  0.00    -0.532 OA
ENDBRANCH   2  17
TORSDOF 2
ENDMDL
MODEL 10
REMARK VINA RESULT:      -5.4     13.724     14.629
REMARK  2 active torsions:
REMARK  status: ('A' for Active; 'I' for Inactive)
REMARK    1  A    between atoms: N_6  and  C_7 
REMARK    2  A    between atoms: C_8  and  N_9 
ROOT
HETATM    1  C   UNL     1      -6.806 -13.708 -36.378  1.00  0.00     0.066 A 
HETATM    2  C   UNL     1      -5.568 -13.628 -37.061  1.00  0.00     0.130 A 
HETATM    3  C   UNL     1      -5.444 -13.182 -38.387  1.00  0.00     0.060 A 
HETATM    4  C   UNL     1      -6.591 -12.814 -39.079  1.00  0.00     0.052 A 
HETATM    5 BR   UNL     1      -6.454 -12.200 -40.859  1.00  0.00    -0.048 Br
HETATM    6  C   UNL     1      -7.829 -12.904 -38.452  1.00  0.00     0.136 A 
HETATM    7  F   UNL     1      -8.953 -12.554 -39.094  1.00  0.00    -0.205 F 
HETATM    8  C   UNL     1      -7.937 -13.348 -37.130  1.00  0.00     0.075 A 
ENDROOT
BRANCH   1   9
HETATM    9  N   UNL     1      -6.953 -14.082 -35.052  1.00  0.00    -0.376 N 
HETATM   10  C   UNL     1      -6.870 -13.097 -33.963  1.00  0.00     0.150 C 
HETATM   11  C   UNL     1      -5.697 -13.424 -33.016  1.00  0.00     0.254 C 
HETATM   12  N   UNL     1      -5.786 -14.873 -32.535  1.00  0.00    -0.072 N 
HETATM   13  C   UNL     1      -4.679 -15.213 -31.582  1.00  0.00     0.269 C 
HETATM   14  H   UNL     1      -6.675 -14.968 -32.026  1.00  0.00     0.279 HD
HETATM   15  C   UNL     1      -5.841 -15.846 -33.712  1.00  0.00     0.254 C 
HETATM   16  C   UNL     1      -7.010 -15.501 -34.661  1.00  0.00     0.150 C 
ENDBRANCH   1   9
BRANCH   2  17
HETATM   17  N   UNL     1      -4.350 -14.073 -36.413  1.00  0.00    -0.113 N 
HETATM   18  O   UNL     1      -4.037 -15.263 -36.539  1.00  0.00    -0.532 OA
HETATM   19  O   UNL     1      -3.735 -13.228 -35.751  1.00  0.00    -0.532 OA
ENDBRANCH   2  17
TORSDOF 2
ENDMDL
