MODEL 1
REMARK VINA RESULT:      -9.5      0.000      0.000
REMARK  4 active torsions:
REMARK  status: ('A' for Active; 'I' for Inactive)
REMARK    1  A    between atoms: C_4  and  C_5 
REMARK    2  A    between atoms: C_9  and  C_10 
REMARK       I    between atoms: C_10  and  N_11 
REMARK    3  A    between atoms: C_17  and  O_18 
REMARK    4  A    between atoms: C_25  and  O_26 
ROOT
HETATM    1  C   UNL     1      -6.940   0.182 -33.902  1.00  0.00     0.065 A 
HETATM    2  N   UNL     1      -6.451   1.461 -33.935  1.00  0.00    -0.277 N 
HETATM    3  H   UNL     1      -5.483   1.752 -34.026  1.00  0.00     0.189 HD
HETATM    4  N   UNL     1      -7.394   2.411 -33.860  1.00  0.00    -0.169 NA
HETATM    5  C   UNL     1      -8.554   1.734 -33.746  1.00  0.00     0.149 A 
HETATM    6  C   UNL     1      -8.306   0.332 -33.771  1.00  0.00     0.071 A 
ENDROOT
BRANCH   5   7
HETATM    7  C   UNL     1      -9.882   2.371 -33.640  1.00  0.00     0.299 C 
HETATM    8  N   UNL     1     -10.917   1.526 -33.954  1.00  0.00    -0.183 NA
HETATM    9  C   UNL     1     -12.077   1.823 -33.494  1.00  0.00     0.175 A 
HETATM   10  S   UNL     1     -13.445   0.740 -33.905  1.00  0.00    -0.050 SA
HETATM   11  N   UNL     1     -12.518   2.871 -32.719  1.00  0.00    -0.334 N 
HETATM   12  C   UNL     1     -14.589   1.836 -33.090  1.00  0.00     0.037 A 
HETATM   13  C   UNL     1     -13.902   2.931 -32.549  1.00  0.00     0.051 A 
HETATM   14  C   UNL     1     -15.961   1.703 -32.964  1.00  0.00     0.058 A 
HETATM   15  C   UNL     1     -14.591   3.891 -31.829  1.00  0.00     0.034 A 
HETATM   16  C   UNL     1     -15.980   3.768 -31.691  1.00  0.00     0.039 A 
HETATM   17  C   UNL     1     -16.668   2.681 -32.258  1.00  0.00     0.069 A 
HETATM   18  H   UNL     1     -11.927   3.685 -32.600  1.00  0.00     0.168 HD
HETATM   19  O   UNL     1     -10.010   3.548 -33.303  1.00  0.00    -0.263 OA
BRANCH  17  20
HETATM   20  O   UNL     1     -18.017   2.463 -32.185  1.00  0.00    -0.356 OA
HETATM   21  C   UNL     1     -18.842   3.212 -33.069  1.00  0.00     0.210 C 
ENDBRANCH  17  20
ENDBRANCH   5   7
BRANCH   1  22
HETATM   22  C   UNL     1      -6.091  -1.003 -33.986  1.00  0.00     0.026 A 
HETATM   23  C   UNL     1      -6.585  -2.160 -34.615  1.00  0.00     0.023 A 
HETATM   24  C   UNL     1      -5.802  -3.320 -34.722  1.00  0.00    -0.061 A 
HETATM   25  C   UNL     1      -6.332  -4.536 -35.423  1.00  0.00     0.048 C 
HETATM   26  C   UNL     1      -4.496  -3.310 -34.224  1.00  0.00     0.009 A 
HETATM   27  C   UNL     1      -3.991  -2.170 -33.600  1.00  0.00     0.038 A 
HETATM   28  C   UNL     1      -4.785  -1.032 -33.475  1.00  0.00     0.078 A 
BRANCH  28  29
HETATM   29  O   UNL     1      -4.217   0.020 -32.808  1.00  0.00    -0.360 OA
HETATM   30  H   UNL     1      -4.707   0.159 -31.981  1.00  0.00     0.217 HD
ENDBRANCH  28  29
ENDBRANCH   1  22
TORSDOF 4
ENDMDL
MODEL 2
REMARK VINA RESULT:      -8.6      7.981     11.380
REMARK  4 active torsions:
REMARK  status: ('A' for Active; 'I' for Inactive)
REMARK    1  A    between atoms: C_4  and  C_5 
REMARK    2  A    between atoms: C_9  and  C_10 
REMARK       I    between atoms: C_10  and  N_11 
REMARK    3  A    between atoms: C_17  and  O_18 
REMARK    4  A    between atoms: C_25  and  O_26 
ROOT
HETATM    1  C   UNL     1      -5.065   1.947 -32.685  1.00  0.00     0.065 A 
HETATM    2  N   UNL     1      -5.862   2.875 -32.067  1.00  0.00    -0.277 N 
HETATM    3  H   UNL     1      -6.874   2.865 -31.984  1.00  0.00     0.189 HD
HETATM    4  N   UNL     1      -5.189   3.883 -31.495  1.00  0.00    -0.169 NA
HETATM    5  C   UNL     1      -3.895   3.629 -31.768  1.00  0.00     0.149 A 
HETATM    6  C   UNL     1      -3.780   2.420 -32.512  1.00  0.00     0.071 A 
ENDROOT
BRANCH   5   7
HETATM    7  C   UNL     1      -2.769   4.479 -31.328  1.00  0.00     0.299 C 
HETATM    8  N   UNL     1      -3.162   5.718 -30.891  1.00  0.00    -0.183 NA
HETATM    9  C   UNL     1      -2.361   6.347 -30.110  1.00  0.00     0.175 A 
HETATM   10  S   UNL     1      -2.849   7.975 -29.541  1.00  0.00    -0.050 SA
HETATM   11  N   UNL     1      -1.125   6.018 -29.603  1.00  0.00    -0.334 N 
HETATM   12  C   UNL     1      -1.281   8.185 -28.721  1.00  0.00     0.037 A 
HETATM   13  C   UNL     1      -0.490   7.042 -28.899  1.00  0.00     0.051 A 
HETATM   14  C   UNL     1      -0.832   9.276 -27.998  1.00  0.00     0.058 A 
HETATM   15  C   UNL     1       0.758   6.968 -28.307  1.00  0.00     0.034 A 
HETATM   16  C   UNL     1       1.226   8.065 -27.570  1.00  0.00     0.039 A 
HETATM   17  C   UNL     1       0.438   9.218 -27.416  1.00  0.00     0.069 A 
HETATM   18  H   UNL     1      -0.610   5.247 -30.009  1.00  0.00     0.168 HD
HETATM   19  O   UNL     1      -1.605   4.080 -31.364  1.00  0.00    -0.263 OA
BRANCH  17  20
HETATM   20  O   UNL     1       0.793  10.342 -26.720  1.00  0.00    -0.356 OA
HETATM   21  C   UNL     1       1.249  10.159 -25.386  1.00  0.00     0.210 C 
ENDBRANCH  17  20
ENDBRANCH   5   7
BRANCH   1  22
HETATM   22  C   UNL     1      -5.588   0.761 -33.356  1.00  0.00     0.026 A 
HETATM   23  C   UNL     1      -4.831  -0.424 -33.347  1.00  0.00     0.023 A 
HETATM   24  C   UNL     1      -5.296  -1.589 -33.976  1.00  0.00    -0.061 A 
HETATM   25  C   UNL     1      -4.491  -2.855 -33.930  1.00  0.00     0.048 C 
HETATM   26  C   UNL     1      -6.551  -1.577 -34.592  1.00  0.00     0.009 A 
HETATM   27  C   UNL     1      -7.315  -0.410 -34.608  1.00  0.00     0.038 A 
HETATM   28  C   UNL     1      -6.832   0.748 -34.004  1.00  0.00     0.078 A 
BRANCH  28  29
HETATM   29  O   UNL     1      -7.633   1.853 -34.111  1.00  0.00    -0.360 OA
HETATM   30  H   UNL     1      -8.085   1.823 -34.970  1.00  0.00     0.217 HD
ENDBRANCH  28  29
ENDBRANCH   1  22
TORSDOF 4
ENDMDL
MODEL 3
REMARK VINA RESULT:      -8.4      7.362     10.631
REMARK  4 active torsions:
REMARK  status: ('A' for Active; 'I' for Inactive)
REMARK    1  A    between atoms: C_4  and  C_5 
REMARK    2  A    between atoms: C_9  and  C_10 
REMARK       I    between atoms: C_10  and  N_11 
REMARK    3  A    between atoms: C_17  and  O_18 
REMARK    4  A    between atoms: C_25  and  O_26 
ROOT
HETATM    1  C   UNL     1      -1.846   6.335 -30.090  1.00  0.00     0.065 A 
HETATM    2  N   UNL     1      -0.834   5.429 -30.267  1.00  0.00    -0.277 N 
HETATM    3  H   UNL     1       0.092   5.445 -29.850  1.00  0.00     0.189 HD
HETATM    4  N   UNL     1      -1.149   4.403 -31.069  1.00  0.00    -0.169 NA
HETATM    5  C   UNL     1      -2.413   4.653 -31.464  1.00  0.00     0.149 A 
HETATM    6  C   UNL     1      -2.883   5.857 -30.866  1.00  0.00     0.071 A 
ENDROOT
BRANCH   5   7
HETATM    7  C   UNL     1      -3.192   3.777 -32.363  1.00  0.00     0.299 C 
HETATM    8  N   UNL     1      -2.918   2.444 -32.196  1.00  0.00    -0.183 NA
HETATM    9  C   UNL     1      -3.807   1.607 -32.590  1.00  0.00     0.175 A 
HETATM   10  S   UNL     1      -3.460  -0.141 -32.395  1.00  0.00    -0.050 SA
HETATM   11  N   UNL     1      -5.037   1.784 -33.181  1.00  0.00    -0.334 N 
HETATM   12  C   UNL     1      -4.973  -0.559 -33.239  1.00  0.00     0.037 A 
HETATM   13  C   UNL     1      -5.656   0.608 -33.607  1.00  0.00     0.051 A 
HETATM   14  C   UNL     1      -5.471  -1.818 -33.530  1.00  0.00     0.058 A 
HETATM   15  C   UNL     1      -6.884   0.519 -34.238  1.00  0.00     0.034 A 
HETATM   16  C   UNL     1      -7.402  -0.749 -34.538  1.00  0.00     0.039 A 
HETATM   17  C   UNL     1      -6.700  -1.915 -34.190  1.00  0.00     0.069 A 
HETATM   18  H   UNL     1      -5.278   2.687 -33.569  1.00  0.00     0.168 HD
HETATM   19  O   UNL     1      -4.000   4.235 -33.172  1.00  0.00    -0.263 OA
BRANCH  17  20
HETATM   20  O   UNL     1      -7.111  -3.198 -34.432  1.00  0.00    -0.356 OA
HETATM   21  C   UNL     1      -6.184  -4.064 -35.076  1.00  0.00     0.210 C 
ENDBRANCH  17  20
ENDBRANCH   5   7
BRANCH   1  22
HETATM   22  C   UNL     1      -1.724   7.519 -29.244  1.00  0.00     0.026 A 
HETATM   23  C   UNL     1      -2.016   8.783 -29.784  1.00  0.00     0.023 A 
HETATM   24  C   UNL     1      -1.917   9.948 -29.007  1.00  0.00    -0.061 A 
HETATM   25  C   UNL     1      -2.263  11.286 -29.589  1.00  0.00     0.048 C 
HETATM   26  C   UNL     1      -1.553   9.839 -27.661  1.00  0.00     0.009 A 
HETATM   27  C   UNL     1      -1.263   8.592 -27.110  1.00  0.00     0.038 A 
HETATM   28  C   UNL     1      -1.338   7.446 -27.897  1.00  0.00     0.078 A 
BRANCH  28  29
HETATM   29  O   UNL     1      -0.990   6.275 -27.279  1.00  0.00    -0.360 OA
HETATM   30  H   UNL     1      -1.759   5.682 -27.290  1.00  0.00     0.217 HD
ENDBRANCH  28  29
ENDBRANCH   1  22
TORSDOF 4
ENDMDL
MODEL 4
REMARK VINA RESULT:      -8.3      4.090      5.138
REMARK  4 active torsions:
REMARK  status: ('A' for Active; 'I' for Inactive)
REMARK    1  A    between atoms: C_4  and  C_5 
REMARK    2  A    between atoms: C_9  and  C_10 
REMARK       I    between atoms: C_10  and  N_11 
REMARK    3  A    between atoms: C_17  and  O_18 
REMARK    4  A    between atoms: C_25  and  O_26 
ROOT
HETATM    1  C   UNL     1      -5.413   4.765 -33.601  1.00  0.00     0.065 A 
HETATM    2  N   UNL     1      -6.295   5.777 -33.870  1.00  0.00    -0.277 N 
HETATM    3  H   UNL     1      -6.080   6.745 -34.088  1.00  0.00     0.189 HD
HETATM    4  N   UNL     1      -7.582   5.401 -33.860  1.00  0.00    -0.169 NA
HETATM    5  C   UNL     1      -7.553   4.091 -33.544  1.00  0.00     0.149 A 
HETATM    6  C   UNL     1      -6.207   3.658 -33.377  1.00  0.00     0.071 A 
ENDROOT
BRANCH   5   7
HETATM    7  C   UNL     1      -8.754   3.239 -33.422  1.00  0.00     0.299 C 
HETATM    8  N   UNL     1      -9.739   3.794 -32.646  1.00  0.00    -0.183 NA
HETATM    9  C   UNL     1     -10.935   3.367 -32.821  1.00  0.00     0.175 A 
HETATM   10  S   UNL     1     -12.235   4.069 -31.805  1.00  0.00    -0.050 SA
HETATM   11  N   UNL     1     -11.457   2.413 -33.665  1.00  0.00    -0.334 N 
HETATM   12  C   UNL     1     -13.424   2.940 -32.503  1.00  0.00     0.037 A 
HETATM   13  C   UNL     1     -12.804   2.117 -33.453  1.00  0.00     0.051 A 
HETATM   14  C   UNL     1     -14.771   2.825 -32.208  1.00  0.00     0.058 A 
HETATM   15  C   UNL     1     -13.552   1.191 -34.156  1.00  0.00     0.034 A 
HETATM   16  C   UNL     1     -14.919   1.064 -33.870  1.00  0.00     0.039 A 
HETATM   17  C   UNL     1     -15.529   1.874 -32.897  1.00  0.00     0.069 A 
HETATM   18  H   UNL     1     -10.832   1.766 -34.130  1.00  0.00     0.168 HD
HETATM   19  O   UNL     1      -8.827   2.142 -33.976  1.00  0.00    -0.263 OA
BRANCH  17  20
HETATM   20  O   UNL     1     -16.850   1.836 -32.539  1.00  0.00    -0.356 OA
HETATM   21  C   UNL     1     -17.481   3.080 -32.262  1.00  0.00     0.210 C 
ENDBRANCH  17  20
ENDBRANCH   5   7
BRANCH   1  22
HETATM   22  C   UNL     1      -3.965   4.948 -33.577  1.00  0.00     0.026 A 
HETATM   23  C   UNL     1      -3.276   4.830 -32.357  1.00  0.00     0.023 A 
HETATM   24  C   UNL     1      -1.884   4.994 -32.287  1.00  0.00    -0.061 A 
HETATM   25  C   UNL     1      -1.161   4.833 -30.983  1.00  0.00     0.048 C 
HETATM   26  C   UNL     1      -1.169   5.247 -33.461  1.00  0.00     0.009 A 
HETATM   27  C   UNL     1      -1.836   5.365 -34.680  1.00  0.00     0.038 A 
HETATM   28  C   UNL     1      -3.221   5.227 -34.734  1.00  0.00     0.078 A 
BRANCH  28  29
HETATM   29  O   UNL     1      -3.790   5.405 -35.966  1.00  0.00    -0.360 OA
HETATM   30  H   UNL     1      -4.277   6.245 -35.961  1.00  0.00     0.217 HD
ENDBRANCH  28  29
ENDBRANCH   1  22
TORSDOF 4
ENDMDL
MODEL 5
REMARK VINA RESULT:      -8.3      6.444      8.266
REMARK  4 active torsions:
REMARK  status: ('A' for Active; 'I' for Inactive)
REMARK    1  A    between atoms: C_4  and  C_5 
REMARK    2  A    between atoms: C_9  and  C_10 
REMARK       I    between atoms: C_10  and  N_11 
REMARK    3  A    between atoms: C_17  and  O_18 
REMARK    4  A    between atoms: C_25  and  O_26 
ROOT
HETATM    1  C   UNL     1      -1.818   5.447 -31.381  1.00  0.00     0.065 A 
HETATM    2  N   UNL     1      -1.226   5.000 -32.533  1.00  0.00    -0.277 N 
HETATM    3  H   UNL     1      -0.242   5.036 -32.778  1.00  0.00     0.189 HD
HETATM    4  N   UNL     1      -2.075   4.434 -33.402  1.00  0.00    -0.169 NA
HETATM    5  C   UNL     1      -3.284   4.533 -32.814  1.00  0.00     0.149 A 
HETATM    6  C   UNL     1      -3.159   5.163 -31.543  1.00  0.00     0.071 A 
ENDROOT
BRANCH   5   7
HETATM    7  C   UNL     1      -4.541   4.031 -33.406  1.00  0.00     0.299 C 
HETATM    8  N   UNL     1      -4.953   2.836 -32.872  1.00  0.00    -0.183 NA
HETATM    9  C   UNL     1      -6.196   2.540 -32.987  1.00  0.00     0.175 A 
HETATM   10  S   UNL     1      -6.752   0.975 -32.310  1.00  0.00    -0.050 SA
HETATM   11  N   UNL     1      -7.249   3.204 -33.572  1.00  0.00    -0.334 N 
HETATM   12  C   UNL     1      -8.389   1.248 -32.960  1.00  0.00     0.037 A 
HETATM   13  C   UNL     1      -8.440   2.479 -33.628  1.00  0.00     0.051 A 
HETATM   14  C   UNL     1      -9.496   0.423 -32.866  1.00  0.00     0.058 A 
HETATM   15  C   UNL     1      -9.633   2.917 -34.176  1.00  0.00     0.034 A 
HETATM   16  C   UNL     1     -10.763   2.093 -34.088  1.00  0.00     0.039 A 
HETATM   17  C   UNL     1     -10.698   0.848 -33.439  1.00  0.00     0.069 A 
HETATM   18  H   UNL     1      -7.063   3.979 -34.196  1.00  0.00     0.168 HD
HETATM   19  O   UNL     1      -5.132   4.649 -34.290  1.00  0.00    -0.263 OA
BRANCH  17  20
HETATM   20  O   UNL     1     -11.736  -0.032 -33.294  1.00  0.00    -0.356 OA
HETATM   21  C   UNL     1     -13.018   0.399 -33.736  1.00  0.00     0.210 C 
ENDBRANCH  17  20
ENDBRANCH   5   7
BRANCH   1  22
HETATM   22  C   UNL     1      -1.078   6.081 -30.294  1.00  0.00     0.026 A 
HETATM   23  C   UNL     1      -1.436   7.377 -29.881  1.00  0.00     0.023 A 
HETATM   24  C   UNL     1      -0.756   8.023 -28.838  1.00  0.00    -0.061 A 
HETATM   25  C   UNL     1      -1.171   9.393 -28.389  1.00  0.00     0.048 C 
HETATM   26  C   UNL     1       0.275   7.348 -28.176  1.00  0.00     0.009 A 
HETATM   27  C   UNL     1       0.641   6.063 -28.571  1.00  0.00     0.038 A 
HETATM   28  C   UNL     1      -0.023   5.441 -29.626  1.00  0.00     0.078 A 
BRANCH  28  29
HETATM   29  O   UNL     1       0.437   4.198 -29.969  1.00  0.00    -0.360 OA
HETATM   30  H   UNL     1       1.373   4.276 -30.218  1.00  0.00     0.217 HD
ENDBRANCH  28  29
ENDBRANCH   1  22
TORSDOF 4
ENDMDL
MODEL 6
REMARK VINA RESULT:      -8.3      5.417      6.688
REMARK  4 active torsions:
REMARK  status: ('A' for Active; 'I' for Inactive)
REMARK    1  A    between atoms: C_4  and  C_5 
REMARK    2  A    between atoms: C_9  and  C_10 
REMARK       I    between atoms: C_10  and  N_11 
REMARK    3  A    between atoms: C_17  and  O_18 
REMARK    4  A    between atoms: C_25  and  O_26 
ROOT
HETATM    1  C   UNL     1      -3.370   5.335 -33.057  1.00  0.00     0.065 A 
HETATM    2  N   UNL     1      -3.767   5.346 -34.368  1.00  0.00    -0.277 N 
HETATM    3  H   UNL     1      -3.239   5.671 -35.172  1.00  0.00     0.189 HD
HETATM    4  N   UNL     1      -4.990   4.838 -34.576  1.00  0.00    -0.169 NA
HETATM    5  C   UNL     1      -5.434   4.501 -33.349  1.00  0.00     0.149 A 
HETATM    6  C   UNL     1      -4.441   4.797 -32.372  1.00  0.00     0.071 A 
ENDROOT
BRANCH   5   7
HETATM    7  C   UNL     1      -6.751   3.888 -33.081  1.00  0.00     0.299 C 
HETATM    8  N   UNL     1      -7.769   4.444 -33.813  1.00  0.00    -0.183 NA
HETATM    9  C   UNL     1      -8.825   3.736 -33.983  1.00  0.00     0.175 A 
HETATM   10  S   UNL     1     -10.173   4.451 -34.923  1.00  0.00    -0.050 SA
HETATM   11  N   UNL     1      -9.164   2.473 -33.553  1.00  0.00    -0.334 N 
HETATM   12  C   UNL     1     -11.193   3.028 -34.589  1.00  0.00     0.037 A 
HETATM   13  C   UNL     1     -10.483   2.100 -33.816  1.00  0.00     0.051 A 
HETATM   14  C   UNL     1     -12.496   2.795 -34.993  1.00  0.00     0.058 A 
HETATM   15  C   UNL     1     -11.068   0.894 -33.475  1.00  0.00     0.034 A 
HETATM   16  C   UNL     1     -12.387   0.643 -33.878  1.00  0.00     0.039 A 
HETATM   17  C   UNL     1     -13.103   1.589 -34.631  1.00  0.00     0.069 A 
HETATM   18  H   UNL     1      -8.617   2.032 -32.824  1.00  0.00     0.168 HD
HETATM   19  O   UNL     1      -6.884   2.971 -32.271  1.00  0.00    -0.263 OA
BRANCH  17  20
HETATM   20  O   UNL     1     -14.390   1.448 -35.076  1.00  0.00    -0.356 OA
HETATM   21  C   UNL     1     -15.208   0.500 -34.401  1.00  0.00     0.210 C 
ENDBRANCH  17  20
ENDBRANCH   5   7
BRANCH   1  22
HETATM   22  C   UNL     1      -2.070   5.825 -32.608  1.00  0.00     0.026 A 
HETATM   23  C   UNL     1      -1.438   5.200 -31.518  1.00  0.00     0.023 A 
HETATM   24  C   UNL     1      -0.187   5.635 -31.055  1.00  0.00    -0.061 A 
HETATM   25  C   UNL     1       0.489   4.938 -29.912  1.00  0.00     0.048 C 
HETATM   26  C   UNL     1       0.455   6.688 -31.715  1.00  0.00     0.009 A 
HETATM   27  C   UNL     1      -0.157   7.317 -32.798  1.00  0.00     0.038 A 
HETATM   28  C   UNL     1      -1.411   6.895 -33.232  1.00  0.00     0.078 A 
BRANCH  28  29
HETATM   29  O   UNL     1      -1.950   7.602 -34.273  1.00  0.00    -0.360 OA
HETATM   30  H   UNL     1      -1.943   8.545 -34.039  1.00  0.00     0.217 HD
ENDBRANCH  28  29
ENDBRANCH   1  22
TORSDOF 4
ENDMDL
MODEL 7
REMARK VINA RESULT:      -7.9      2.347      2.433
REMARK  4 active torsions:
REMARK  status: ('A' for Active; 'I' for Inactive)
REMARK    1  A    between atoms: C_4  and  C_5 
REMARK    2  A    between atoms: C_9  and  C_10 
REMARK       I    between atoms: C_10  and  N_11 
REMARK    3  A    between atoms: C_17  and  O_18 
REMARK    4  A    between atoms: C_25  and  O_26 
ROOT
HETATM    1  C   UNL     1      -6.116  -0.230 -33.126  1.00  0.00     0.065 A 
HETATM    2  N   UNL     1      -5.403   0.939 -33.169  1.00  0.00    -0.277 N 
HETATM    3  H   UNL     1      -4.439   1.066 -33.462  1.00  0.00     0.189 HD
HETATM    4  N   UNL     1      -6.100   2.022 -32.798  1.00  0.00    -0.169 NA
HETATM    5  C   UNL     1      -7.318   1.549 -32.469  1.00  0.00     0.149 A 
HETATM    6  C   UNL     1      -7.364   0.139 -32.665  1.00  0.00     0.071 A 
ENDROOT
BRANCH   5   7
HETATM    7  C   UNL     1      -8.439   2.390 -32.003  1.00  0.00     0.299 C 
HETATM    8  N   UNL     1      -9.089   3.043 -33.019  1.00  0.00    -0.183 NA
HETATM    9  C   UNL     1     -10.290   3.432 -32.794  1.00  0.00     0.175 A 
HETATM   10  S   UNL     1     -11.151   4.301 -34.105  1.00  0.00    -0.050 SA
HETATM   11  N   UNL     1     -11.097   3.329 -31.684  1.00  0.00    -0.334 N 
HETATM   12  C   UNL     1     -12.545   4.588 -33.032  1.00  0.00     0.037 A 
HETATM   13  C   UNL     1     -12.307   4.019 -31.774  1.00  0.00     0.051 A 
HETATM   14  C   UNL     1     -13.720   5.261 -33.317  1.00  0.00     0.058 A 
HETATM   15  C   UNL     1     -13.280   4.083 -30.792  1.00  0.00     0.034 A 
HETATM   16  C   UNL     1     -14.476   4.760 -31.067  1.00  0.00     0.039 A 
HETATM   17  C   UNL     1     -14.698   5.351 -32.322  1.00  0.00     0.069 A 
HETATM   18  H   UNL     1     -10.687   3.079 -30.793  1.00  0.00     0.168 HD
HETATM   19  O   UNL     1      -8.732   2.474 -30.810  1.00  0.00    -0.263 OA
BRANCH  17  20
HETATM   20  O   UNL     1     -15.825   6.032 -32.697  1.00  0.00    -0.356 OA
HETATM   21  C   UNL     1     -16.120   7.232 -31.992  1.00  0.00     0.210 C 
ENDBRANCH  17  20
ENDBRANCH   5   7
BRANCH   1  22
HETATM   22  C   UNL     1      -5.558  -1.525 -33.502  1.00  0.00     0.026 A 
HETATM   23  C   UNL     1      -6.304  -2.382 -34.330  1.00  0.00     0.023 A 
HETATM   24  C   UNL     1      -5.805  -3.634 -34.721  1.00  0.00    -0.061 A 
HETATM   25  C   UNL     1      -6.600  -4.523 -35.631  1.00  0.00     0.048 C 
HETATM   26  C   UNL     1      -4.527  -4.018 -34.304  1.00  0.00     0.009 A 
HETATM   27  C   UNL     1      -3.773  -3.179 -33.485  1.00  0.00     0.038 A 
HETATM   28  C   UNL     1      -4.289  -1.950 -33.081  1.00  0.00     0.078 A 
BRANCH  28  29
HETATM   29  O   UNL     1      -3.493  -1.217 -32.241  1.00  0.00    -0.360 OA
HETATM   30  H   UNL     1      -3.277  -0.378 -32.678  1.00  0.00     0.217 HD
ENDBRANCH  28  29
ENDBRANCH   1  22
TORSDOF 4
ENDMDL
MODEL 8
REMARK VINA RESULT:      -7.9      6.560      7.666
REMARK  4 active torsions:
REMARK  status: ('A' for Active; 'I' for Inactive)
REMARK    1  A    between atoms: C_4  and  C_5 
REMARK    2  A    between atoms: C_9  and  C_10 
REMARK       I    between atoms: C_10  and  N_11 
REMARK    3  A    between atoms: C_17  and  O_18 
REMARK    4  A    between atoms: C_25  and  O_26 
ROOT
HETATM    1  C   UNL     1      -4.354  -0.854 -32.856  1.00  0.00     0.065 A 
HETATM    2  N   UNL     1      -3.205  -0.124 -32.699  1.00  0.00    -0.277 N 
HETATM    3  H   UNL     1      -2.249  -0.439 -32.825  1.00  0.00     0.189 HD
HETATM    4  N   UNL     1      -3.411   1.158 -32.363  1.00  0.00    -0.169 NA
HETATM    5  C   UNL     1      -4.750   1.276 -32.267  1.00  0.00     0.149 A 
HETATM    6  C   UNL     1      -5.374   0.032 -32.572  1.00  0.00     0.071 A 
ENDROOT
BRANCH   5   7
HETATM    7  C   UNL     1      -5.453   2.529 -31.922  1.00  0.00     0.299 C 
HETATM    8  N   UNL     1      -4.620   3.500 -31.426  1.00  0.00    -0.183 NA
HETATM    9  C   UNL     1      -5.024   4.715 -31.504  1.00  0.00     0.175 A 
HETATM   10  S   UNL     1      -3.957   5.998 -30.848  1.00  0.00    -0.050 SA
HETATM   11  N   UNL     1      -6.181   5.269 -32.001  1.00  0.00    -0.334 N 
HETATM   12  C   UNL     1      -5.198   7.233 -31.180  1.00  0.00     0.037 A 
HETATM   13  C   UNL     1      -6.323   6.638 -31.766  1.00  0.00     0.051 A 
HETATM   14  C   UNL     1      -5.141   8.593 -30.928  1.00  0.00     0.058 A 
HETATM   15  C   UNL     1      -7.396   7.421 -32.151  1.00  0.00     0.034 A 
HETATM   16  C   UNL     1      -7.353   8.800 -31.904  1.00  0.00     0.039 A 
HETATM   17  C   UNL     1      -6.232   9.387 -31.292  1.00  0.00     0.069 A 
HETATM   18  H   UNL     1      -6.977   4.672 -32.190  1.00  0.00     0.168 HD
HETATM   19  O   UNL     1      -6.667   2.653 -32.076  1.00  0.00    -0.263 OA
BRANCH  17  20
HETATM   20  O   UNL     1      -6.084  10.717 -31.006  1.00  0.00    -0.356 OA
HETATM   21  C   UNL     1      -4.794  11.149 -30.586  1.00  0.00     0.210 C 
ENDBRANCH  17  20
ENDBRANCH   5   7
BRANCH   1  22
HETATM   22  C   UNL     1      -4.362  -2.264 -33.235  1.00  0.00     0.026 A 
HETATM   23  C   UNL     1      -5.270  -2.708 -34.212  1.00  0.00     0.023 A 
HETATM   24  C   UNL     1      -5.311  -4.054 -34.610  1.00  0.00    -0.061 A 
HETATM   25  C   UNL     1      -6.264  -4.506 -35.676  1.00  0.00     0.048 C 
HETATM   26  C   UNL     1      -4.405  -4.958 -34.047  1.00  0.00     0.009 A 
HETATM   27  C   UNL     1      -3.496  -4.532 -33.079  1.00  0.00     0.038 A 
HETATM   28  C   UNL     1      -3.483  -3.201 -32.671  1.00  0.00     0.078 A 
BRANCH  28  29
HETATM   29  O   UNL     1      -2.586  -2.889 -31.685  1.00  0.00    -0.360 OA
HETATM   30  H   UNL     1      -2.091  -2.100 -31.958  1.00  0.00     0.217 HD
ENDBRANCH  28  29
ENDBRANCH   1  22
TORSDOF 4
ENDMDL
MODEL 9
REMARK VINA RESULT:      -7.9      6.045      6.457
REMARK  4 active torsions:
REMARK  status: ('A' for Active; 'I' for Inactive)
REMARK    1  A    between atoms: C_4  and  C_5 
REMARK    2  A    between atoms: C_9  and  C_10 
REMARK       I    between atoms: C_10  and  N_11 
REMARK    3  A    between atoms: C_17  and  O_18 
REMARK    4  A    between atoms: C_25  and  O_26 
ROOT
HETATM    1  C   UNL     1      -4.291  -0.868 -32.979  1.00  0.00     0.065 A 
HETATM    2  N   UNL     1      -3.150  -0.202 -32.617  1.00  0.00    -0.277 N 
HETATM    3  H   UNL     1      -2.213  -0.581 -32.530  1.00  0.00     0.189 HD
HETATM    4  N   UNL     1      -3.329   1.107 -32.383  1.00  0.00    -0.169 NA
HETATM    5  C   UNL     1      -4.648   1.311 -32.571  1.00  0.00     0.149 A 
HETATM    6  C   UNL     1      -5.282   0.093 -32.948  1.00  0.00     0.071 A 
ENDROOT
BRANCH   5   7
HETATM    7  C   UNL     1      -5.315   2.621 -32.430  1.00  0.00     0.299 C 
HETATM    8  N   UNL     1      -6.250   2.650 -31.427  1.00  0.00    -0.183 NA
HETATM    9  C   UNL     1      -6.560   3.798 -30.946  1.00  0.00     0.175 A 
HETATM   10  S   UNL     1      -7.792   3.858 -29.644  1.00  0.00    -0.050 SA
HETATM   11  N   UNL     1      -6.131   5.069 -31.251  1.00  0.00    -0.334 N 
HETATM   12  C   UNL     1      -7.749   5.639 -29.653  1.00  0.00     0.037 A 
HETATM   13  C   UNL     1      -6.824   6.092 -30.603  1.00  0.00     0.051 A 
HETATM   14  C   UNL     1      -8.485   6.517 -28.876  1.00  0.00     0.058 A 
HETATM   15  C   UNL     1      -6.593   7.449 -30.750  1.00  0.00     0.034 A 
HETATM   16  C   UNL     1      -7.329   8.350 -29.968  1.00  0.00     0.039 A 
HETATM   17  C   UNL     1      -8.275   7.890 -29.036  1.00  0.00     0.069 A 
HETATM   18  H   UNL     1      -5.619   5.228 -32.110  1.00  0.00     0.168 HD
HETATM   19  O   UNL     1      -5.035   3.571 -33.160  1.00  0.00    -0.263 OA
BRANCH  17  20
HETATM   20  O   UNL     1      -9.045   8.678 -28.224  1.00  0.00    -0.356 OA
HETATM   21  C   UNL     1      -9.783   8.024 -27.198  1.00  0.00     0.210 C 
ENDBRANCH  17  20
ENDBRANCH   5   7
BRANCH   1  22
HETATM   22  C   UNL     1      -4.322  -2.293 -33.294  1.00  0.00     0.026 A 
HETATM   23  C   UNL     1      -5.220  -2.763 -34.268  1.00  0.00     0.023 A 
HETATM   24  C   UNL     1      -5.281  -4.124 -34.605  1.00  0.00    -0.061 A 
HETATM   25  C   UNL     1      -6.224  -4.605 -35.669  1.00  0.00     0.048 C 
HETATM   26  C   UNL     1      -4.406  -5.020 -33.984  1.00  0.00     0.009 A 
HETATM   27  C   UNL     1      -3.507  -4.569 -33.018  1.00  0.00     0.038 A 
HETATM   28  C   UNL     1      -3.473  -3.221 -32.671  1.00  0.00     0.078 A 
BRANCH  28  29
HETATM   29  O   UNL     1      -2.590  -2.883 -31.681  1.00  0.00    -0.360 OA
HETATM   30  H   UNL     1      -2.712  -3.496 -30.938  1.00  0.00     0.217 HD
ENDBRANCH  28  29
ENDBRANCH   1  22
TORSDOF 4
ENDMDL
MODEL 10
REMARK VINA RESULT:      -7.9      3.468      3.956
REMARK  4 active torsions:
REMARK  status: ('A' for Active; 'I' for Inactive)
REMARK    1  A    between atoms: C_4  and  C_5 
REMARK    2  A    between atoms: C_9  and  C_10 
REMARK       I    between atoms: C_10  and  N_11 
REMARK    3  A    between atoms: C_17  and  O_18 
REMARK    4  A    between atoms: C_25  and  O_26 
ROOT
HETATM    1  C   UNL     1      -7.697  -0.202 -33.477  1.00  0.00     0.065 A 
HETATM    2  N   UNL     1      -7.929   0.264 -32.210  1.00  0.00    -0.277 N 
HETATM    3  H   UNL     1      -7.424   0.028 -31.362  1.00  0.00     0.189 HD
HETATM    4  N   UNL     1      -8.930   1.151 -32.126  1.00  0.00    -0.169 NA
HETATM    5  C   UNL     1      -9.400   1.257 -33.384  1.00  0.00     0.149 A 
HETATM    6  C   UNL     1      -8.647   0.423 -34.259  1.00  0.00     0.071 A 
ENDROOT
BRANCH   5   7
HETATM    7  C   UNL     1     -10.516   2.138 -33.784  1.00  0.00     0.299 C 
HETATM    8  N   UNL     1     -10.545   3.325 -33.096  1.00  0.00    -0.183 NA
HETATM    9  C   UNL     1     -11.172   4.303 -33.640  1.00  0.00     0.175 A 
HETATM   10  S   UNL     1     -11.234   5.859 -32.750  1.00  0.00    -0.050 SA
HETATM   11  N   UNL     1     -11.861   4.408 -34.826  1.00  0.00    -0.334 N 
HETATM   12  C   UNL     1     -12.304   6.555 -33.993  1.00  0.00     0.037 A 
HETATM   13  C   UNL     1     -12.547   5.611 -35.001  1.00  0.00     0.051 A 
HETATM   14  C   UNL     1     -12.856   7.823 -34.035  1.00  0.00     0.058 A 
HETATM   15  C   UNL     1     -13.320   5.954 -36.095  1.00  0.00     0.034 A 
HETATM   16  C   UNL     1     -13.885   7.235 -36.152  1.00  0.00     0.039 A 
HETATM   17  C   UNL     1     -13.659   8.169 -35.126  1.00  0.00     0.069 A 
HETATM   18  H   UNL     1     -12.118   3.567 -35.328  1.00  0.00     0.168 HD
HETATM   19  O   UNL     1     -11.324   1.806 -34.651  1.00  0.00    -0.263 OA
BRANCH  17  20
HETATM   20  O   UNL     1     -14.158   9.443 -35.081  1.00  0.00    -0.356 OA
HETATM   21  C   UNL     1     -14.532  10.035 -36.319  1.00  0.00     0.210 C 
ENDBRANCH  17  20
ENDBRANCH   5   7
BRANCH   1  22
HETATM   22  C   UNL     1      -6.644  -1.162 -33.799  1.00  0.00     0.026 A 
HETATM   23  C   UNL     1      -6.986  -2.372 -34.427  1.00  0.00     0.023 A 
HETATM   24  C   UNL     1      -6.007  -3.322 -34.759  1.00  0.00    -0.061 A 
HETATM   25  C   UNL     1      -6.384  -4.595 -35.457  1.00  0.00     0.048 C 
HETATM   26  C   UNL     1      -4.664  -3.039 -34.488  1.00  0.00     0.009 A 
HETATM   27  C   UNL     1      -4.309  -1.842 -33.868  1.00  0.00     0.038 A 
HETATM   28  C   UNL     1      -5.291  -0.918 -33.519  1.00  0.00     0.078 A 
BRANCH  28  29
HETATM   29  O   UNL     1      -4.850   0.205 -32.874  1.00  0.00    -0.360 OA
HETATM   30  H   UNL     1      -4.400  -0.066 -32.057  1.00  0.00     0.217 HD
ENDBRANCH  28  29
ENDBRANCH   1  22
TORSDOF 4
ENDMDL
