MODEL 1
REMARK VINA RESULT:      -8.7      0.000      0.000
REMARK  4 active torsions:
REMARK  status: ('A' for Active; 'I' for Inactive)
REMARK    1  A    between atoms: N_2  and  C_3 
REMARK    2  A    between atoms: C_5  and  C_6 
REMARK    3  A    between atoms: C_6  and  C_7 
REMARK    4  A    between atoms: C_13  and  O_14 
ROOT
HETATM    1  C   UNL     1      -4.709  -1.272 -33.795  1.00  0.00     0.113 A 
HETATM    2  N   UNL     1      -5.720  -0.381 -33.859  1.00  0.00    -0.223 NA
HETATM    3  C   UNL     1      -6.931  -0.804 -34.307  1.00  0.00     0.106 A 
HETATM    4  N   UNL     1      -7.175  -2.067 -34.696  1.00  0.00    -0.347 N 
HETATM    5  H   UNL     1      -8.094  -2.318 -35.072  1.00  0.00     0.167 HD
HETATM    6  C   UNL     1      -6.180  -2.947 -34.634  1.00  0.00     0.020 A 
HETATM    7  C   UNL     1      -4.927  -2.577 -34.178  1.00  0.00     0.005 A 
HETATM    8  C   UNL     1      -3.987  -3.738 -34.231  1.00  0.00     0.044 C 
HETATM    9  C   UNL     1      -4.968  -4.917 -34.376  1.00  0.00     0.011 C 
HETATM   10  C   UNL     1      -6.226  -4.374 -35.073  1.00  0.00     0.058 C 
ENDROOT
BRANCH   3  11
HETATM   11  C   UNL     1      -8.043   0.201 -34.406  1.00  0.00     0.085 C 
BRANCH  11  12
HETATM   12  C   UNL     1      -8.510   0.786 -33.046  1.00  0.00     0.021 C 
HETATM   13  C   UNL     1      -8.738   2.297 -33.063  1.00  0.00     0.181 C 
HETATM   14  O   UNL     1      -9.550   2.644 -34.192  1.00  0.00    -0.347 OA
HETATM   15  C   UNL     1     -10.760   1.980 -34.192  1.00  0.00     0.108 A 
HETATM   16  C   UNL     1     -10.967   0.788 -33.475  1.00  0.00    -0.021 A 
HETATM   17  C   UNL     1     -11.773   2.487 -35.010  1.00  0.00     0.102 A 
HETATM   18  C   UNL     1      -9.861   0.171 -32.654  1.00  0.00     0.048 C 
HETATM   19  C   UNL     1     -12.217   0.159 -33.541  1.00  0.00     0.010 A 
HETATM   20  C   UNL     1     -13.228   0.680 -34.352  1.00  0.00     0.003 A 
HETATM   21  C   UNL     1     -13.000   1.833 -35.102  1.00  0.00     0.039 A 
BRANCH  17  22
HETATM   22  O   UNL     1     -11.556   3.587 -35.798  1.00  0.00    -0.353 OA
HETATM   23  C   UNL     1     -12.406   4.661 -35.388  1.00  0.00     0.210 C 
ENDBRANCH  17  22
ENDBRANCH  11  12
ENDBRANCH   3  11
BRANCH   1  24
HETATM   24  N   UNL     1      -3.476  -0.903 -33.269  1.00  0.00    -0.281 NA
HETATM   25  C   UNL     1      -3.359  -0.926 -31.818  1.00  0.00     0.114 C 
HETATM   26  H   UNL     1      -3.134  -0.031 -33.664  1.00  0.00     0.128 HD
ENDBRANCH   1  24
TORSDOF 4
ENDMDL
MODEL 2
REMARK VINA RESULT:      -8.3      4.735      7.288
REMARK  4 active torsions:
REMARK  status: ('A' for Active; 'I' for Inactive)
REMARK    1  A    between atoms: N_2  and  C_3 
REMARK    2  A    between atoms: C_5  and  C_6 
REMARK    3  A    between atoms: C_6  and  C_7 
REMARK    4  A    between atoms: C_13  and  O_14 
ROOT
HETATM    1  C   UNL     1      -6.989  -0.512 -33.489  1.00  0.00     0.113 A 
HETATM    2  N   UNL     1      -6.233   0.506 -33.028  1.00  0.00    -0.223 NA
HETATM    3  C   UNL     1      -4.882   0.369 -33.036  1.00  0.00     0.106 A 
HETATM    4  N   UNL     1      -4.254  -0.736 -33.476  1.00  0.00    -0.347 N 
HETATM    5  H   UNL     1      -3.234  -0.804 -33.413  1.00  0.00     0.167 HD
HETATM    6  C   UNL     1      -4.996  -1.741 -33.931  1.00  0.00     0.020 A 
HETATM    7  C   UNL     1      -6.378  -1.655 -33.955  1.00  0.00     0.005 A 
HETATM    8  C   UNL     1      -6.971  -2.920 -34.486  1.00  0.00     0.044 C 
HETATM    9  C   UNL     1      -5.746  -3.575 -35.152  1.00  0.00     0.011 C 
HETATM   10  C   UNL     1      -4.501  -3.068 -34.405  1.00  0.00     0.058 C 
ENDROOT
BRANCH   3  11
HETATM   11  C   UNL     1      -4.049   1.493 -32.491  1.00  0.00     0.085 C 
BRANCH  11  12
HETATM   12  C   UNL     1      -4.852   2.762 -32.098  1.00  0.00     0.021 C 
HETATM   13  C   UNL     1      -4.252   3.542 -30.928  1.00  0.00     0.181 C 
HETATM   14  O   UNL     1      -2.853   3.749 -31.161  1.00  0.00    -0.347 OA
HETATM   15  C   UNL     1      -2.610   4.409 -32.348  1.00  0.00     0.108 A 
HETATM   16  C   UNL     1      -3.544   4.439 -33.399  1.00  0.00    -0.021 A 
HETATM   17  C   UNL     1      -1.350   4.989 -32.516  1.00  0.00     0.102 A 
HETATM   18  C   UNL     1      -4.878   3.745 -33.277  1.00  0.00     0.048 C 
HETATM   19  C   UNL     1      -3.218   5.113 -34.584  1.00  0.00     0.010 A 
HETATM   20  C   UNL     1      -1.960   5.701 -34.738  1.00  0.00     0.003 A 
HETATM   21  C   UNL     1      -1.018   5.622 -33.713  1.00  0.00     0.039 A 
BRANCH  17  22
HETATM   22  O   UNL     1      -0.390   4.879 -31.545  1.00  0.00    -0.353 OA
HETATM   23  C   UNL     1      -0.008   6.176 -31.081  1.00  0.00     0.210 C 
ENDBRANCH  17  22
ENDBRANCH  11  12
ENDBRANCH   3  11
BRANCH   1  24
HETATM   24  N   UNL     1      -8.370  -0.384 -33.572  1.00  0.00    -0.281 NA
HETATM   25  C   UNL     1      -8.886   0.967 -33.734  1.00  0.00     0.114 C 
HETATM   26  H   UNL     1      -8.849  -0.887 -32.831  1.00  0.00     0.128 HD
ENDBRANCH   1  24
TORSDOF 4
ENDMDL
MODEL 3
REMARK VINA RESULT:      -8.2      2.975      7.707
REMARK  4 active torsions:
REMARK  status: ('A' for Active; 'I' for Inactive)
REMARK    1  A    between atoms: N_2  and  C_3 
REMARK    2  A    between atoms: C_5  and  C_6 
REMARK    3  A    between atoms: C_6  and  C_7 
REMARK    4  A    between atoms: C_13  and  O_14 
ROOT
HETATM    1  C   UNL     1     -11.866   2.923 -33.353  1.00  0.00     0.113 A 
HETATM    2  N   UNL     1     -10.548   2.649 -33.259  1.00  0.00    -0.223 NA
HETATM    3  C   UNL     1     -10.150   1.350 -33.290  1.00  0.00     0.106 A 
HETATM    4  N   UNL     1     -11.004   0.318 -33.405  1.00  0.00    -0.347 N 
HETATM    5  H   UNL     1     -10.652  -0.643 -33.373  1.00  0.00     0.167 HD
HETATM    6  C   UNL     1     -12.303   0.585 -33.498  1.00  0.00     0.020 A 
HETATM    7  C   UNL     1     -12.768   1.889 -33.481  1.00  0.00     0.005 A 
HETATM    8  C   UNL     1     -14.259   1.914 -33.574  1.00  0.00     0.044 C 
HETATM    9  C   UNL     1     -14.558   0.487 -34.069  1.00  0.00     0.011 C 
HETATM   10  C   UNL     1     -13.413  -0.412 -33.572  1.00  0.00     0.058 C 
ENDROOT
BRANCH   3  11
HETATM   11  C   UNL     1      -8.685   1.052 -33.152  1.00  0.00     0.085 C 
BRANCH  11  12
HETATM   12  C   UNL     1      -7.818   1.497 -34.359  1.00  0.00     0.021 C 
HETATM   13  C   UNL     1      -6.465   2.094 -33.970  1.00  0.00     0.181 C 
HETATM   14  O   UNL     1      -5.814   1.227 -33.032  1.00  0.00    -0.347 OA
HETATM   15  C   UNL     1      -5.645  -0.050 -33.527  1.00  0.00     0.108 A 
HETATM   16  C   UNL     1      -6.423  -0.559 -34.583  1.00  0.00    -0.021 A 
HETATM   17  C   UNL     1      -4.720  -0.874 -32.881  1.00  0.00     0.102 A 
HETATM   18  C   UNL     1      -7.491   0.281 -35.239  1.00  0.00     0.048 C 
HETATM   19  C   UNL     1      -6.208  -1.874 -35.018  1.00  0.00     0.010 A 
HETATM   20  C   UNL     1      -5.271  -2.686 -34.374  1.00  0.00     0.003 A 
HETATM   21  C   UNL     1      -4.541  -2.194 -33.293  1.00  0.00     0.039 A 
BRANCH  17  22
HETATM   22  O   UNL     1      -4.030  -0.431 -31.783  1.00  0.00    -0.353 OA
HETATM   23  C   UNL     1      -2.664  -0.849 -31.860  1.00  0.00     0.210 C 
ENDBRANCH  17  22
ENDBRANCH  11  12
ENDBRANCH   3  11
BRANCH   1  24
HETATM   24  N   UNL     1     -12.311   4.238 -33.405  1.00  0.00    -0.281 NA
HETATM   25  C   UNL     1     -12.388   4.843 -34.726  1.00  0.00     0.114 C 
HETATM   26  H   UNL     1     -11.825   4.836 -32.741  1.00  0.00     0.128 HD
ENDBRANCH   1  24
TORSDOF 4
ENDMDL
MODEL 4
REMARK VINA RESULT:      -8.0      1.788      2.861
REMARK  4 active torsions:
REMARK  status: ('A' for Active; 'I' for Inactive)
REMARK    1  A    between atoms: N_2  and  C_3 
REMARK    2  A    between atoms: C_5  and  C_6 
REMARK    3  A    between atoms: C_6  and  C_7 
REMARK    4  A    between atoms: C_13  and  O_14 
ROOT
HETATM    1  C   UNL     1      -4.575  -1.441 -33.611  1.00  0.00     0.113 A 
HETATM    2  N   UNL     1      -5.534  -0.515 -33.814  1.00  0.00    -0.223 NA
HETATM    3  C   UNL     1      -6.670  -0.887 -34.460  1.00  0.00     0.106 A 
HETATM    4  N   UNL     1      -6.887  -2.134 -34.914  1.00  0.00    -0.347 N 
HETATM    5  H   UNL     1      -7.742  -2.346 -35.438  1.00  0.00     0.167 HD
HETATM    6  C   UNL     1      -5.943  -3.048 -34.716  1.00  0.00     0.020 A 
HETATM    7  C   UNL     1      -4.768  -2.730 -34.056  1.00  0.00     0.005 A 
HETATM    8  C   UNL     1      -3.869  -3.922 -33.987  1.00  0.00     0.044 C 
HETATM    9  C   UNL     1      -4.849  -5.063 -34.314  1.00  0.00     0.011 C 
HETATM   10  C   UNL     1      -5.962  -4.464 -35.190  1.00  0.00     0.058 C 
ENDROOT
BRANCH   3  11
HETATM   11  C   UNL     1      -7.720   0.157 -34.711  1.00  0.00     0.085 C 
BRANCH  11  12
HETATM   12  C   UNL     1      -8.823   0.241 -33.622  1.00  0.00     0.021 C 
HETATM   13  C   UNL     1      -8.364   0.895 -32.318  1.00  0.00     0.181 C 
HETATM   14  O   UNL     1      -7.697   2.129 -32.613  1.00  0.00    -0.347 OA
HETATM   15  C   UNL     1      -8.495   2.999 -33.327  1.00  0.00     0.108 A 
HETATM   16  C   UNL     1      -9.605   2.565 -34.074  1.00  0.00    -0.021 A 
HETATM   17  C   UNL     1      -8.113   4.343 -33.359  1.00  0.00     0.102 A 
HETATM   18  C   UNL     1      -9.986   1.106 -34.128  1.00  0.00     0.048 C 
HETATM   19  C   UNL     1     -10.356   3.506 -34.791  1.00  0.00     0.010 A 
HETATM   20  C   UNL     1      -9.974   4.850 -34.807  1.00  0.00     0.003 A 
HETATM   21  C   UNL     1      -8.842   5.266 -34.108  1.00  0.00     0.039 A 
BRANCH  17  22
HETATM   22  O   UNL     1      -6.975   4.767 -32.725  1.00  0.00    -0.353 OA
HETATM   23  C   UNL     1      -5.996   5.166 -33.688  1.00  0.00     0.210 C 
ENDBRANCH  17  22
ENDBRANCH  11  12
ENDBRANCH   3  11
BRANCH   1  24
HETATM   24  N   UNL     1      -3.431  -1.125 -32.887  1.00  0.00    -0.281 NA
HETATM   25  C   UNL     1      -3.640  -0.486 -31.595  1.00  0.00     0.114 C 
HETATM   26  H   UNL     1      -2.744  -0.630 -33.449  1.00  0.00     0.128 HD
ENDBRANCH   1  24
TORSDOF 4
ENDMDL
MODEL 5
REMARK VINA RESULT:      -7.9      3.029      7.459
REMARK  4 active torsions:
REMARK  status: ('A' for Active; 'I' for Inactive)
REMARK    1  A    between atoms: N_2  and  C_3 
REMARK    2  A    between atoms: C_5  and  C_6 
REMARK    3  A    between atoms: C_6  and  C_7 
REMARK    4  A    between atoms: C_13  and  O_14 
ROOT
HETATM    1  C   UNL     1     -11.279   2.650 -33.615  1.00  0.00     0.113 A 
HETATM    2  N   UNL     1     -10.061   2.163 -33.303  1.00  0.00    -0.223 NA
HETATM    3  C   UNL     1      -9.928   0.828 -33.089  1.00  0.00     0.106 A 
HETATM    4  N   UNL     1     -10.954  -0.037 -33.168  1.00  0.00    -0.347 N 
HETATM    5  H   UNL     1     -10.807  -1.027 -32.947  1.00  0.00     0.167 HD
HETATM    6  C   UNL     1     -12.157   0.439 -33.475  1.00  0.00     0.020 A 
HETATM    7  C   UNL     1     -12.351   1.789 -33.712  1.00  0.00     0.005 A 
HETATM    8  C   UNL     1     -13.789   2.066 -34.010  1.00  0.00     0.044 C 
HETATM    9  C   UNL     1     -14.312   0.652 -34.328  1.00  0.00     0.011 C 
HETATM   10  C   UNL     1     -13.429  -0.340 -33.553  1.00  0.00     0.058 C 
ENDROOT
BRANCH   3  11
HETATM   11  C   UNL     1      -8.576   0.299 -32.711  1.00  0.00     0.085 C 
BRANCH  11  12
HETATM   12  C   UNL     1      -7.731  -0.229 -33.901  1.00  0.00     0.021 C 
HETATM   13  C   UNL     1      -7.001   0.865 -34.681  1.00  0.00     0.181 C 
HETATM   14  O   UNL     1      -6.305   1.721 -33.765  1.00  0.00    -0.347 OA
HETATM   15  C   UNL     1      -5.414   1.027 -32.973  1.00  0.00     0.108 A 
HETATM   16  C   UNL     1      -5.522  -0.358 -32.750  1.00  0.00    -0.021 A 
HETATM   17  C   UNL     1      -4.429   1.766 -32.313  1.00  0.00     0.102 A 
HETATM   18  C   UNL     1      -6.630  -1.165 -33.380  1.00  0.00     0.048 C 
HETATM   19  C   UNL     1      -4.591  -0.990 -31.915  1.00  0.00     0.010 A 
HETATM   20  C   UNL     1      -3.601  -0.245 -31.269  1.00  0.00     0.003 A 
HETATM   21  C   UNL     1      -3.531   1.136 -31.452  1.00  0.00     0.039 A 
BRANCH  17  22
HETATM   22  O   UNL     1      -4.373   3.129 -32.433  1.00  0.00    -0.353 OA
HETATM   23  C   UNL     1      -3.030   3.545 -32.696  1.00  0.00     0.210 C 
ENDBRANCH  17  22
ENDBRANCH  11  12
ENDBRANCH   3  11
BRANCH   1  24
HETATM   24  N   UNL     1     -11.446   3.996 -33.919  1.00  0.00    -0.281 NA
HETATM   25  C   UNL     1     -10.939   4.434 -35.211  1.00  0.00     0.114 C 
HETATM   26  H   UNL     1     -11.137   4.602 -33.164  1.00  0.00     0.128 HD
ENDBRANCH   1  24
TORSDOF 4
ENDMDL
MODEL 6
REMARK VINA RESULT:      -7.8      3.848      7.231
REMARK  4 active torsions:
REMARK  status: ('A' for Active; 'I' for Inactive)
REMARK    1  A    between atoms: N_2  and  C_3 
REMARK    2  A    between atoms: C_5  and  C_6 
REMARK    3  A    between atoms: C_6  and  C_7 
REMARK    4  A    between atoms: C_13  and  O_14 
ROOT
HETATM    1  C   UNL     1      -2.871   4.476 -31.292  1.00  0.00     0.113 A 
HETATM    2  N   UNL     1      -2.606   3.197 -31.627  1.00  0.00    -0.223 NA
HETATM    3  C   UNL     1      -3.541   2.500 -32.324  1.00  0.00     0.106 A 
HETATM    4  N   UNL     1      -4.725   3.019 -32.695  1.00  0.00    -0.347 N 
HETATM    5  H   UNL     1      -5.413   2.431 -33.176  1.00  0.00     0.167 HD
HETATM    6  C   UNL     1      -4.989   4.279 -32.366  1.00  0.00     0.020 A 
HETATM    7  C   UNL     1      -4.071   5.042 -31.664  1.00  0.00     0.005 A 
HETATM    8  C   UNL     1      -4.619   6.407 -31.401  1.00  0.00     0.044 C 
HETATM    9  C   UNL     1      -5.788   6.466 -32.402  1.00  0.00     0.011 C 
HETATM   10  C   UNL     1      -6.260   5.020 -32.629  1.00  0.00     0.058 C 
ENDROOT
BRANCH   3  11
HETATM   11  C   UNL     1      -3.252   1.067 -32.665  1.00  0.00     0.085 C 
BRANCH  11  12
HETATM   12  C   UNL     1      -3.566   0.055 -31.530  1.00  0.00     0.021 C 
HETATM   13  C   UNL     1      -5.014   0.096 -31.041  1.00  0.00     0.181 C 
HETATM   14  O   UNL     1      -5.899   0.049 -32.168  1.00  0.00    -0.347 OA
HETATM   15  C   UNL     1      -5.693  -1.068 -32.951  1.00  0.00     0.108 A 
HETATM   16  C   UNL     1      -4.486  -1.791 -32.932  1.00  0.00    -0.021 A 
HETATM   17  C   UNL     1      -6.704  -1.421 -33.847  1.00  0.00     0.102 A 
HETATM   18  C   UNL     1      -3.344  -1.377 -32.037  1.00  0.00     0.048 C 
HETATM   19  C   UNL     1      -4.343  -2.903 -33.772  1.00  0.00     0.010 A 
HETATM   20  C   UNL     1      -5.365  -3.256 -34.656  1.00  0.00     0.003 A 
HETATM   21  C   UNL     1      -6.538  -2.505 -34.709  1.00  0.00     0.039 A 
BRANCH  17  22
HETATM   22  O   UNL     1      -7.843  -0.667 -33.956  1.00  0.00    -0.353 OA
HETATM   23  C   UNL     1      -7.772   0.166 -35.116  1.00  0.00     0.210 C 
ENDBRANCH  17  22
ENDBRANCH  11  12
ENDBRANCH   3  11
BRANCH   1  24
HETATM   24  N   UNL     1      -1.913   5.251 -30.649  1.00  0.00    -0.281 NA
HETATM   25  C   UNL     1      -0.839   5.774 -31.482  1.00  0.00     0.114 C 
HETATM   26  H   UNL     1      -1.558   4.804 -29.808  1.00  0.00     0.128 HD
ENDBRANCH   1  24
TORSDOF 4
ENDMDL
MODEL 7
REMARK VINA RESULT:      -7.7      5.135      7.895
REMARK  4 active torsions:
REMARK  status: ('A' for Active; 'I' for Inactive)
REMARK    1  A    between atoms: N_2  and  C_3 
REMARK    2  A    between atoms: C_5  and  C_6 
REMARK    3  A    between atoms: C_6  and  C_7 
REMARK    4  A    between atoms: C_13  and  O_14 
ROOT
HETATM    1  C   UNL     1      -1.162   5.005 -31.385  1.00  0.00     0.113 A 
HETATM    2  N   UNL     1      -1.875   3.901 -31.688  1.00  0.00    -0.223 NA
HETATM    3  C   UNL     1      -3.192   4.040 -31.994  1.00  0.00     0.106 A 
HETATM    4  N   UNL     1      -3.825   5.226 -32.006  1.00  0.00    -0.347 N 
HETATM    5  H   UNL     1      -4.832   5.266 -32.195  1.00  0.00     0.167 HD
HETATM    6  C   UNL     1      -3.126   6.316 -31.707  1.00  0.00     0.020 A 
HETATM    7  C   UNL     1      -1.779   6.237 -31.396  1.00  0.00     0.005 A 
HETATM    8  C   UNL     1      -1.236   7.592 -31.078  1.00  0.00     0.044 C 
HETATM    9  C   UNL     1      -2.335   8.505 -31.654  1.00  0.00     0.011 C 
HETATM   10  C   UNL     1      -3.651   7.711 -31.606  1.00  0.00     0.058 C 
ENDROOT
BRANCH   3  11
HETATM   11  C   UNL     1      -3.986   2.803 -32.298  1.00  0.00     0.085 C 
BRANCH  11  12
HETATM   12  C   UNL     1      -3.931   1.711 -31.196  1.00  0.00     0.021 C 
HETATM   13  C   UNL     1      -5.274   1.441 -30.517  1.00  0.00     0.181 C 
HETATM   14  O   UNL     1      -6.284   1.255 -31.517  1.00  0.00    -0.347 OA
HETATM   15  C   UNL     1      -5.978   0.230 -32.388  1.00  0.00     0.108 A 
HETATM   16  C   UNL     1      -4.663  -0.234 -32.575  1.00  0.00    -0.021 A 
HETATM   17  C   UNL     1      -7.018  -0.289 -33.163  1.00  0.00     0.102 A 
HETATM   18  C   UNL     1      -3.508   0.371 -31.816  1.00  0.00     0.048 C 
HETATM   19  C   UNL     1      -4.426  -1.265 -33.494  1.00  0.00     0.010 A 
HETATM   20  C   UNL     1      -5.475  -1.787 -34.255  1.00  0.00     0.003 A 
HETATM   21  C   UNL     1      -6.768  -1.287 -34.105  1.00  0.00     0.039 A 
BRANCH  17  22
HETATM   22  O   UNL     1      -8.286   0.222 -33.072  1.00  0.00    -0.353 OA
HETATM   23  C   UNL     1      -8.713   0.707 -34.348  1.00  0.00     0.210 C 
ENDBRANCH  17  22
ENDBRANCH  11  12
ENDBRANCH   3  11
BRANCH   1  24
HETATM   24  N   UNL     1       0.204   4.919 -31.144  1.00  0.00    -0.281 NA
HETATM   25  C   UNL     1       0.614   4.905 -29.747  1.00  0.00     0.114 C 
HETATM   26  H   UNL     1       0.734   5.593 -31.688  1.00  0.00     0.128 HD
ENDBRANCH   1  24
TORSDOF 4
ENDMDL
MODEL 8
REMARK VINA RESULT:      -7.6      3.295      8.108
REMARK  4 active torsions:
REMARK  status: ('A' for Active; 'I' for Inactive)
REMARK    1  A    between atoms: N_2  and  C_3 
REMARK    2  A    between atoms: C_5  and  C_6 
REMARK    3  A    between atoms: C_6  and  C_7 
REMARK    4  A    between atoms: C_13  and  O_14 
ROOT
HETATM    1  C   UNL     1     -12.673   2.178 -33.713  1.00  0.00     0.113 A 
HETATM    2  N   UNL     1     -11.595   1.404 -33.954  1.00  0.00    -0.223 NA
HETATM    3  C   UNL     1     -10.483   1.582 -33.193  1.00  0.00     0.106 A 
HETATM    4  N   UNL     1     -10.399   2.497 -32.212  1.00  0.00    -0.347 N 
HETATM    5  H   UNL     1      -9.518   2.622 -31.703  1.00  0.00     0.167 HD
HETATM    6  C   UNL     1     -11.460   3.262 -31.972  1.00  0.00     0.020 A 
HETATM    7  C   UNL     1     -12.624   3.120 -32.708  1.00  0.00     0.005 A 
HETATM    8  C   UNL     1     -13.650   4.109 -32.259  1.00  0.00     0.044 C 
HETATM    9  C   UNL     1     -13.076   4.548 -30.899  1.00  0.00     0.011 C 
HETATM   10  C   UNL     1     -11.551   4.369 -30.974  1.00  0.00     0.058 C 
ENDROOT
BRANCH   3  11
HETATM   11  C   UNL     1      -9.277   0.740 -33.489  1.00  0.00     0.085 C 
BRANCH  11  12
HETATM   12  C   UNL     1      -8.279   1.369 -34.497  1.00  0.00     0.021 C 
HETATM   13  C   UNL     1      -7.115   2.113 -33.841  1.00  0.00     0.181 C 
HETATM   14  O   UNL     1      -6.527   1.282 -32.832  1.00  0.00    -0.347 OA
HETATM   15  C   UNL     1      -6.095   0.072 -33.335  1.00  0.00     0.108 A 
HETATM   16  C   UNL     1      -6.592  -0.468 -34.535  1.00  0.00    -0.021 A 
HETATM   17  C   UNL     1      -5.193  -0.662 -32.560  1.00  0.00     0.102 A 
HETATM   18  C   UNL     1      -7.633   0.264 -35.346  1.00  0.00     0.048 C 
HETATM   19  C   UNL     1      -6.121  -1.713 -34.971  1.00  0.00     0.010 A 
HETATM   20  C   UNL     1      -5.209  -2.434 -34.196  1.00  0.00     0.003 A 
HETATM   21  C   UNL     1      -4.760  -1.919 -32.980  1.00  0.00     0.039 A 
BRANCH  17  22
HETATM   22  O   UNL     1      -4.779  -0.202 -31.337  1.00  0.00    -0.353 OA
HETATM   23  C   UNL     1      -3.383   0.103 -31.374  1.00  0.00     0.210 C 
ENDBRANCH  17  22
ENDBRANCH  11  12
ENDBRANCH   3  11
BRANCH   1  24
HETATM   24  N   UNL     1     -13.857   1.977 -34.412  1.00  0.00    -0.281 NA
HETATM   25  C   UNL     1     -14.511   0.691 -34.221  1.00  0.00     0.114 C 
HETATM   26  H   UNL     1     -13.768   2.216 -35.396  1.00  0.00     0.128 HD
ENDBRANCH   1  24
TORSDOF 4
ENDMDL
MODEL 9
REMARK VINA RESULT:      -7.6      4.891      7.797
REMARK  4 active torsions:
REMARK  status: ('A' for Active; 'I' for Inactive)
REMARK    1  A    between atoms: N_2  and  C_3 
REMARK    2  A    between atoms: C_5  and  C_6 
REMARK    3  A    between atoms: C_6  and  C_7 
REMARK    4  A    between atoms: C_13  and  O_14 
ROOT
HETATM    1  C   UNL     1      -3.364   5.326 -30.975  1.00  0.00     0.113 A 
HETATM    2  N   UNL     1      -3.746   4.061 -31.243  1.00  0.00    -0.223 NA
HETATM    3  C   UNL     1      -3.257   3.456 -32.357  1.00  0.00     0.106 A 
HETATM    4  N   UNL     1      -2.412   4.057 -33.213  1.00  0.00    -0.347 N 
HETATM    5  H   UNL     1      -2.114   3.570 -34.064  1.00  0.00     0.167 HD
HETATM    6  C   UNL     1      -2.034   5.304 -32.952  1.00  0.00     0.020 A 
HETATM    7  C   UNL     1      -2.493   5.969 -31.827  1.00  0.00     0.005 A 
HETATM    8  C   UNL     1      -1.941   7.357 -31.779  1.00  0.00     0.044 C 
HETATM    9  C   UNL     1      -0.782   7.260 -32.788  1.00  0.00     0.011 C 
HETATM   10  C   UNL     1      -1.156   6.164 -33.801  1.00  0.00     0.058 C 
ENDROOT
BRANCH   3  11
HETATM   11  C   UNL     1      -3.712   2.059 -32.666  1.00  0.00     0.085 C 
BRANCH  11  12
HETATM   12  C   UNL     1      -3.920   1.156 -31.421  1.00  0.00     0.021 C 
HETATM   13  C   UNL     1      -5.381   1.003 -30.997  1.00  0.00     0.181 C 
HETATM   14  O   UNL     1      -6.176   0.666 -32.141  1.00  0.00    -0.347 OA
HETATM   15  C   UNL     1      -5.739  -0.486 -32.762  1.00  0.00     0.108 A 
HETATM   16  C   UNL     1      -4.432  -0.980 -32.602  1.00  0.00    -0.021 A 
HETATM   17  C   UNL     1      -6.622  -1.117 -33.642  1.00  0.00     0.102 A 
HETATM   18  C   UNL     1      -3.431  -0.268 -31.727  1.00  0.00     0.048 C 
HETATM   19  C   UNL     1      -4.054  -2.145 -33.283  1.00  0.00     0.010 A 
HETATM   20  C   UNL     1      -4.947  -2.777 -34.152  1.00  0.00     0.003 A 
HETATM   21  C   UNL     1      -6.224  -2.252 -34.348  1.00  0.00     0.039 A 
BRANCH  17  22
HETATM   22  O   UNL     1      -7.862  -0.591 -33.893  1.00  0.00    -0.353 OA
HETATM   23  C   UNL     1      -7.866   0.078 -35.156  1.00  0.00     0.210 C 
ENDBRANCH  17  22
ENDBRANCH  11  12
ENDBRANCH   3  11
BRANCH   1  24
HETATM   24  N   UNL     1      -3.777   5.956 -29.807  1.00  0.00    -0.281 NA
HETATM   25  C   UNL     1      -5.060   6.641 -29.860  1.00  0.00     0.114 C 
HETATM   26  H   UNL     1      -3.049   6.543 -29.408  1.00  0.00     0.128 HD
ENDBRANCH   1  24
TORSDOF 4
ENDMDL
MODEL 10
REMARK VINA RESULT:      -7.6      3.040      7.743
REMARK  4 active torsions:
REMARK  status: ('A' for Active; 'I' for Inactive)
REMARK    1  A    between atoms: N_2  and  C_3 
REMARK    2  A    between atoms: C_5  and  C_6 
REMARK    3  A    between atoms: C_6  and  C_7 
REMARK    4  A    between atoms: C_13  and  O_14 
ROOT
HETATM    1  C   UNL     1     -12.057   1.806 -34.795  1.00  0.00     0.113 A 
HETATM    2  N   UNL     1     -11.150   0.975 -34.241  1.00  0.00    -0.223 NA
HETATM    3  C   UNL     1      -9.918   1.465 -33.941  1.00  0.00     0.106 A 
HETATM    4  N   UNL     1      -9.553   2.738 -34.173  1.00  0.00    -0.347 N 
HETATM    5  H   UNL     1      -8.594   3.039 -33.973  1.00  0.00     0.167 HD
HETATM    6  C   UNL     1     -10.445   3.558 -34.719  1.00  0.00     0.020 A 
HETATM    7  C   UNL     1     -11.718   3.119 -35.038  1.00  0.00     0.005 A 
HETATM    8  C   UNL     1     -12.512   4.223 -35.657  1.00  0.00     0.044 C 
HETATM    9  C   UNL     1     -11.676   5.456 -35.267  1.00  0.00     0.011 C 
HETATM   10  C   UNL     1     -10.222   4.983 -35.109  1.00  0.00     0.058 C 
ENDROOT
BRANCH   3  11
HETATM   11  C   UNL     1      -8.903   0.526 -33.356  1.00  0.00     0.085 C 
BRANCH  11  12
HETATM   12  C   UNL     1      -7.962  -0.139 -34.394  1.00  0.00     0.021 C 
HETATM   13  C   UNL     1      -7.068   0.846 -35.148  1.00  0.00     0.181 C 
HETATM   14  O   UNL     1      -6.428   1.721 -34.211  1.00  0.00    -0.347 OA
HETATM   15  C   UNL     1      -5.689   1.033 -33.270  1.00  0.00     0.108 A 
HETATM   16  C   UNL     1      -5.921  -0.322 -32.971  1.00  0.00    -0.021 A 
HETATM   17  C   UNL     1      -4.740   1.756 -32.542  1.00  0.00     0.102 A 
HETATM   18  C   UNL     1      -7.001  -1.102 -33.680  1.00  0.00     0.048 C 
HETATM   19  C   UNL     1      -5.144  -0.948 -31.987  1.00  0.00     0.010 A 
HETATM   20  C   UNL     1      -4.189  -0.220 -31.274  1.00  0.00     0.003 A 
HETATM   21  C   UNL     1      -4.000   1.136 -31.536  1.00  0.00     0.039 A 
BRANCH  17  22
HETATM   22  O   UNL     1      -4.574   3.101 -32.744  1.00  0.00    -0.353 OA
HETATM   23  C   UNL     1      -3.685   3.639 -31.761  1.00  0.00     0.210 C 
ENDBRANCH  17  22
ENDBRANCH  11  12
ENDBRANCH   3  11
BRANCH   1  24
HETATM   24  N   UNL     1     -13.353   1.369 -35.045  1.00  0.00    -0.281 NA
HETATM   25  C   UNL     1     -14.150   1.009 -33.881  1.00  0.00     0.114 C 
HETATM   26  H   UNL     1     -13.386   0.653 -35.765  1.00  0.00     0.128 HD
ENDBRANCH   1  24
TORSDOF 4
ENDMDL
