MODEL 1
REMARK VINA RESULT:      -9.1      0.000      0.000
REMARK  8 active torsions:
REMARK  status: ('A' for Active; 'I' for Inactive)
REMARK    1  A    between atoms: O_2  and  C_3 
REMARK    2  A    between atoms: C_6  and  C_7 
REMARK    3  A    between atoms: C_7  and  C_8 
REMARK    4  A    between atoms: C_8  and  C_9 
REMARK    5  A    between atoms: C_11  and  N_12 
REMARK       I    between atoms: N_12  and  C_13 
REMARK    6  A    between atoms: C_13  and  C_14 
REMARK    7  A    between atoms: C_18  and  C_19 
REMARK    8  A    between atoms: C_20  and  O_21 
ROOT
HETATM    1  N   UNL     1      -3.250   4.740 -31.618  1.00  0.00    -0.149 N 
HETATM    2  C   UNL     1      -1.966   5.045 -31.994  1.00  0.00     0.290 C 
HETATM    3  O   UNL     1      -1.526   5.123 -33.137  1.00  0.00    -0.265 OA
HETATM    4  H   UNL     1      -3.457   4.691 -30.631  1.00  0.00     0.188 HD
ENDROOT
BRANCH   1   5
HETATM    5  C   UNL     1      -4.277   4.500 -32.479  1.00  0.00     0.747 A 
HETATM    6  N   UNL     1      -4.643   3.202 -32.737  1.00  0.00    -0.046 NA
HETATM    7  C   UNL     1      -5.649   3.322 -33.579  1.00  0.00     0.140 A 
HETATM    8  N   UNL     1      -5.875   4.650 -33.797  1.00  0.00    -0.248 N 
HETATM    9  N   UNL     1      -5.009   5.407 -33.125  1.00  0.00     0.020 NA
HETATM   10  H   UNL     1      -6.573   5.096 -34.381  1.00  0.00     0.191 HD
BRANCH   7  11
HETATM   11  C   UNL     1      -6.478   2.258 -34.209  1.00  0.00     0.085 C 
BRANCH  11  12
HETATM   12  C   UNL     1      -6.821   1.144 -33.213  1.00  0.00     0.046 C 
BRANCH  12  13
HETATM   13  C   UNL     1      -6.252  -0.193 -33.619  1.00  0.00    -0.058 A 
HETATM   14  C   UNL     1      -4.921  -0.514 -33.319  1.00  0.00     0.010 A 
HETATM   15  C   UNL     1      -4.388  -1.762 -33.662  1.00  0.00     0.037 A 
HETATM   16  C   UNL     1      -5.184  -2.707 -34.307  1.00  0.00     0.068 A 
HETATM   17  C   UNL     1      -6.503  -2.382 -34.627  1.00  0.00     0.037 A 
HETATM   18  C   UNL     1      -7.038  -1.136 -34.287  1.00  0.00     0.010 A 
BRANCH  16  19
HETATM   19  O   UNL     1      -4.792  -3.964 -34.678  1.00  0.00    -0.356 OA
HETATM   20  C   UNL     1      -3.734  -4.550 -33.930  1.00  0.00     0.210 C 
ENDBRANCH  16  19
ENDBRANCH  12  13
ENDBRANCH  11  12
ENDBRANCH   7  11
ENDBRANCH   1   5
BRANCH   2  21
HETATM   21  C   UNL     1      -1.082   5.278 -30.838  1.00  0.00     0.147 A 
HETATM   22  N   UNL     1      -0.224   4.352 -30.367  1.00  0.00    -0.169 NA
HETATM   23  N   UNL     1       0.363   4.970 -29.320  1.00  0.00    -0.277 N 
HETATM   24  H   UNL     1       1.055   4.465 -28.773  1.00  0.00     0.189 HD
HETATM   25  C   UNL     1      -0.051   6.261 -29.100  1.00  0.00     0.065 A 
HETATM   26  C   UNL     1      -1.005   6.472 -30.078  1.00  0.00     0.071 A 
BRANCH  25  27
HETATM   27  C   UNL     1       0.475   7.134 -28.035  1.00  0.00     0.025 A 
HETATM   28  C   UNL     1       0.217   6.925 -26.658  1.00  0.00     0.080 A 
HETATM   29  C   UNL     1       0.767   7.800 -25.708  1.00  0.00     0.037 A 
HETATM   30  C   UNL     1       1.562   8.877 -26.103  1.00  0.00     0.003 A 
HETATM   31  C   UNL     1       1.820   9.092 -27.449  1.00  0.00     0.001 A 
HETATM   32  C   UNL     1       1.282   8.228 -28.402  1.00  0.00     0.016 A 
BRANCH  28  33
HETATM   33  O   UNL     1      -0.573   5.848 -26.325  1.00  0.00    -0.355 OA
HETATM   34  C   UNL     1      -1.872   6.119 -25.810  1.00  0.00     0.210 C 
ENDBRANCH  28  33
ENDBRANCH  25  27
ENDBRANCH   2  21
TORSDOF 8
ENDMDL
MODEL 2
REMARK VINA RESULT:      -8.9      2.037     11.057
REMARK  8 active torsions:
REMARK  status: ('A' for Active; 'I' for Inactive)
REMARK    1  A    between atoms: O_2  and  C_3 
REMARK    2  A    between atoms: C_6  and  C_7 
REMARK    3  A    between atoms: C_7  and  C_8 
REMARK    4  A    between atoms: C_8  and  C_9 
REMARK    5  A    between atoms: C_11  and  N_12 
REMARK       I    between atoms: N_12  and  C_13 
REMARK    6  A    between atoms: C_13  and  C_14 
REMARK    7  A    between atoms: C_18  and  C_19 
REMARK    8  A    between atoms: C_20  and  O_21 
ROOT
HETATM    1  N   UNL     1      -2.973   3.129 -32.334  1.00  0.00    -0.149 N 
HETATM    2  C   UNL     1      -4.093   2.955 -31.558  1.00  0.00     0.290 C 
HETATM    3  O   UNL     1      -4.572   3.750 -30.758  1.00  0.00    -0.265 OA
HETATM    4  H   UNL     1      -2.687   2.368 -32.933  1.00  0.00     0.188 HD
ENDROOT
BRANCH   1   5
HETATM    5  C   UNL     1      -2.214   4.259 -32.361  1.00  0.00     0.747 A 
HETATM    6  N   UNL     1      -1.339   4.500 -31.330  1.00  0.00    -0.046 NA
HETATM    7  C   UNL     1      -0.768   5.639 -31.665  1.00  0.00     0.140 A 
HETATM    8  N   UNL     1      -1.282   6.046 -32.862  1.00  0.00    -0.248 N 
HETATM    9  N   UNL     1      -2.206   5.196 -33.308  1.00  0.00     0.020 NA
HETATM   10  H   UNL     1      -1.062   6.869 -33.410  1.00  0.00     0.191 HD
BRANCH   7  11
HETATM   11  C   UNL     1       0.285   6.408 -30.948  1.00  0.00     0.085 C 
BRANCH  11  12
HETATM   12  C   UNL     1       0.660   5.747 -29.616  1.00  0.00     0.046 C 
BRANCH  12  13
HETATM   13  C   UNL     1       0.567   6.699 -28.449  1.00  0.00    -0.058 A 
HETATM   14  C   UNL     1      -0.084   6.310 -27.270  1.00  0.00     0.010 A 
HETATM   15  C   UNL     1      -0.152   7.170 -26.170  1.00  0.00     0.037 A 
HETATM   16  C   UNL     1       0.435   8.432 -26.232  1.00  0.00     0.068 A 
HETATM   17  C   UNL     1       1.064   8.833 -27.413  1.00  0.00     0.037 A 
HETATM   18  C   UNL     1       1.133   7.975 -28.514  1.00  0.00     0.010 A 
BRANCH  16  19
HETATM   19  O   UNL     1       0.455   9.358 -25.225  1.00  0.00    -0.356 OA
HETATM   20  C   UNL     1       1.632   9.409 -24.430  1.00  0.00     0.210 C 
ENDBRANCH  16  19
ENDBRANCH  12  13
ENDBRANCH  11  12
ENDBRANCH   7  11
ENDBRANCH   1   5
BRANCH   2  21
HETATM   21  C   UNL     1      -4.718   1.636 -31.763  1.00  0.00     0.147 A 
HETATM   22  N   UNL     1      -5.628   1.111 -30.920  1.00  0.00    -0.169 NA
HETATM   23  N   UNL     1      -5.919  -0.085 -31.473  1.00  0.00    -0.277 N 
HETATM   24  H   UNL     1      -6.584  -0.696 -31.008  1.00  0.00     0.189 HD
HETATM   25  C   UNL     1      -5.262  -0.356 -32.648  1.00  0.00     0.065 A 
HETATM   26  C   UNL     1      -4.464   0.755 -32.845  1.00  0.00     0.071 A 
BRANCH  25  27
HETATM   27  C   UNL     1      -5.447  -1.587 -33.440  1.00  0.00     0.025 A 
HETATM   28  C   UNL     1      -6.663  -1.922 -34.085  1.00  0.00     0.080 A 
HETATM   29  C   UNL     1      -6.749  -3.110 -34.828  1.00  0.00     0.037 A 
HETATM   30  C   UNL     1      -5.654  -3.969 -34.936  1.00  0.00     0.003 A 
HETATM   31  C   UNL     1      -4.459  -3.651 -34.306  1.00  0.00     0.001 A 
HETATM   32  C   UNL     1      -4.359  -2.472 -33.567  1.00  0.00     0.016 A 
BRANCH  28  33
HETATM   33  O   UNL     1      -7.710  -1.040 -33.946  1.00  0.00    -0.355 OA
HETATM   34  C   UNL     1      -7.911  -0.089 -34.986  1.00  0.00     0.210 C 
ENDBRANCH  28  33
ENDBRANCH  25  27
ENDBRANCH   2  21
TORSDOF 8
ENDMDL
MODEL 3
REMARK VINA RESULT:      -8.7      2.210      3.053
REMARK  8 active torsions:
REMARK  status: ('A' for Active; 'I' for Inactive)
REMARK    1  A    between atoms: O_2  and  C_3 
REMARK    2  A    between atoms: C_6  and  C_7 
REMARK    3  A    between atoms: C_7  and  C_8 
REMARK    4  A    between atoms: C_8  and  C_9 
REMARK    5  A    between atoms: C_11  and  N_12 
REMARK       I    between atoms: N_12  and  C_13 
REMARK    6  A    between atoms: C_13  and  C_14 
REMARK    7  A    between atoms: C_18  and  C_19 
REMARK    8  A    between atoms: C_20  and  O_21 
ROOT
HETATM    1  N   UNL     1      -5.284   4.332 -33.257  1.00  0.00    -0.149 N 
HETATM    2  C   UNL     1      -4.433   4.968 -34.127  1.00  0.00     0.290 C 
HETATM    3  O   UNL     1      -4.504   4.990 -35.351  1.00  0.00    -0.265 OA
HETATM    4  H   UNL     1      -5.081   4.386 -32.269  1.00  0.00     0.188 HD
ENDROOT
BRANCH   1   5
HETATM    5  C   UNL     1      -6.391   3.631 -33.625  1.00  0.00     0.747 A 
HETATM    6  N   UNL     1      -6.247   2.340 -34.070  1.00  0.00    -0.046 NA
HETATM    7  C   UNL     1      -7.482   1.957 -34.325  1.00  0.00     0.140 A 
HETATM    8  N   UNL     1      -8.325   2.987 -34.025  1.00  0.00    -0.248 N 
HETATM    9  N   UNL     1      -7.654   4.056 -33.598  1.00  0.00     0.020 NA
HETATM   10  H   UNL     1      -9.335   3.033 -34.095  1.00  0.00     0.191 HD
BRANCH   7  11
HETATM   11  C   UNL     1      -7.974   0.643 -34.821  1.00  0.00     0.085 C 
BRANCH  11  12
HETATM   12  C   UNL     1      -7.905  -0.434 -33.733  1.00  0.00     0.046 C 
BRANCH  12  13
HETATM   13  C   UNL     1      -6.736  -1.371 -33.917  1.00  0.00    -0.058 A 
HETATM   14  C   UNL     1      -5.492  -1.068 -33.348  1.00  0.00     0.010 A 
HETATM   15  C   UNL     1      -4.408  -1.941 -33.484  1.00  0.00     0.037 A 
HETATM   16  C   UNL     1      -4.556  -3.134 -34.189  1.00  0.00     0.068 A 
HETATM   17  C   UNL     1      -5.788  -3.429 -34.777  1.00  0.00     0.037 A 
HETATM   18  C   UNL     1      -6.873  -2.557 -34.643  1.00  0.00     0.010 A 
BRANCH  16  19
HETATM   19  O   UNL     1      -3.585  -4.079 -34.379  1.00  0.00    -0.356 OA
HETATM   20  C   UNL     1      -3.484  -5.097 -33.392  1.00  0.00     0.210 C 
ENDBRANCH  16  19
ENDBRANCH  12  13
ENDBRANCH  11  12
ENDBRANCH   7  11
ENDBRANCH   1   5
BRANCH   2  21
HETATM   21  C   UNL     1      -3.337   5.666 -33.432  1.00  0.00     0.147 A 
HETATM   22  N   UNL     1      -2.632   6.670 -33.986  1.00  0.00    -0.169 NA
HETATM   23  N   UNL     1      -1.743   7.000 -33.026  1.00  0.00    -0.277 N 
HETATM   24  H   UNL     1      -1.070   7.739 -33.209  1.00  0.00     0.189 HD
HETATM   25  C   UNL     1      -1.848   6.277 -31.864  1.00  0.00     0.065 A 
HETATM   26  C   UNL     1      -2.879   5.392 -32.118  1.00  0.00     0.071 A 
BRANCH  25  27
HETATM   27  C   UNL     1      -1.003   6.486 -30.673  1.00  0.00     0.025 A 
HETATM   28  C   UNL     1      -0.993   7.690 -29.927  1.00  0.00     0.080 A 
HETATM   29  C   UNL     1      -0.163   7.801 -28.800  1.00  0.00     0.037 A 
HETATM   30  C   UNL     1       0.656   6.742 -28.407  1.00  0.00     0.003 A 
HETATM   31  C   UNL     1       0.656   5.559 -29.132  1.00  0.00     0.001 A 
HETATM   32  C   UNL     1      -0.166   5.435 -30.252  1.00  0.00     0.016 A 
BRANCH  28  33
HETATM   33  O   UNL     1      -1.821   8.702 -30.358  1.00  0.00    -0.355 OA
HETATM   34  C   UNL     1      -2.092   9.762 -29.448  1.00  0.00     0.210 C 
ENDBRANCH  28  33
ENDBRANCH  25  27
ENDBRANCH   2  21
TORSDOF 8
ENDMDL
MODEL 4
REMARK VINA RESULT:      -8.6      2.073     11.015
REMARK  8 active torsions:
REMARK  status: ('A' for Active; 'I' for Inactive)
REMARK    1  A    between atoms: O_2  and  C_3 
REMARK    2  A    between atoms: C_6  and  C_7 
REMARK    3  A    between atoms: C_7  and  C_8 
REMARK    4  A    between atoms: C_8  and  C_9 
REMARK    5  A    between atoms: C_11  and  N_12 
REMARK       I    between atoms: N_12  and  C_13 
REMARK    6  A    between atoms: C_13  and  C_14 
REMARK    7  A    between atoms: C_18  and  C_19 
REMARK    8  A    between atoms: C_20  and  O_21 
ROOT
HETATM    1  N   UNL     1      -3.089   2.952 -32.557  1.00  0.00    -0.149 N 
HETATM    2  C   UNL     1      -4.356   2.850 -32.037  1.00  0.00     0.290 C 
HETATM    3  O   UNL     1      -5.020   3.743 -31.521  1.00  0.00    -0.265 OA
HETATM    4  H   UNL     1      -2.661   2.117 -32.930  1.00  0.00     0.188 HD
ENDROOT
BRANCH   1   5
HETATM    5  C   UNL     1      -2.362   4.101 -32.615  1.00  0.00     0.747 A 
HETATM    6  N   UNL     1      -1.512   4.405 -31.579  1.00  0.00    -0.046 NA
HETATM    7  C   UNL     1      -0.967   5.547 -31.948  1.00  0.00     0.140 A 
HETATM    8  N   UNL     1      -1.472   5.894 -33.167  1.00  0.00    -0.248 N 
HETATM    9  N   UNL     1      -2.364   5.003 -33.596  1.00  0.00     0.020 NA
HETATM   10  H   UNL     1      -1.266   6.703 -33.742  1.00  0.00     0.191 HD
BRANCH   7  11
HETATM   11  C   UNL     1       0.052   6.372 -31.243  1.00  0.00     0.085 C 
BRANCH  11  12
HETATM   12  C   UNL     1       0.219   5.938 -29.782  1.00  0.00     0.046 C 
BRANCH  12  13
HETATM   13  C   UNL     1       0.044   7.082 -28.813  1.00  0.00    -0.058 A 
HETATM   14  C   UNL     1      -1.217   7.359 -28.269  1.00  0.00     0.010 A 
HETATM   15  C   UNL     1      -1.389   8.397 -27.346  1.00  0.00     0.037 A 
HETATM   16  C   UNL     1      -0.298   9.169 -26.953  1.00  0.00     0.068 A 
HETATM   17  C   UNL     1       0.956   8.911 -27.512  1.00  0.00     0.037 A 
HETATM   18  C   UNL     1       1.130   7.875 -28.434  1.00  0.00     0.010 A 
BRANCH  16  19
HETATM   19  O   UNL     1      -0.327  10.197 -26.050  1.00  0.00    -0.356 OA
HETATM   20  C   UNL     1       0.124   9.902 -24.735  1.00  0.00     0.210 C 
ENDBRANCH  16  19
ENDBRANCH  12  13
ENDBRANCH  11  12
ENDBRANCH   7  11
ENDBRANCH   1   5
BRANCH   2  21
HETATM   21  C   UNL     1      -4.897   1.483 -32.138  1.00  0.00     0.147 A 
HETATM   22  N   UNL     1      -5.771   0.968 -31.252  1.00  0.00    -0.169 NA
HETATM   23  N   UNL     1      -5.985  -0.283 -31.711  1.00  0.00    -0.277 N 
HETATM   24  H   UNL     1      -6.610  -0.897 -31.197  1.00  0.00     0.189 HD
HETATM   25  C   UNL     1      -5.313  -0.601 -32.866  1.00  0.00     0.065 A 
HETATM   26  C   UNL     1      -4.587   0.540 -33.150  1.00  0.00     0.071 A 
BRANCH  25  27
HETATM   27  C   UNL     1      -5.421  -1.898 -33.561  1.00  0.00     0.025 A 
HETATM   28  C   UNL     1      -4.417  -2.895 -33.508  1.00  0.00     0.080 A 
HETATM   29  C   UNL     1      -4.606  -4.107 -34.193  1.00  0.00     0.037 A 
HETATM   30  C   UNL     1      -5.768  -4.339 -34.929  1.00  0.00     0.003 A 
HETATM   31  C   UNL     1      -6.757  -3.368 -34.989  1.00  0.00     0.001 A 
HETATM   32  C   UNL     1      -6.583  -2.161 -34.311  1.00  0.00     0.016 A 
BRANCH  28  33
HETATM   33  O   UNL     1      -3.291  -2.614 -32.767  1.00  0.00    -0.355 OA
HETATM   34  C   UNL     1      -2.901  -3.562 -31.779  1.00  0.00     0.210 C 
ENDBRANCH  28  33
ENDBRANCH  25  27
ENDBRANCH   2  21
TORSDOF 8
ENDMDL
MODEL 5
REMARK VINA RESULT:      -8.3      1.934      2.513
REMARK  8 active torsions:
REMARK  status: ('A' for Active; 'I' for Inactive)
REMARK    1  A    between atoms: O_2  and  C_3 
REMARK    2  A    between atoms: C_6  and  C_7 
REMARK    3  A    between atoms: C_7  and  C_8 
REMARK    4  A    between atoms: C_8  and  C_9 
REMARK    5  A    between atoms: C_11  and  N_12 
REMARK       I    between atoms: N_12  and  C_13 
REMARK    6  A    between atoms: C_13  and  C_14 
REMARK    7  A    between atoms: C_18  and  C_19 
REMARK    8  A    between atoms: C_20  and  O_21 
ROOT
HETATM    1  N   UNL     1      -4.015   4.257 -30.849  1.00  0.00    -0.149 N 
HETATM    2  C   UNL     1      -2.831   4.547 -31.480  1.00  0.00     0.290 C 
HETATM    3  O   UNL     1      -2.246   3.861 -32.312  1.00  0.00    -0.265 OA
HETATM    4  H   UNL     1      -4.363   4.914 -30.166  1.00  0.00     0.188 HD
ENDROOT
BRANCH   1   5
HETATM    5  C   UNL     1      -4.767   3.146 -31.079  1.00  0.00     0.747 A 
HETATM    6  N   UNL     1      -5.624   3.129 -32.152  1.00  0.00    -0.046 NA
HETATM    7  C   UNL     1      -6.175   1.933 -32.093  1.00  0.00     0.140 A 
HETATM    8  N   UNL     1      -5.647   1.265 -31.027  1.00  0.00    -0.248 N 
HETATM    9  N   UNL     1      -4.770   2.020 -30.366  1.00  0.00     0.020 NA
HETATM   10  H   UNL     1      -5.840   0.327 -30.696  1.00  0.00     0.191 HD
BRANCH   7  11
HETATM   11  C   UNL     1      -7.179   1.316 -33.003  1.00  0.00     0.085 C 
BRANCH  11  12
HETATM   12  C   UNL     1      -6.540   0.848 -34.315  1.00  0.00     0.046 C 
BRANCH  12  13
HETATM   13  C   UNL     1      -6.127  -0.603 -34.275  1.00  0.00    -0.058 A 
HETATM   14  C   UNL     1      -7.007  -1.601 -34.715  1.00  0.00     0.010 A 
HETATM   15  C   UNL     1      -6.626  -2.947 -34.711  1.00  0.00     0.037 A 
HETATM   16  C   UNL     1      -5.356  -3.312 -34.270  1.00  0.00     0.068 A 
HETATM   17  C   UNL     1      -4.485  -2.323 -33.808  1.00  0.00     0.037 A 
HETATM   18  C   UNL     1      -4.863  -0.978 -33.810  1.00  0.00     0.010 A 
BRANCH  16  19
HETATM   19  O   UNL     1      -4.856  -4.586 -34.233  1.00  0.00    -0.356 OA
HETATM   20  C   UNL     1      -3.458  -4.715 -34.005  1.00  0.00     0.210 C 
ENDBRANCH  16  19
ENDBRANCH  12  13
ENDBRANCH  11  12
ENDBRANCH   7  11
ENDBRANCH   1   5
BRANCH   2  21
HETATM   21  C   UNL     1      -2.261   5.833 -31.042  1.00  0.00     0.147 A 
HETATM   22  N   UNL     1      -2.361   6.968 -31.760  1.00  0.00    -0.169 NA
HETATM   23  N   UNL     1      -1.705   7.877 -31.009  1.00  0.00    -0.277 N 
HETATM   24  H   UNL     1      -1.623   8.831 -31.347  1.00  0.00     0.189 HD
HETATM   25  C   UNL     1      -1.201   7.396 -29.824  1.00  0.00     0.065 A 
HETATM   26  C   UNL     1      -1.547   6.058 -29.837  1.00  0.00     0.071 A 
BRANCH  25  27
HETATM   27  C   UNL     1      -0.477   8.216 -28.835  1.00  0.00     0.025 A 
HETATM   28  C   UNL     1      -1.065   9.302 -28.143  1.00  0.00     0.080 A 
HETATM   29  C   UNL     1      -0.305  10.024 -27.209  1.00  0.00     0.037 A 
HETATM   30  C   UNL     1       1.026   9.688 -26.956  1.00  0.00     0.003 A 
HETATM   31  C   UNL     1       1.613   8.626 -27.630  1.00  0.00     0.001 A 
HETATM   32  C   UNL     1       0.867   7.900 -28.558  1.00  0.00     0.016 A 
BRANCH  28  33
HETATM   33  O   UNL     1      -2.380   9.591 -28.430  1.00  0.00    -0.355 OA
HETATM   34  C   UNL     1      -2.695  10.930 -28.797  1.00  0.00     0.210 C 
ENDBRANCH  28  33
ENDBRANCH  25  27
ENDBRANCH   2  21
TORSDOF 8
ENDMDL
MODEL 6
REMARK VINA RESULT:      -8.3      7.260     11.625
REMARK  8 active torsions:
REMARK  status: ('A' for Active; 'I' for Inactive)
REMARK    1  A    between atoms: O_2  and  C_3 
REMARK    2  A    between atoms: C_6  and  C_7 
REMARK    3  A    between atoms: C_7  and  C_8 
REMARK    4  A    between atoms: C_8  and  C_9 
REMARK    5  A    between atoms: C_11  and  N_12 
REMARK       I    between atoms: N_12  and  C_13 
REMARK    6  A    between atoms: C_13  and  C_14 
REMARK    7  A    between atoms: C_18  and  C_19 
REMARK    8  A    between atoms: C_20  and  O_21 
ROOT
HETATM    1  N   UNL     1     -10.120   1.886 -34.776  1.00  0.00    -0.149 N 
HETATM    2  C   UNL     1      -9.293   1.807 -33.683  1.00  0.00     0.290 C 
HETATM    3  O   UNL     1      -9.447   2.350 -32.595  1.00  0.00    -0.265 OA
HETATM    4  H   UNL     1      -9.846   1.398 -35.616  1.00  0.00     0.188 HD
ENDROOT
BRANCH   1   5
HETATM    5  C   UNL     1     -11.294   2.575 -34.814  1.00  0.00     0.747 A 
HETATM    6  N   UNL     1     -11.286   3.886 -35.224  1.00  0.00    -0.046 NA
HETATM    7  C   UNL     1     -12.553   4.242 -35.158  1.00  0.00     0.140 A 
HETATM    8  N   UNL     1     -13.282   3.169 -34.736  1.00  0.00    -0.248 N 
HETATM    9  N   UNL     1     -12.504   2.114 -34.499  1.00  0.00     0.020 NA
HETATM   10  H   UNL     1     -14.281   3.090 -34.583  1.00  0.00     0.191 HD
BRANCH   7  11
HETATM   11  C   UNL     1     -13.180   5.549 -35.495  1.00  0.00     0.085 C 
BRANCH  11  12
HETATM   12  C   UNL     1     -12.323   6.727 -35.017  1.00  0.00     0.046 C 
BRANCH  12  13
HETATM   13  C   UNL     1     -11.902   7.636 -36.146  1.00  0.00    -0.058 A 
HETATM   14  C   UNL     1     -12.859   8.385 -36.843  1.00  0.00     0.010 A 
HETATM   15  C   UNL     1     -12.481   9.254 -37.872  1.00  0.00     0.037 A 
HETATM   16  C   UNL     1     -11.137   9.387 -38.215  1.00  0.00     0.068 A 
HETATM   17  C   UNL     1     -10.183   8.624 -37.538  1.00  0.00     0.037 A 
HETATM   18  C   UNL     1     -10.558   7.755 -36.510  1.00  0.00     0.010 A 
BRANCH  16  19
HETATM   19  O   UNL     1     -10.635  10.212 -39.185  1.00  0.00    -0.356 OA
HETATM   20  C   UNL     1     -11.040  11.574 -39.136  1.00  0.00     0.210 C 
ENDBRANCH  16  19
ENDBRANCH  12  13
ENDBRANCH  11  12
ENDBRANCH   7  11
ENDBRANCH   1   5
BRANCH   2  21
HETATM   21  C   UNL     1      -8.108   0.968 -33.936  1.00  0.00     0.147 A 
HETATM   22  N   UNL     1      -6.893   1.473 -34.223  1.00  0.00    -0.169 NA
HETATM   23  N   UNL     1      -6.124   0.376 -34.386  1.00  0.00    -0.277 N 
HETATM   24  H   UNL     1      -5.145   0.491 -34.630  1.00  0.00     0.189 HD
HETATM   25  C   UNL     1      -6.772  -0.820 -34.196  1.00  0.00     0.065 A 
HETATM   26  C   UNL     1      -8.073  -0.449 -33.913  1.00  0.00     0.071 A 
BRANCH  25  27
HETATM   27  C   UNL     1      -6.124  -2.142 -34.293  1.00  0.00     0.025 A 
HETATM   28  C   UNL     1      -4.782  -2.381 -33.910  1.00  0.00     0.080 A 
HETATM   29  C   UNL     1      -4.247  -3.674 -34.027  1.00  0.00     0.037 A 
HETATM   30  C   UNL     1      -5.020  -4.726 -34.520  1.00  0.00     0.003 A 
HETATM   31  C   UNL     1      -6.335  -4.502 -34.899  1.00  0.00     0.001 A 
HETATM   32  C   UNL     1      -6.879  -3.223 -34.786  1.00  0.00     0.016 A 
BRANCH  28  33
HETATM   33  O   UNL     1      -4.065  -1.307 -33.431  1.00  0.00    -0.355 OA
HETATM   34  C   UNL     1      -3.336  -1.491 -32.222  1.00  0.00     0.210 C 
ENDBRANCH  28  33
ENDBRANCH  25  27
ENDBRANCH   2  21
TORSDOF 8
ENDMDL
MODEL 7
REMARK VINA RESULT:      -8.2      2.330     11.362
REMARK  8 active torsions:
REMARK  status: ('A' for Active; 'I' for Inactive)
REMARK    1  A    between atoms: O_2  and  C_3 
REMARK    2  A    between atoms: C_6  and  C_7 
REMARK    3  A    between atoms: C_7  and  C_8 
REMARK    4  A    between atoms: C_8  and  C_9 
REMARK    5  A    between atoms: C_11  and  N_12 
REMARK       I    between atoms: N_12  and  C_13 
REMARK    6  A    between atoms: C_13  and  C_14 
REMARK    7  A    between atoms: C_18  and  C_19 
REMARK    8  A    between atoms: C_20  and  O_21 
ROOT
HETATM    1  N   UNL     1      -2.199   4.227 -31.217  1.00  0.00    -0.149 N 
HETATM    2  C   UNL     1      -3.561   4.370 -31.322  1.00  0.00     0.290 C 
HETATM    3  O   UNL     1      -4.198   5.418 -31.335  1.00  0.00    -0.265 OA
HETATM    4  H   UNL     1      -1.820   3.292 -31.197  1.00  0.00     0.188 HD
ENDROOT
BRANCH   1   5
HETATM    5  C   UNL     1      -1.312   5.258 -31.142  1.00  0.00     0.747 A 
HETATM    6  N   UNL     1      -0.927   5.718 -29.907  1.00  0.00    -0.046 NA
HETATM    7  C   UNL     1      -0.076   6.684 -30.185  1.00  0.00     0.140 A 
HETATM    8  N   UNL     1       0.045   6.778 -31.541  1.00  0.00    -0.248 N 
HETATM    9  N   UNL     1      -0.740   5.898 -32.161  1.00  0.00     0.020 NA
HETATM   10  H   UNL     1       0.617   7.405 -32.094  1.00  0.00     0.191 HD
BRANCH   7  11
HETATM   11  C   UNL     1       0.695   7.553 -29.255  1.00  0.00     0.085 C 
BRANCH  11  12
HETATM   12  C   UNL     1      -0.230   8.332 -28.312  1.00  0.00     0.046 C 
BRANCH  12  13
HETATM   13  C   UNL     1       0.450   8.720 -27.021  1.00  0.00    -0.058 A 
HETATM   14  C   UNL     1      -0.291   9.290 -25.977  1.00  0.00     0.010 A 
HETATM   15  C   UNL     1       0.319   9.627 -24.764  1.00  0.00     0.037 A 
HETATM   16  C   UNL     1       1.681   9.394 -24.579  1.00  0.00     0.068 A 
HETATM   17  C   UNL     1       2.427   8.848 -25.626  1.00  0.00     0.037 A 
HETATM   18  C   UNL     1       1.819   8.512 -26.839  1.00  0.00     0.010 A 
BRANCH  16  19
HETATM   19  O   UNL     1       2.392   9.660 -23.441  1.00  0.00    -0.356 OA
HETATM   20  C   UNL     1       2.874   8.537 -22.713  1.00  0.00     0.210 C 
ENDBRANCH  16  19
ENDBRANCH  12  13
ENDBRANCH  11  12
ENDBRANCH   7  11
ENDBRANCH   1   5
BRANCH   2  21
HETATM   21  C   UNL     1      -4.257   3.074 -31.410  1.00  0.00     0.147 A 
HETATM   22  N   UNL     1      -5.013   2.573 -30.416  1.00  0.00    -0.169 NA
HETATM   23  N   UNL     1      -5.440   1.391 -30.908  1.00  0.00    -0.277 N 
HETATM   24  H   UNL     1      -6.029   0.798 -30.330  1.00  0.00     0.189 HD
HETATM   25  C   UNL     1      -5.019   1.107 -32.184  1.00  0.00     0.065 A 
HETATM   26  C   UNL     1      -4.234   2.194 -32.522  1.00  0.00     0.071 A 
BRANCH  25  27
HETATM   27  C   UNL     1      -5.387  -0.110 -32.931  1.00  0.00     0.025 A 
HETATM   28  C   UNL     1      -6.727  -0.493 -33.184  1.00  0.00     0.080 A 
HETATM   29  C   UNL     1      -6.988  -1.665 -33.913  1.00  0.00     0.037 A 
HETATM   30  C   UNL     1      -5.944  -2.460 -34.387  1.00  0.00     0.003 A 
HETATM   31  C   UNL     1      -4.628  -2.095 -34.143  1.00  0.00     0.001 A 
HETATM   32  C   UNL     1      -4.355  -0.932 -33.422  1.00  0.00     0.016 A 
BRANCH  28  33
HETATM   33  O   UNL     1      -7.717   0.328 -32.693  1.00  0.00    -0.355 OA
HETATM   34  C   UNL     1      -9.045   0.102 -33.153  1.00  0.00     0.210 C 
ENDBRANCH  28  33
ENDBRANCH  25  27
ENDBRANCH   2  21
TORSDOF 8
ENDMDL
MODEL 8
REMARK VINA RESULT:      -8.0      2.019      2.642
REMARK  8 active torsions:
REMARK  status: ('A' for Active; 'I' for Inactive)
REMARK    1  A    between atoms: O_2  and  C_3 
REMARK    2  A    between atoms: C_6  and  C_7 
REMARK    3  A    between atoms: C_7  and  C_8 
REMARK    4  A    between atoms: C_8  and  C_9 
REMARK    5  A    between atoms: C_11  and  N_12 
REMARK       I    between atoms: N_12  and  C_13 
REMARK    6  A    between atoms: C_13  and  C_14 
REMARK    7  A    between atoms: C_18  and  C_19 
REMARK    8  A    between atoms: C_20  and  O_21 
ROOT
HETATM    1  N   UNL     1      -5.905   4.684 -31.881  1.00  0.00    -0.149 N 
HETATM    2  C   UNL     1      -5.069   5.668 -32.347  1.00  0.00     0.290 C 
HETATM    3  O   UNL     1      -4.873   5.983 -33.516  1.00  0.00    -0.265 OA
HETATM    4  H   UNL     1      -5.944   4.526 -30.885  1.00  0.00     0.188 HD
ENDROOT
BRANCH   1   5
HETATM    5  C   UNL     1      -6.695   3.899 -32.665  1.00  0.00     0.747 A 
HETATM    6  N   UNL     1      -6.128   2.850 -33.346  1.00  0.00    -0.046 NA
HETATM    7  C   UNL     1      -7.146   2.304 -33.981  1.00  0.00     0.140 A 
HETATM    8  N   UNL     1      -8.276   3.003 -33.670  1.00  0.00    -0.248 N 
HETATM    9  N   UNL     1      -8.008   4.022 -32.855  1.00  0.00     0.020 NA
HETATM   10  H   UNL     1      -9.230   2.852 -33.976  1.00  0.00     0.191 HD
BRANCH   7  11
HETATM   11  C   UNL     1      -7.165   1.114 -34.875  1.00  0.00     0.085 C 
BRANCH  11  12
HETATM   12  C   UNL     1      -7.612  -0.148 -34.127  1.00  0.00     0.046 C 
BRANCH  12  13
HETATM   13  C   UNL     1      -6.585  -1.251 -34.183  1.00  0.00    -0.058 A 
HETATM   14  C   UNL     1      -6.911  -2.491 -34.748  1.00  0.00     0.010 A 
HETATM   15  C   UNL     1      -5.960  -3.514 -34.835  1.00  0.00     0.037 A 
HETATM   16  C   UNL     1      -4.666  -3.306 -34.360  1.00  0.00     0.068 A 
HETATM   17  C   UNL     1      -4.344  -2.080 -33.775  1.00  0.00     0.037 A 
HETATM   18  C   UNL     1      -5.293  -1.057 -33.687  1.00  0.00     0.010 A 
BRANCH  16  19
HETATM   19  O   UNL     1      -3.642  -4.213 -34.402  1.00  0.00    -0.356 OA
HETATM   20  C   UNL     1      -3.329  -4.876 -33.184  1.00  0.00     0.210 C 
ENDBRANCH  16  19
ENDBRANCH  12  13
ENDBRANCH  11  12
ENDBRANCH   7  11
ENDBRANCH   1   5
BRANCH   2  21
HETATM   21  C   UNL     1      -4.361   6.365 -31.259  1.00  0.00     0.147 A 
HETATM   22  N   UNL     1      -4.931   7.319 -30.498  1.00  0.00    -0.169 NA
HETATM   23  N   UNL     1      -3.944   7.683 -29.654  1.00  0.00    -0.277 N 
HETATM   24  H   UNL     1      -4.120   8.416 -28.974  1.00  0.00     0.189 HD
HETATM   25  C   UNL     1      -2.764   6.997 -29.809  1.00  0.00     0.065 A 
HETATM   26  C   UNL     1      -3.018   6.139 -30.863  1.00  0.00     0.071 A 
BRANCH  25  27
HETATM   27  C   UNL     1      -1.564   7.206 -28.978  1.00  0.00     0.025 A 
HETATM   28  C   UNL     1      -1.576   7.146 -27.564  1.00  0.00     0.080 A 
HETATM   29  C   UNL     1      -0.383   7.349 -26.850  1.00  0.00     0.037 A 
HETATM   30  C   UNL     1       0.814   7.613 -27.517  1.00  0.00     0.003 A 
HETATM   31  C   UNL     1       0.836   7.675 -28.903  1.00  0.00     0.001 A 
HETATM   32  C   UNL     1      -0.341   7.474 -29.624  1.00  0.00     0.016 A 
BRANCH  28  33
HETATM   33  O   UNL     1      -2.783   6.882 -26.957  1.00  0.00    -0.355 OA
HETATM   34  C   UNL     1      -3.289   7.855 -26.050  1.00  0.00     0.210 C 
ENDBRANCH  28  33
ENDBRANCH  25  27
ENDBRANCH   2  21
TORSDOF 8
ENDMDL
MODEL 9
REMARK VINA RESULT:      -8.0      2.092     10.692
REMARK  8 active torsions:
REMARK  status: ('A' for Active; 'I' for Inactive)
REMARK    1  A    between atoms: O_2  and  C_3 
REMARK    2  A    between atoms: C_6  and  C_7 
REMARK    3  A    between atoms: C_7  and  C_8 
REMARK    4  A    between atoms: C_8  and  C_9 
REMARK    5  A    between atoms: C_11  and  N_12 
REMARK       I    between atoms: N_12  and  C_13 
REMARK    6  A    between atoms: C_13  and  C_14 
REMARK    7  A    between atoms: C_18  and  C_19 
REMARK    8  A    between atoms: C_20  and  O_21 
ROOT
HETATM    1  N   UNL     1      -2.153   4.096 -31.163  1.00  0.00    -0.149 N 
HETATM    2  C   UNL     1      -3.379   4.474 -31.650  1.00  0.00     0.290 C 
HETATM    3  O   UNL     1      -3.741   5.606 -31.952  1.00  0.00    -0.265 OA
HETATM    4  H   UNL     1      -2.011   3.122 -30.937  1.00  0.00     0.188 HD
ENDROOT
BRANCH   1   5
HETATM    5  C   UNL     1      -1.102   4.938 -30.963  1.00  0.00     0.747 A 
HETATM    6  N   UNL     1      -1.226   5.956 -30.049  1.00  0.00    -0.046 NA
HETATM    7  C   UNL     1      -0.055   6.558 -30.091  1.00  0.00     0.140 A 
HETATM    8  N   UNL     1       0.736   5.905 -30.991  1.00  0.00    -0.248 N 
HETATM    9  N   UNL     1       0.087   4.891 -31.563  1.00  0.00     0.020 NA
HETATM   10  H   UNL     1       1.693   6.096 -31.264  1.00  0.00     0.191 HD
BRANCH   7  11
HETATM   11  C   UNL     1       0.426   7.729 -29.309  1.00  0.00     0.085 C 
BRANCH  11  12
HETATM   12  C   UNL     1       0.780   7.341 -27.869  1.00  0.00     0.046 C 
BRANCH  12  13
HETATM   13  C   UNL     1      -0.355   7.586 -26.905  1.00  0.00    -0.058 A 
HETATM   14  C   UNL     1      -1.166   6.523 -26.486  1.00  0.00     0.010 A 
HETATM   15  C   UNL     1      -2.204   6.730 -25.570  1.00  0.00     0.037 A 
HETATM   16  C   UNL     1      -2.440   8.004 -25.058  1.00  0.00     0.068 A 
HETATM   17  C   UNL     1      -1.649   9.070 -25.492  1.00  0.00     0.037 A 
HETATM   18  C   UNL     1      -0.612   8.866 -26.408  1.00  0.00     0.010 A 
BRANCH  16  19
HETATM   19  O   UNL     1      -3.406   8.336 -24.148  1.00  0.00    -0.356 OA
HETATM   20  C   UNL     1      -4.433   9.210 -24.597  1.00  0.00     0.210 C 
ENDBRANCH  16  19
ENDBRANCH  12  13
ENDBRANCH  11  12
ENDBRANCH   7  11
ENDBRANCH   1   5
BRANCH   2  21
HETATM   21  C   UNL     1      -4.307   3.336 -31.781  1.00  0.00     0.147 A 
HETATM   22  N   UNL     1      -5.411   3.192 -31.024  1.00  0.00    -0.169 NA
HETATM   23  N   UNL     1      -5.946   2.033 -31.462  1.00  0.00    -0.277 N 
HETATM   24  H   UNL     1      -6.797   1.687 -31.029  1.00  0.00     0.189 HD
HETATM   25  C   UNL     1      -5.259   1.427 -32.485  1.00  0.00     0.065 A 
HETATM   26  C   UNL     1      -4.178   2.261 -32.697  1.00  0.00     0.071 A 
BRANCH  25  27
HETATM   27  C   UNL     1      -5.677   0.172 -33.139  1.00  0.00     0.025 A 
HETATM   28  C   UNL     1      -7.018  -0.112 -33.495  1.00  0.00     0.080 A 
HETATM   29  C   UNL     1      -7.326  -1.329 -34.124  1.00  0.00     0.037 A 
HETATM   30  C   UNL     1      -6.329  -2.265 -34.399  1.00  0.00     0.003 A 
HETATM   31  C   UNL     1      -5.012  -1.998 -34.053  1.00  0.00     0.001 A 
HETATM   32  C   UNL     1      -4.692  -0.792 -33.430  1.00  0.00     0.016 A 
BRANCH  28  33
HETATM   33  O   UNL     1      -7.961   0.847 -33.200  1.00  0.00    -0.355 OA
HETATM   34  C   UNL     1      -8.526   1.569 -34.289  1.00  0.00     0.210 C 
ENDBRANCH  28  33
ENDBRANCH  25  27
ENDBRANCH   2  21
TORSDOF 8
ENDMDL
MODEL 10
REMARK VINA RESULT:      -8.0      2.062      2.792
REMARK  8 active torsions:
REMARK  status: ('A' for Active; 'I' for Inactive)
REMARK    1  A    between atoms: O_2  and  C_3 
REMARK    2  A    between atoms: C_6  and  C_7 
REMARK    3  A    between atoms: C_7  and  C_8 
REMARK    4  A    between atoms: C_8  and  C_9 
REMARK    5  A    between atoms: C_11  and  N_12 
REMARK       I    between atoms: N_12  and  C_13 
REMARK    6  A    between atoms: C_13  and  C_14 
REMARK    7  A    between atoms: C_18  and  C_19 
REMARK    8  A    between atoms: C_20  and  O_21 
ROOT
HETATM    1  N   UNL     1      -5.155   4.975 -32.839  1.00  0.00    -0.149 N 
HETATM    2  C   UNL     1      -4.211   5.591 -33.622  1.00  0.00     0.290 C 
HETATM    3  O   UNL     1      -4.137   5.576 -34.847  1.00  0.00    -0.265 OA
HETATM    4  H   UNL     1      -5.070   5.060 -31.837  1.00  0.00     0.188 HD
ENDROOT
BRANCH   1   5
HETATM    5  C   UNL     1      -6.209   4.254 -33.313  1.00  0.00     0.747 A 
HETATM    6  N   UNL     1      -6.180   2.885 -33.211  1.00  0.00    -0.046 NA
HETATM    7  C   UNL     1      -7.327   2.509 -33.740  1.00  0.00     0.140 A 
HETATM    8  N   UNL     1      -8.013   3.624 -34.126  1.00  0.00    -0.248 N 
HETATM    9  N   UNL     1      -7.315   4.732 -33.880  1.00  0.00     0.020 NA
HETATM   10  H   UNL     1      -8.926   3.700 -34.558  1.00  0.00     0.191 HD
BRANCH   7  11
HETATM   11  C   UNL     1      -7.882   1.137 -33.900  1.00  0.00     0.085 C 
BRANCH  11  12
HETATM   12  C   UNL     1      -7.181   0.372 -35.029  1.00  0.00     0.046 C 
BRANCH  12  13
HETATM   13  C   UNL     1      -6.269  -0.714 -34.515  1.00  0.00    -0.058 A 
HETATM   14  C   UNL     1      -6.327  -2.003 -35.062  1.00  0.00     0.010 A 
HETATM   15  C   UNL     1      -5.466  -3.012 -34.617  1.00  0.00     0.037 A 
HETATM   16  C   UNL     1      -4.532  -2.743 -33.618  1.00  0.00     0.068 A 
HETATM   17  C   UNL     1      -4.487  -1.466 -33.054  1.00  0.00     0.037 A 
HETATM   18  C   UNL     1      -5.346  -0.457 -33.497  1.00  0.00     0.010 A 
BRANCH  16  19
HETATM   19  O   UNL     1      -3.626  -3.632 -33.109  1.00  0.00    -0.356 OA
HETATM   20  C   UNL     1      -2.954  -3.244 -31.917  1.00  0.00     0.210 C 
ENDBRANCH  16  19
ENDBRANCH  12  13
ENDBRANCH  11  12
ENDBRANCH   7  11
ENDBRANCH   1   5
BRANCH   2  21
HETATM   21  C   UNL     1      -3.207   6.318 -32.825  1.00  0.00     0.147 A 
HETATM   22  N   UNL     1      -1.920   6.448 -33.199  1.00  0.00    -0.169 NA
HETATM   23  N   UNL     1      -1.368   7.160 -32.194  1.00  0.00    -0.277 N 
HETATM   24  H   UNL     1      -0.378   7.382 -32.231  1.00  0.00     0.189 HD
HETATM   25  C   UNL     1      -2.238   7.522 -31.194  1.00  0.00     0.065 A 
HETATM   26  C   UNL     1      -3.442   6.968 -31.587  1.00  0.00     0.071 A 
BRANCH  25  27
HETATM   27  C   UNL     1      -1.862   8.326 -30.016  1.00  0.00     0.025 A 
HETATM   28  C   UNL     1      -1.055   7.834 -28.962  1.00  0.00     0.080 A 
HETATM   29  C   UNL     1      -0.738   8.672 -27.881  1.00  0.00     0.037 A 
HETATM   30  C   UNL     1      -1.211   9.984 -27.829  1.00  0.00     0.003 A 
HETATM   31  C   UNL     1      -2.004  10.476 -28.856  1.00  0.00     0.001 A 
HETATM   32  C   UNL     1      -2.325   9.654 -29.937  1.00  0.00     0.016 A 
BRANCH  28  33
HETATM   33  O   UNL     1      -0.615   6.533 -29.064  1.00  0.00    -0.355 OA
HETATM   34  C   UNL     1       0.515   6.159 -28.284  1.00  0.00     0.210 C 
ENDBRANCH  28  33
ENDBRANCH  25  27
ENDBRANCH   2  21
TORSDOF 8
ENDMDL
