MODEL 1
REMARK VINA RESULT:      -9.3      0.000      0.000
REMARK  4 active torsions:
REMARK  status: ('A' for Active; 'I' for Inactive)
REMARK    1  A    between atoms: C_6  and  C_7 
REMARK    2  A    between atoms: C_7  and  C_8 
REMARK    3  A    between atoms: C_18  and  N_19 
REMARK    4  A    between atoms: C_21  and  C_22 
ROOT
HETATM    1  C   UNL     1      -7.299  -0.941 -35.084  1.00  0.00     0.049 C 
HETATM    2  C   UNL     1      -6.067  -1.363 -34.333  1.00  0.00    -0.044 A 
HETATM    3  C   UNL     1      -5.323  -0.508 -33.472  1.00  0.00     0.033 A 
HETATM    4  C   UNL     1      -4.195  -1.060 -32.871  1.00  0.00     0.112 A 
HETATM    5  S   UNL     1      -3.355   0.035 -31.878  1.00  0.00    -0.063 SA
HETATM    6  C   UNL     1      -4.440   1.306 -32.237  1.00  0.00     0.085 A 
HETATM    7  C   UNL     1      -5.469   0.863 -33.052  1.00  0.00     0.060 A 
HETATM    8  N   UNL     1      -3.736  -2.321 -32.994  1.00  0.00    -0.236 NA
HETATM    9  C   UNL     1      -4.471  -3.123 -33.798  1.00  0.00     0.142 A 
HETATM   10  C   UNL     1      -5.617  -2.688 -34.466  1.00  0.00     0.044 A 
ENDROOT
BRANCH   6  11
HETATM   11  C   UNL     1      -4.296   2.628 -31.641  1.00  0.00     0.201 C 
HETATM   12  O   UNL     1      -4.665   2.879 -30.492  1.00  0.00    -0.286 OA
BRANCH  11  13
HETATM   13  C   UNL     1      -3.721   3.767 -32.411  1.00  0.00     0.018 A 
HETATM   14  C   UNL     1      -2.495   4.301 -31.987  1.00  0.00     0.055 A 
HETATM   15  C   UNL     1      -1.992   5.379 -32.682  1.00  0.00     0.106 A 
HETATM   16  C   UNL     1      -2.660   5.930 -33.750  1.00  0.00     0.105 A 
HETATM   17  O   UNL     1      -0.823   6.020 -32.415  1.00  0.00    -0.323 OA
HETATM   18  O   UNL     1      -1.993   6.986 -34.289  1.00  0.00    -0.323 OA
HETATM   19  C   UNL     1      -3.874   5.440 -34.182  1.00  0.00     0.040 A 
HETATM   20  C   UNL     1      -0.834   7.043 -33.432  1.00  0.00     0.352 A 
HETATM   21  C   UNL     1      -4.417   4.349 -33.494  1.00  0.00     0.018 A 
ENDBRANCH  11  13
ENDBRANCH   6  11
BRANCH   7  22
HETATM   22  N   UNL     1      -6.498   1.671 -33.413  1.00  0.00    -0.397 N 
HETATM   23  H   UNL     1      -6.925   2.261 -32.692  1.00  0.00     0.156 HD
HETATM   24  H   UNL     1      -7.188   1.365 -34.090  1.00  0.00     0.156 HD
ENDBRANCH   7  22
BRANCH   9  25
HETATM   25  C   UNL     1      -4.036  -4.571 -33.990  1.00  0.00     0.434 C 
HETATM   26  F   UNL     1      -2.850  -4.725 -34.642  1.00  0.00    -0.165 F 
HETATM   27  F   UNL     1      -3.897  -5.233 -32.803  1.00  0.00    -0.165 F 
HETATM   28  F   UNL     1      -4.948  -5.297 -34.703  1.00  0.00    -0.165 F 
ENDBRANCH   9  25
TORSDOF 4
ENDMDL
MODEL 2
REMARK VINA RESULT:      -9.1      1.609      2.356
REMARK  4 active torsions:
REMARK  status: ('A' for Active; 'I' for Inactive)
REMARK    1  A    between atoms: C_6  and  C_7 
REMARK    2  A    between atoms: C_7  and  C_8 
REMARK    3  A    between atoms: C_18  and  N_19 
REMARK    4  A    between atoms: C_21  and  C_22 
ROOT
HETATM    1  C   UNL     1      -2.563  -3.324 -31.708  1.00  0.00     0.049 C 
HETATM    2  C   UNL     1      -3.672  -2.848 -32.606  1.00  0.00    -0.044 A 
HETATM    3  C   UNL     1      -4.179  -1.519 -32.613  1.00  0.00     0.033 A 
HETATM    4  C   UNL     1      -5.223  -1.256 -33.496  1.00  0.00     0.112 A 
HETATM    5  S   UNL     1      -5.781   0.348 -33.425  1.00  0.00    -0.063 SA
HETATM    6  C   UNL     1      -4.679   0.754 -32.183  1.00  0.00     0.085 A 
HETATM    7  C   UNL     1      -3.850  -0.316 -31.888  1.00  0.00     0.060 A 
HETATM    8  N   UNL     1      -5.797  -2.114 -34.363  1.00  0.00    -0.236 NA
HETATM    9  C   UNL     1      -5.284  -3.366 -34.355  1.00  0.00     0.142 A 
HETATM   10  C   UNL     1      -4.244  -3.758 -33.511  1.00  0.00     0.044 A 
ENDROOT
BRANCH   6  11
HETATM   11  C   UNL     1      -4.606   2.101 -31.632  1.00  0.00     0.201 C 
HETATM   12  O   UNL     1      -4.911   2.355 -30.465  1.00  0.00    -0.286 OA
BRANCH  11  13
HETATM   13  C   UNL     1      -4.187   3.259 -32.470  1.00  0.00     0.018 A 
HETATM   14  C   UNL     1      -2.826   3.602 -32.492  1.00  0.00     0.055 A 
HETATM   15  C   UNL     1      -2.455   4.699 -33.240  1.00  0.00     0.106 A 
HETATM   16  C   UNL     1      -3.374   5.447 -33.937  1.00  0.00     0.105 A 
HETATM   17  O   UNL     1      -1.188   5.173 -33.378  1.00  0.00    -0.323 OA
HETATM   18  O   UNL     1      -2.800   6.485 -34.602  1.00  0.00    -0.323 OA
HETATM   19  C   UNL     1      -4.720   5.147 -33.923  1.00  0.00     0.040 A 
HETATM   20  C   UNL     1      -1.415   6.311 -34.236  1.00  0.00     0.352 A 
HETATM   21  C   UNL     1      -5.132   4.043 -33.169  1.00  0.00     0.018 A 
ENDBRANCH  11  13
ENDBRANCH   6  11
BRANCH   7  22
HETATM   22  N   UNL     1      -2.840  -0.216 -30.987  1.00  0.00    -0.397 N 
HETATM   23  H   UNL     1      -2.897  -0.782 -30.134  1.00  0.00     0.156 HD
HETATM   24  H   UNL     1      -2.390   0.673 -30.805  1.00  0.00     0.156 HD
ENDBRANCH   7  22
BRANCH   9  25
HETATM   25  C   UNL     1      -5.863  -4.404 -35.310  1.00  0.00     0.434 C 
HETATM   26  F   UNL     1      -5.843  -4.040 -36.623  1.00  0.00    -0.165 F 
HETATM   27  F   UNL     1      -5.199  -5.596 -35.245  1.00  0.00    -0.165 F 
HETATM   28  F   UNL     1      -7.166  -4.701 -35.026  1.00  0.00    -0.165 F 
ENDBRANCH   9  25
TORSDOF 4
ENDMDL
MODEL 3
REMARK VINA RESULT:      -9.0      4.785      7.862
REMARK  4 active torsions:
REMARK  status: ('A' for Active; 'I' for Inactive)
REMARK    1  A    between atoms: C_6  and  C_7 
REMARK    2  A    between atoms: C_7  and  C_8 
REMARK    3  A    between atoms: C_18  and  N_19 
REMARK    4  A    between atoms: C_21  and  C_22 
ROOT
HETATM    1  C   UNL     1      -2.618   6.407 -34.583  1.00  0.00     0.049 C 
HETATM    2  C   UNL     1      -2.282   5.572 -33.378  1.00  0.00    -0.044 A 
HETATM    3  C   UNL     1      -3.097   4.516 -32.884  1.00  0.00     0.033 A 
HETATM    4  C   UNL     1      -2.642   3.860 -31.744  1.00  0.00     0.112 A 
HETATM    5  S   UNL     1      -3.687   2.629 -31.211  1.00  0.00    -0.063 SA
HETATM    6  C   UNL     1      -4.812   2.943 -32.458  1.00  0.00     0.085 A 
HETATM    7  C   UNL     1      -4.347   3.933 -33.307  1.00  0.00     0.060 A 
HETATM    8  N   UNL     1      -1.504   4.097 -31.062  1.00  0.00    -0.236 NA
HETATM    9  C   UNL     1      -0.732   5.089 -31.563  1.00  0.00     0.142 A 
HETATM   10  C   UNL     1      -1.081   5.829 -32.694  1.00  0.00     0.044 A 
ENDROOT
BRANCH   6  11
HETATM   11  C   UNL     1      -6.031   2.158 -32.607  1.00  0.00     0.201 C 
HETATM   12  O   UNL     1      -7.112   2.519 -32.138  1.00  0.00    -0.286 OA
BRANCH  11  13
HETATM   13  C   UNL     1      -6.025   0.846 -33.313  1.00  0.00     0.018 A 
HETATM   14  C   UNL     1      -5.022  -0.078 -32.984  1.00  0.00     0.055 A 
HETATM   15  C   UNL     1      -5.003  -1.273 -33.671  1.00  0.00     0.106 A 
HETATM   16  C   UNL     1      -5.921  -1.561 -34.654  1.00  0.00     0.105 A 
HETATM   17  O   UNL     1      -4.111  -2.282 -33.485  1.00  0.00    -0.323 OA
HETATM   18  O   UNL     1      -5.721  -2.786 -35.207  1.00  0.00    -0.323 OA
HETATM   19  C   UNL     1      -6.908  -0.667 -35.013  1.00  0.00     0.040 A 
HETATM   20  C   UNL     1      -4.566  -3.234 -34.468  1.00  0.00     0.352 A 
HETATM   21  C   UNL     1      -6.953   0.558 -34.339  1.00  0.00     0.018 A 
ENDBRANCH  11  13
ENDBRANCH   6  11
BRANCH   7  22
HETATM   22  N   UNL     1      -5.029   4.306 -34.419  1.00  0.00    -0.397 N 
HETATM   23  H   UNL     1      -6.008   4.015 -34.504  1.00  0.00     0.156 HD
HETATM   24  H   UNL     1      -4.576   4.332 -35.325  1.00  0.00     0.156 HD
ENDBRANCH   7  22
BRANCH   9  25
HETATM   25  C   UNL     1       0.582   5.423 -30.865  1.00  0.00     0.434 C 
HETATM   26  F   UNL     1       1.607   4.572 -31.150  1.00  0.00    -0.165 F 
HETATM   27  F   UNL     1       1.035   6.672 -31.182  1.00  0.00    -0.165 F 
HETATM   28  F   UNL     1       0.463   5.417 -29.504  1.00  0.00    -0.165 F 
ENDBRANCH   9  25
TORSDOF 4
ENDMDL
MODEL 4
REMARK VINA RESULT:      -8.8      4.616      7.096
REMARK  4 active torsions:
REMARK  status: ('A' for Active; 'I' for Inactive)
REMARK    1  A    between atoms: C_6  and  C_7 
REMARK    2  A    between atoms: C_7  and  C_8 
REMARK    3  A    between atoms: C_18  and  N_19 
REMARK    4  A    between atoms: C_21  and  C_22 
ROOT
HETATM    1  C   UNL     1      -4.701   0.338 -30.892  1.00  0.00     0.049 C 
HETATM    2  C   UNL     1      -5.207  -0.274 -32.169  1.00  0.00    -0.044 A 
HETATM    3  C   UNL     1      -6.249   0.281 -32.963  1.00  0.00     0.033 A 
HETATM    4  C   UNL     1      -6.605  -0.430 -34.106  1.00  0.00     0.112 A 
HETATM    5  S   UNL     1      -7.870   0.292 -34.983  1.00  0.00    -0.063 SA
HETATM    6  C   UNL     1      -8.024   1.566 -33.854  1.00  0.00     0.085 A 
HETATM    7  C   UNL     1      -7.064   1.466 -32.861  1.00  0.00     0.060 A 
HETATM    8  N   UNL     1      -6.061  -1.576 -34.560  1.00  0.00    -0.236 NA
HETATM    9  C   UNL     1      -5.057  -2.073 -33.802  1.00  0.00     0.142 A 
HETATM   10  C   UNL     1      -4.612  -1.462 -32.629  1.00  0.00     0.044 A 
ENDROOT
BRANCH   6  11
HETATM   11  C   UNL     1      -8.992   2.640 -34.036  1.00  0.00     0.201 C 
HETATM   12  O   UNL     1      -8.678   3.830 -33.980  1.00  0.00    -0.286 OA
BRANCH  11  13
HETATM   13  C   UNL     1     -10.435   2.351 -34.270  1.00  0.00     0.018 A 
HETATM   14  C   UNL     1     -10.996   1.230 -33.640  1.00  0.00     0.055 A 
HETATM   15  C   UNL     1     -12.322   0.950 -33.894  1.00  0.00     0.106 A 
HETATM   16  C   UNL     1     -13.079   1.725 -34.741  1.00  0.00     0.105 A 
HETATM   17  O   UNL     1     -13.028  -0.088 -33.371  1.00  0.00    -0.323 OA
HETATM   18  O   UNL     1     -14.356   1.272 -34.855  1.00  0.00    -0.323 OA
HETATM   19  C   UNL     1     -12.553   2.823 -35.389  1.00  0.00     0.040 A 
HETATM   20  C   UNL     1     -14.314   0.117 -33.992  1.00  0.00     0.352 A 
HETATM   21  C   UNL     1     -11.208   3.133 -35.158  1.00  0.00     0.018 A 
ENDBRANCH  11  13
ENDBRANCH   6  11
BRANCH   7  22
HETATM   22  N   UNL     1      -6.934   2.405 -31.890  1.00  0.00    -0.397 N 
HETATM   23  H   UNL     1      -6.095   2.995 -31.898  1.00  0.00     0.156 HD
HETATM   24  H   UNL     1      -7.240   2.220 -30.941  1.00  0.00     0.156 HD
ENDBRANCH   7  22
BRANCH   9  25
HETATM   25  C   UNL     1      -4.372  -3.362 -34.243  1.00  0.00     0.434 C 
HETATM   26  F   UNL     1      -3.448  -3.842 -33.364  1.00  0.00    -0.165 F 
HETATM   27  F   UNL     1      -5.261  -4.380 -34.441  1.00  0.00    -0.165 F 
HETATM   28  F   UNL     1      -3.714  -3.221 -35.432  1.00  0.00    -0.165 F 
ENDBRANCH   9  25
TORSDOF 4
ENDMDL
MODEL 5
REMARK VINA RESULT:      -8.6      3.630      4.564
REMARK  4 active torsions:
REMARK  status: ('A' for Active; 'I' for Inactive)
REMARK    1  A    between atoms: C_6  and  C_7 
REMARK    2  A    between atoms: C_7  and  C_8 
REMARK    3  A    between atoms: C_18  and  N_19 
REMARK    4  A    between atoms: C_21  and  C_22 
ROOT
HETATM    1  C   UNL     1      -6.574  -1.725 -33.879  1.00  0.00     0.049 C 
HETATM    2  C   UNL     1      -7.149  -0.384 -33.519  1.00  0.00    -0.044 A 
HETATM    3  C   UNL     1      -6.381   0.714 -33.041  1.00  0.00     0.033 A 
HETATM    4  C   UNL     1      -7.080   1.878 -32.737  1.00  0.00     0.112 A 
HETATM    5  S   UNL     1      -6.089   3.130 -32.153  1.00  0.00    -0.063 SA
HETATM    6  C   UNL     1      -4.685   2.159 -32.244  1.00  0.00     0.085 A 
HETATM    7  C   UNL     1      -4.976   0.918 -32.785  1.00  0.00     0.060 A 
HETATM    8  N   UNL     1      -8.404   2.094 -32.864  1.00  0.00    -0.236 NA
HETATM    9  C   UNL     1      -9.113   1.045 -33.342  1.00  0.00     0.142 A 
HETATM   10  C   UNL     1      -8.531  -0.179 -33.675  1.00  0.00     0.044 A 
ENDROOT
BRANCH   6  11
HETATM   11  C   UNL     1      -3.371   2.675 -31.882  1.00  0.00     0.201 C 
HETATM   12  O   UNL     1      -2.620   2.085 -31.102  1.00  0.00    -0.286 OA
BRANCH  11  13
HETATM   13  C   UNL     1      -2.875   3.974 -32.417  1.00  0.00     0.018 A 
HETATM   14  C   UNL     1      -2.758   5.054 -31.530  1.00  0.00     0.055 A 
HETATM   15  C   UNL     1      -2.336   6.262 -32.043  1.00  0.00     0.106 A 
HETATM   16  C   UNL     1      -2.044   6.421 -33.377  1.00  0.00     0.105 A 
HETATM   17  O   UNL     1      -2.164   7.409 -31.334  1.00  0.00    -0.323 OA
HETATM   18  O   UNL     1      -1.651   7.689 -33.674  1.00  0.00    -0.323 OA
HETATM   19  C   UNL     1      -2.165   5.385 -34.279  1.00  0.00     0.040 A 
HETATM   20  C   UNL     1      -1.739   8.312 -32.376  1.00  0.00     0.352 A 
HETATM   21  C   UNL     1      -2.597   4.146 -33.792  1.00  0.00     0.018 A 
ENDBRANCH  11  13
ENDBRANCH   6  11
BRANCH   7  22
HETATM   22  N   UNL     1      -4.010  -0.004 -33.028  1.00  0.00    -0.397 N 
HETATM   23  H   UNL     1      -3.851  -0.733 -32.326  1.00  0.00     0.156 HD
HETATM   24  H   UNL     1      -3.144   0.256 -33.487  1.00  0.00     0.156 HD
ENDBRANCH   7  22
BRANCH   9  25
HETATM   25  C   UNL     1     -10.618   1.198 -33.530  1.00  0.00     0.434 C 
HETATM   26  F   UNL     1     -11.175   2.226 -32.831  1.00  0.00    -0.165 F 
HETATM   27  F   UNL     1     -10.959   1.409 -34.836  1.00  0.00    -0.165 F 
HETATM   28  F   UNL     1     -11.305   0.078 -33.154  1.00  0.00    -0.165 F 
ENDBRANCH   9  25
TORSDOF 4
ENDMDL
MODEL 6
REMARK VINA RESULT:      -8.4      4.994      8.147
REMARK  4 active torsions:
REMARK  status: ('A' for Active; 'I' for Inactive)
REMARK    1  A    between atoms: C_6  and  C_7 
REMARK    2  A    between atoms: C_7  and  C_8 
REMARK    3  A    between atoms: C_18  and  N_19 
REMARK    4  A    between atoms: C_21  and  C_22 
ROOT
HETATM    1  C   UNL     1      -4.367   6.397 -29.648  1.00  0.00     0.049 C 
HETATM    2  C   UNL     1      -3.734   5.696 -30.819  1.00  0.00    -0.044 A 
HETATM    3  C   UNL     1      -3.952   4.328 -31.145  1.00  0.00     0.033 A 
HETATM    4  C   UNL     1      -3.269   3.837 -32.253  1.00  0.00     0.112 A 
HETATM    5  S   UNL     1      -3.571   2.191 -32.557  1.00  0.00    -0.063 SA
HETATM    6  C   UNL     1      -4.598   2.053 -31.199  1.00  0.00     0.085 A 
HETATM    7  C   UNL     1      -4.756   3.277 -30.571  1.00  0.00     0.060 A 
HETATM    8  N   UNL     1      -2.437   4.513 -33.069  1.00  0.00    -0.236 NA
HETATM    9  C   UNL     1      -2.262   5.818 -32.754  1.00  0.00     0.142 A 
HETATM   10  C   UNL     1      -2.882   6.429 -31.663  1.00  0.00     0.044 A 
ENDROOT
BRANCH   6  11
HETATM   11  C   UNL     1      -5.270   0.802 -30.869  1.00  0.00     0.201 C 
HETATM   12  O   UNL     1      -5.444   0.431 -29.706  1.00  0.00    -0.286 OA
BRANCH  11  13
HETATM   13  C   UNL     1      -5.757  -0.119 -31.934  1.00  0.00     0.018 A 
HETATM   14  C   UNL     1      -4.856  -1.058 -32.459  1.00  0.00     0.055 A 
HETATM   15  C   UNL     1      -5.306  -1.880 -33.471  1.00  0.00     0.106 A 
HETATM   16  C   UNL     1      -6.585  -1.789 -33.966  1.00  0.00     0.105 A 
HETATM   17  O   UNL     1      -4.576  -2.843 -34.094  1.00  0.00    -0.323 OA
HETATM   18  O   UNL     1      -6.821  -2.685 -34.960  1.00  0.00    -0.323 OA
HETATM   19  C   UNL     1      -7.490  -0.866 -33.483  1.00  0.00     0.040 A 
HETATM   20  C   UNL     1      -5.540  -3.344 -35.043  1.00  0.00     0.352 A 
HETATM   21  C   UNL     1      -7.064  -0.012 -32.459  1.00  0.00     0.018 A 
ENDBRANCH  11  13
ENDBRANCH   6  11
BRANCH   7  22
HETATM   22  N   UNL     1      -5.588   3.439 -29.510  1.00  0.00    -0.397 N 
HETATM   23  H   UNL     1      -5.993   4.368 -29.353  1.00  0.00     0.156 HD
HETATM   24  H   UNL     1      -5.412   2.964 -28.633  1.00  0.00     0.156 HD
ENDBRANCH   7  22
BRANCH   9  25
HETATM   25  C   UNL     1      -1.347   6.669 -33.627  1.00  0.00     0.434 C 
HETATM   26  F   UNL     1      -0.796   6.008 -34.683  1.00  0.00    -0.165 F 
HETATM   27  F   UNL     1      -1.993   7.748 -34.159  1.00  0.00    -0.165 F 
HETATM   28  F   UNL     1      -0.295   7.188 -32.925  1.00  0.00    -0.165 F 
ENDBRANCH   9  25
TORSDOF 4
ENDMDL
MODEL 7
REMARK VINA RESULT:      -8.4     15.073     16.743
REMARK  4 active torsions:
REMARK  status: ('A' for Active; 'I' for Inactive)
REMARK    1  A    between atoms: C_6  and  C_7 
REMARK    2  A    between atoms: C_7  and  C_8 
REMARK    3  A    between atoms: C_18  and  N_19 
REMARK    4  A    between atoms: C_21  and  C_22 
ROOT
HETATM    1  C   UNL     1      -7.274 -13.599 -35.728  1.00  0.00     0.049 C 
HETATM    2  C   UNL     1      -7.236 -13.281 -37.197  1.00  0.00    -0.044 A 
HETATM    3  C   UNL     1      -6.051 -12.960 -37.915  1.00  0.00     0.033 A 
HETATM    4  C   UNL     1      -6.202 -12.674 -39.269  1.00  0.00     0.112 A 
HETATM    5  S   UNL     1      -4.741 -12.280 -40.044  1.00  0.00    -0.063 SA
HETATM    6  C   UNL     1      -3.846 -12.437 -38.596  1.00  0.00     0.085 A 
HETATM    7  C   UNL     1      -4.658 -12.857 -37.556  1.00  0.00     0.060 A 
HETATM    8  N   UNL     1      -7.343 -12.686 -39.986  1.00  0.00    -0.236 NA
HETATM    9  C   UNL     1      -8.454 -13.017 -39.288  1.00  0.00     0.142 A 
HETATM   10  C   UNL     1      -8.438 -13.316 -37.925  1.00  0.00     0.044 A 
ENDROOT
BRANCH   6  11
HETATM   11  C   UNL     1      -2.402 -12.243 -38.562  1.00  0.00     0.201 C 
HETATM   12  O   UNL     1      -1.887 -11.161 -38.272  1.00  0.00    -0.286 OA
BRANCH  11  13
HETATM   13  C   UNL     1      -1.464 -13.346 -38.913  1.00  0.00     0.018 A 
HETATM   14  C   UNL     1      -0.801 -14.008 -37.869  1.00  0.00     0.055 A 
HETATM   15  C   UNL     1       0.094 -15.001 -38.206  1.00  0.00     0.106 A 
HETATM   16  C   UNL     1       0.347 -15.335 -39.516  1.00  0.00     0.105 A 
HETATM   17  O   UNL     1       0.820 -15.746 -37.331  1.00  0.00    -0.323 OA
HETATM   18  O   UNL     1       1.263 -16.334 -39.628  1.00  0.00    -0.323 OA
HETATM   19  C   UNL     1      -0.275 -14.693 -40.566  1.00  0.00     0.040 A 
HETATM   20  C   UNL     1       1.567 -16.582 -38.240  1.00  0.00     0.352 A 
HETATM   21  C   UNL     1      -1.185 -13.676 -40.258  1.00  0.00     0.018 A 
ENDBRANCH  11  13
ENDBRANCH   6  11
BRANCH   7  22
HETATM   22  N   UNL     1      -4.162 -13.127 -36.321  1.00  0.00    -0.397 N 
HETATM   23  H   UNL     1      -3.274 -12.692 -36.052  1.00  0.00     0.156 HD
HETATM   24  H   UNL     1      -4.256 -14.050 -35.912  1.00  0.00     0.156 HD
ENDBRANCH   7  22
BRANCH   9  25
HETATM   25  C   UNL     1      -9.793 -13.068 -40.017  1.00  0.00     0.434 C 
HETATM   26  F   UNL     1      -9.894 -14.057 -40.948  1.00  0.00    -0.165 F 
HETATM   27  F   UNL     1     -10.842 -13.252 -39.162  1.00  0.00    -0.165 F 
HETATM   28  F   UNL     1     -10.067 -11.905 -40.681  1.00  0.00    -0.165 F 
ENDBRANCH   9  25
TORSDOF 4
ENDMDL
MODEL 8
REMARK VINA RESULT:      -8.3      5.333      8.358
REMARK  4 active torsions:
REMARK  status: ('A' for Active; 'I' for Inactive)
REMARK    1  A    between atoms: C_6  and  C_7 
REMARK    2  A    between atoms: C_7  and  C_8 
REMARK    3  A    between atoms: C_18  and  N_19 
REMARK    4  A    between atoms: C_21  and  C_22 
ROOT
HETATM    1  C   UNL     1      -5.393   6.560 -29.550  1.00  0.00     0.049 C 
HETATM    2  C   UNL     1      -4.440   5.981 -30.558  1.00  0.00    -0.044 A 
HETATM    3  C   UNL     1      -4.351   4.596 -30.870  1.00  0.00     0.033 A 
HETATM    4  C   UNL     1      -3.396   4.232 -31.816  1.00  0.00     0.112 A 
HETATM    5  S   UNL     1      -3.343   2.558 -32.112  1.00  0.00    -0.063 SA
HETATM    6  C   UNL     1      -4.567   2.241 -30.962  1.00  0.00     0.085 A 
HETATM    7  C   UNL     1      -5.052   3.419 -30.418  1.00  0.00     0.060 A 
HETATM    8  N   UNL     1      -2.558   5.044 -32.488  1.00  0.00    -0.236 NA
HETATM    9  C   UNL     1      -2.675   6.360 -32.193  1.00  0.00     0.142 A 
HETATM   10  C   UNL     1      -3.586   6.852 -31.256  1.00  0.00     0.044 A 
ENDROOT
BRANCH   6  11
HETATM   11  C   UNL     1      -5.060   0.892 -30.718  1.00  0.00     0.201 C 
HETATM   12  O   UNL     1      -5.724   0.600 -29.722  1.00  0.00    -0.286 OA
BRANCH  11  13
HETATM   13  C   UNL     1      -4.754  -0.226 -31.655  1.00  0.00     0.018 A 
HETATM   14  C   UNL     1      -5.658  -0.482 -32.697  1.00  0.00     0.055 A 
HETATM   15  C   UNL     1      -5.386  -1.543 -33.534  1.00  0.00     0.106 A 
HETATM   16  C   UNL     1      -4.277  -2.337 -33.362  1.00  0.00     0.105 A 
HETATM   17  O   UNL     1      -6.145  -1.934 -34.592  1.00  0.00    -0.323 OA
HETATM   18  O   UNL     1      -4.199  -3.327 -34.291  1.00  0.00    -0.323 OA
HETATM   19  C   UNL     1      -3.378  -2.122 -32.339  1.00  0.00     0.040 A 
HETATM   20  C   UNL     1      -5.392  -3.072 -35.062  1.00  0.00     0.352 A 
HETATM   21  C   UNL     1      -3.627  -1.057 -31.467  1.00  0.00     0.018 A 
ENDBRANCH  11  13
ENDBRANCH   6  11
BRANCH   7  22
HETATM   22  N   UNL     1      -6.082   3.433 -29.535  1.00  0.00    -0.397 N 
HETATM   23  H   UNL     1      -5.861   3.427 -28.534  1.00  0.00     0.156 HD
HETATM   24  H   UNL     1      -6.936   2.919 -29.723  1.00  0.00     0.156 HD
ENDBRANCH   7  22
BRANCH   9  25
HETATM   25  C   UNL     1      -1.775   7.358 -32.911  1.00  0.00     0.434 C 
HETATM   26  F   UNL     1      -0.451   7.040 -32.897  1.00  0.00    -0.165 F 
HETATM   27  F   UNL     1      -2.109   7.505 -34.227  1.00  0.00    -0.165 F 
HETATM   28  F   UNL     1      -1.860   8.613 -32.375  1.00  0.00    -0.165 F 
ENDBRANCH   9  25
TORSDOF 4
ENDMDL
MODEL 9
REMARK VINA RESULT:      -8.2      4.264      5.933
REMARK  4 active torsions:
REMARK  status: ('A' for Active; 'I' for Inactive)
REMARK    1  A    between atoms: C_6  and  C_7 
REMARK    2  A    between atoms: C_7  and  C_8 
REMARK    3  A    between atoms: C_18  and  N_19 
REMARK    4  A    between atoms: C_21  and  C_22 
ROOT
HETATM    1  C   UNL     1      -3.264  -0.732 -32.643  1.00  0.00     0.049 C 
HETATM    2  C   UNL     1      -4.535  -1.112 -33.349  1.00  0.00    -0.044 A 
HETATM    3  C   UNL     1      -5.618  -0.219 -33.583  1.00  0.00     0.033 A 
HETATM    4  C   UNL     1      -6.728  -0.745 -34.237  1.00  0.00     0.112 A 
HETATM    5  S   UNL     1      -7.981   0.383 -34.455  1.00  0.00    -0.063 SA
HETATM    6  C   UNL     1      -7.110   1.615 -33.653  1.00  0.00     0.085 A 
HETATM    7  C   UNL     1      -5.848   1.174 -33.291  1.00  0.00     0.060 A 
HETATM    8  N   UNL     1      -6.890  -2.003 -34.693  1.00  0.00    -0.236 NA
HETATM    9  C   UNL     1      -5.839  -2.829 -34.481  1.00  0.00     0.142 A 
HETATM   10  C   UNL     1      -4.672  -2.426 -33.830  1.00  0.00     0.044 A 
ENDROOT
BRANCH   6  11
HETATM   11  C   UNL     1      -7.648   2.961 -33.502  1.00  0.00     0.201 C 
HETATM   12  O   UNL     1      -7.135   3.943 -34.043  1.00  0.00    -0.286 OA
BRANCH  11  13
HETATM   13  C   UNL     1      -8.841   3.228 -32.650  1.00  0.00     0.018 A 
HETATM   14  C   UNL     1     -10.081   3.401 -33.283  1.00  0.00     0.055 A 
HETATM   15  C   UNL     1     -11.171   3.686 -32.488  1.00  0.00     0.106 A 
HETATM   16  C   UNL     1     -11.061   3.809 -31.122  1.00  0.00     0.105 A 
HETATM   17  O   UNL     1     -12.443   3.883 -32.925  1.00  0.00    -0.323 OA
HETATM   18  O   UNL     1     -12.252   4.096 -30.531  1.00  0.00    -0.323 OA
HETATM   19  C   UNL     1      -9.855   3.661 -30.472  1.00  0.00     0.040 A 
HETATM   20  C   UNL     1     -13.121   4.151 -31.681  1.00  0.00     0.352 A 
HETATM   21  C   UNL     1      -8.727   3.377 -31.249  1.00  0.00     0.018 A 
ENDBRANCH  11  13
ENDBRANCH   6  11
BRANCH   7  22
HETATM   22  N   UNL     1      -4.940   1.996 -32.707  1.00  0.00    -0.397 N 
HETATM   23  H   UNL     1      -5.030   3.005 -32.864  1.00  0.00     0.156 HD
HETATM   24  H   UNL     1      -3.966   1.725 -32.629  1.00  0.00     0.156 HD
ENDBRANCH   7  22
BRANCH   9  25
HETATM   25  C   UNL     1      -5.925  -4.269 -34.973  1.00  0.00     0.434 C 
HETATM   26  F   UNL     1      -5.988  -4.403 -36.327  1.00  0.00    -0.165 F 
HETATM   27  F   UNL     1      -4.855  -5.018 -34.574  1.00  0.00    -0.165 F 
HETATM   28  F   UNL     1      -7.023  -4.920 -34.484  1.00  0.00    -0.165 F 
ENDBRANCH   9  25
TORSDOF 4
ENDMDL
MODEL 10
REMARK VINA RESULT:      -8.0      5.445      7.789
REMARK  4 active torsions:
REMARK  status: ('A' for Active; 'I' for Inactive)
REMARK    1  A    between atoms: C_6  and  C_7 
REMARK    2  A    between atoms: C_7  and  C_8 
REMARK    3  A    between atoms: C_18  and  N_19 
REMARK    4  A    between atoms: C_21  and  C_22 
ROOT
HETATM    1  C   UNL     1      -6.218   0.716 -29.907  1.00  0.00     0.049 C 
HETATM    2  C   UNL     1      -6.353   0.274 -31.338  1.00  0.00    -0.044 A 
HETATM    3  C   UNL     1      -7.298   0.811 -32.256  1.00  0.00     0.033 A 
HETATM    4  C   UNL     1      -7.297   0.270 -33.538  1.00  0.00     0.112 A 
HETATM    5  S   UNL     1      -8.470   0.954 -34.561  1.00  0.00    -0.063 SA
HETATM    6  C   UNL     1      -9.056   1.979 -33.325  1.00  0.00     0.085 A 
HETATM    7  C   UNL     1      -8.306   1.839 -32.169  1.00  0.00     0.060 A 
HETATM    8  N   UNL     1      -6.489  -0.695 -34.019  1.00  0.00    -0.236 NA
HETATM    9  C   UNL     1      -5.583  -1.176 -33.136  1.00  0.00     0.142 A 
HETATM   10  C   UNL     1      -5.487  -0.724 -31.819  1.00  0.00     0.044 A 
ENDROOT
BRANCH   6  11
HETATM   11  C   UNL     1     -10.138   2.926 -33.563  1.00  0.00     0.201 C 
HETATM   12  O   UNL     1      -9.940   4.135 -33.698  1.00  0.00    -0.286 OA
BRANCH  11  13
HETATM   13  C   UNL     1     -11.558   2.482 -33.621  1.00  0.00     0.018 A 
HETATM   14  C   UNL     1     -12.453   2.998 -32.672  1.00  0.00     0.055 A 
HETATM   15  C   UNL     1     -13.756   2.550 -32.711  1.00  0.00     0.106 A 
HETATM   16  C   UNL     1     -14.178   1.623 -33.634  1.00  0.00     0.105 A 
HETATM   17  O   UNL     1     -14.755   2.941 -31.875  1.00  0.00    -0.323 OA
HETATM   18  O   UNL     1     -15.496   1.316 -33.496  1.00  0.00    -0.323 OA
HETATM   19  C   UNL     1     -13.321   1.084 -34.570  1.00  0.00     0.040 A 
HETATM   20  C   UNL     1     -15.853   2.148 -32.372  1.00  0.00     0.352 A 
HETATM   21  C   UNL     1     -11.989   1.512 -34.555  1.00  0.00     0.018 A 
ENDBRANCH  11  13
ENDBRANCH   6  11
BRANCH   7  22
HETATM   22  N   UNL     1      -8.530   2.603 -31.070  1.00  0.00    -0.397 N 
HETATM   23  H   UNL     1      -9.030   2.179 -30.282  1.00  0.00     0.156 HD
HETATM   24  H   UNL     1      -8.753   3.588 -31.156  1.00  0.00     0.156 HD
ENDBRANCH   7  22
BRANCH   9  25
HETATM   25  C   UNL     1      -4.616  -2.263 -33.593  1.00  0.00     0.434 C 
HETATM   26  F   UNL     1      -3.712  -1.861 -34.529  1.00  0.00    -0.165 F 
HETATM   27  F   UNL     1      -3.882  -2.771 -32.559  1.00  0.00    -0.165 F 
HETATM   28  F   UNL     1      -5.263  -3.337 -34.138  1.00  0.00    -0.165 F 
ENDBRANCH   9  25
TORSDOF 4
ENDMDL
