MODEL 1
REMARK VINA RESULT:      -8.5      0.000      0.000
REMARK  5 active torsions:
REMARK  status: ('A' for Active; 'I' for Inactive)
REMARK    1  A    between atoms: C_2  and  C_3 
REMARK    2  A    between atoms: C_6  and  C_7 
REMARK    3  A    between atoms: C_7  and  N_8 
REMARK    4  A    between atoms: C_7  and  C_21 
REMARK       I    between atoms: N_8  and  C_9 
REMARK       I    between atoms: C_9  and  N_10 
REMARK    5  A    between atoms: N_10  and  N_11 
ROOT
HETATM    1  N   UNL     1      -7.660   1.921 -32.363  1.00  0.00    -0.333 N 
HETATM    2  C   UNL     1      -8.973   2.223 -32.202  1.00  0.00     0.335 C 
HETATM    3  N   UNL     1      -9.665   2.538 -33.330  1.00  0.00    -0.244 N 
HETATM    4  O   UNL     1      -9.442   2.243 -31.068  1.00  0.00    -0.246 OA
HETATM    5  H   UNL     1      -7.216   1.687 -31.485  1.00  0.00     0.165 HD
HETATM    6  H   UNL     1      -9.415   2.048 -34.173  1.00  0.00     0.192 HD
ENDROOT
BRANCH   1   7
HETATM    7  C   UNL     1      -6.816   1.932 -33.558  1.00  0.00     0.122 C 
BRANCH   7   8
HETATM    8  C   UNL     1      -6.448   0.495 -33.896  1.00  0.00    -0.035 A 
HETATM    9  C   UNL     1      -5.267  -0.066 -33.390  1.00  0.00     0.010 A 
HETATM   10  C   UNL     1      -4.923  -1.389 -33.682  1.00  0.00     0.007 A 
HETATM   11  C   UNL     1      -5.748  -2.176 -34.494  1.00  0.00    -0.059 A 
HETATM   12  C   UNL     1      -6.926  -1.619 -35.004  1.00  0.00     0.007 A 
HETATM   13  C   UNL     1      -7.271  -0.299 -34.711  1.00  0.00     0.010 A 
BRANCH  11  14
HETATM   14  C   UNL     1      -5.393  -3.611 -34.788  1.00  0.00     0.034 C 
HETATM   15  C   UNL     1      -6.621  -4.427 -35.164  1.00  0.00     0.010 C 
ENDBRANCH  11  14
ENDBRANCH   7   8
BRANCH   7  16
HETATM   16  C   UNL     1      -5.580   2.855 -33.362  1.00  0.00     0.005 C 
HETATM   17  C   UNL     1      -5.680   4.127 -34.215  1.00  0.00     0.012 C 
HETATM   18  C   UNL     1      -5.420   3.262 -31.890  1.00  0.00     0.012 C 
ENDBRANCH   7  16
ENDBRANCH   1   7
BRANCH   3  19
HETATM   19  N   UNL     1     -11.005   2.724 -33.215  1.00  0.00    -0.244 N 
HETATM   20  C   UNL     1     -11.939   1.742 -33.392  1.00  0.00     0.086 A 
HETATM   21  C   UNL     1     -13.139   2.454 -33.421  1.00  0.00     0.086 A 
HETATM   22  C   UNL     1     -11.874   0.350 -33.537  1.00  0.00     0.034 A 
HETATM   23  C   UNL     1     -14.344   1.757 -33.599  1.00  0.00     0.034 A 
HETATM   24  N   UNL     1     -12.927   3.809 -33.278  1.00  0.00    -0.240 NA
HETATM   25  C   UNL     1     -14.303   0.366 -33.750  1.00  0.00     0.002 A 
HETATM   26  C   UNL     1     -13.089  -0.323 -33.719  1.00  0.00     0.002 A 
HETATM   27  C   UNL     1     -11.621   3.937 -33.162  1.00  0.00     0.234 A 
ENDBRANCH   3  19
TORSDOF 5
ENDMDL
MODEL 2
REMARK VINA RESULT:      -8.3      3.150      7.000
REMARK  5 active torsions:
REMARK  status: ('A' for Active; 'I' for Inactive)
REMARK    1  A    between atoms: C_2  and  C_3 
REMARK    2  A    between atoms: C_6  and  C_7 
REMARK    3  A    between atoms: C_7  and  N_8 
REMARK    4  A    between atoms: C_7  and  C_21 
REMARK       I    between atoms: N_8  and  C_9 
REMARK       I    between atoms: C_9  and  N_10 
REMARK    5  A    between atoms: N_10  and  N_11 
ROOT
HETATM    1  N   UNL     1      -6.673   2.849 -33.393  1.00  0.00    -0.333 N 
HETATM    2  C   UNL     1      -6.088   4.072 -33.429  1.00  0.00     0.335 C 
HETATM    3  N   UNL     1      -5.212   4.355 -32.428  1.00  0.00    -0.244 N 
HETATM    4  O   UNL     1      -6.411   4.858 -34.315  1.00  0.00    -0.246 OA
HETATM    5  H   UNL     1      -7.300   2.707 -34.173  1.00  0.00     0.165 HD
HETATM    6  H   UNL     1      -4.647   3.595 -32.084  1.00  0.00     0.192 HD
ENDROOT
BRANCH   1   7
HETATM    7  C   UNL     1      -6.573   1.770 -32.411  1.00  0.00     0.122 C 
BRANCH   7   8
HETATM    8  C   UNL     1      -6.315   0.467 -33.154  1.00  0.00    -0.035 A 
HETATM    9  C   UNL     1      -5.290  -0.391 -32.735  1.00  0.00     0.010 A 
HETATM   10  C   UNL     1      -5.051  -1.597 -33.400  1.00  0.00     0.007 A 
HETATM   11  C   UNL     1      -5.826  -1.965 -34.505  1.00  0.00    -0.059 A 
HETATM   12  C   UNL     1      -6.850  -1.110 -34.930  1.00  0.00     0.007 A 
HETATM   13  C   UNL     1      -7.090   0.093 -34.264  1.00  0.00     0.010 A 
BRANCH  11  14
HETATM   14  C   UNL     1      -5.589  -3.278 -35.207  1.00  0.00     0.034 C 
HETATM   15  C   UNL     1      -6.716  -4.267 -34.946  1.00  0.00     0.010 C 
ENDBRANCH  11  14
ENDBRANCH   7   8
BRANCH   7  16
HETATM   16  C   UNL     1      -7.834   1.721 -31.502  1.00  0.00     0.005 C 
HETATM   17  C   UNL     1      -7.701   2.661 -30.295  1.00  0.00     0.012 C 
HETATM   18  C   UNL     1      -9.097   2.104 -32.286  1.00  0.00     0.012 C 
ENDBRANCH   7  16
ENDBRANCH   1   7
BRANCH   3  19
HETATM   19  N   UNL     1      -4.522   5.522 -32.506  1.00  0.00    -0.244 N 
HETATM   20  C   UNL     1      -3.333   5.673 -33.163  1.00  0.00     0.086 A 
HETATM   21  C   UNL     1      -2.910   6.940 -32.756  1.00  0.00     0.086 A 
HETATM   22  C   UNL     1      -2.593   4.866 -34.037  1.00  0.00     0.034 A 
HETATM   23  C   UNL     1      -1.692   7.441 -33.238  1.00  0.00     0.034 A 
HETATM   24  N   UNL     1      -3.807   7.515 -31.881  1.00  0.00    -0.240 NA
HETATM   25  C   UNL     1      -0.934   6.651 -34.109  1.00  0.00     0.002 A 
HETATM   26  C   UNL     1      -1.379   5.386 -34.501  1.00  0.00     0.002 A 
HETATM   27  C   UNL     1      -4.768   6.625 -31.746  1.00  0.00     0.234 A 
ENDBRANCH   3  19
TORSDOF 5
ENDMDL
MODEL 3
REMARK VINA RESULT:      -8.1      4.340      7.547
REMARK  5 active torsions:
REMARK  status: ('A' for Active; 'I' for Inactive)
REMARK    1  A    between atoms: C_2  and  C_3 
REMARK    2  A    between atoms: C_6  and  C_7 
REMARK    3  A    between atoms: C_7  and  N_8 
REMARK    4  A    between atoms: C_7  and  C_21 
REMARK       I    between atoms: N_8  and  C_9 
REMARK       I    between atoms: C_9  and  N_10 
REMARK    5  A    between atoms: N_10  and  N_11 
ROOT
HETATM    1  N   UNL     1      -5.637   2.522 -33.110  1.00  0.00    -0.333 N 
HETATM    2  C   UNL     1      -4.866   3.606 -33.377  1.00  0.00     0.335 C 
HETATM    3  N   UNL     1      -3.660   3.661 -32.751  1.00  0.00    -0.244 N 
HETATM    4  O   UNL     1      -5.310   4.481 -34.115  1.00  0.00    -0.246 OA
HETATM    5  H   UNL     1      -6.511   2.545 -33.618  1.00  0.00     0.165 HD
HETATM    6  H   UNL     1      -3.178   2.789 -32.607  1.00  0.00     0.192 HD
ENDROOT
BRANCH   1   7
HETATM    7  C   UNL     1      -5.424   1.400 -32.196  1.00  0.00     0.122 C 
BRANCH   7   8
HETATM    8  C   UNL     1      -5.467   0.111 -33.004  1.00  0.00    -0.035 A 
HETATM    9  C   UNL     1      -6.609  -0.215 -33.749  1.00  0.00     0.010 A 
HETATM   10  C   UNL     1      -6.657  -1.389 -34.505  1.00  0.00     0.007 A 
HETATM   11  C   UNL     1      -5.567  -2.267 -34.526  1.00  0.00    -0.059 A 
HETATM   12  C   UNL     1      -4.426  -1.948 -33.782  1.00  0.00     0.007 A 
HETATM   13  C   UNL     1      -4.377  -0.774 -33.028  1.00  0.00     0.010 A 
BRANCH  11  14
HETATM   14  C   UNL     1      -5.606  -3.520 -35.363  1.00  0.00     0.034 C 
HETATM   15  C   UNL     1      -6.738  -4.444 -34.941  1.00  0.00     0.010 C 
ENDBRANCH  11  14
ENDBRANCH   7   8
BRANCH   7  16
HETATM   16  C   UNL     1      -6.448   1.428 -31.026  1.00  0.00     0.005 C 
HETATM   17  C   UNL     1      -6.314   0.193 -30.124  1.00  0.00     0.012 C 
HETATM   18  C   UNL     1      -6.272   2.687 -30.165  1.00  0.00     0.012 C 
ENDBRANCH   7  16
ENDBRANCH   1   7
BRANCH   3  19
HETATM   19  N   UNL     1      -2.819   4.670 -33.095  1.00  0.00    -0.244 N 
HETATM   20  C   UNL     1      -2.714   5.852 -32.415  1.00  0.00     0.086 A 
HETATM   21  C   UNL     1      -1.937   6.635 -33.270  1.00  0.00     0.086 A 
HETATM   22  C   UNL     1      -3.204   6.318 -31.189  1.00  0.00     0.034 A 
HETATM   23  C   UNL     1      -1.622   7.950 -32.895  1.00  0.00     0.034 A 
HETATM   24  N   UNL     1      -1.602   5.950 -34.419  1.00  0.00    -0.240 NA
HETATM   25  C   UNL     1      -2.104   8.438 -31.675  1.00  0.00     0.002 A 
HETATM   26  C   UNL     1      -2.881   7.634 -30.839  1.00  0.00     0.002 A 
HETATM   27  C   UNL     1      -2.159   4.765 -34.282  1.00  0.00     0.234 A 
ENDBRANCH   3  19
TORSDOF 5
ENDMDL
MODEL 4
REMARK VINA RESULT:      -7.9      4.347      7.920
REMARK  5 active torsions:
REMARK  status: ('A' for Active; 'I' for Inactive)
REMARK    1  A    between atoms: C_2  and  C_3 
REMARK    2  A    between atoms: C_6  and  C_7 
REMARK    3  A    between atoms: C_7  and  N_8 
REMARK    4  A    between atoms: C_7  and  C_21 
REMARK       I    between atoms: N_8  and  C_9 
REMARK       I    between atoms: C_9  and  N_10 
REMARK    5  A    between atoms: N_10  and  N_11 
ROOT
HETATM    1  N   UNL     1      -4.826   2.543 -32.647  1.00  0.00    -0.333 N 
HETATM    2  C   UNL     1      -4.430   3.815 -32.393  1.00  0.00     0.335 C 
HETATM    3  N   UNL     1      -3.924   4.057 -31.154  1.00  0.00    -0.244 N 
HETATM    4  O   UNL     1      -4.592   4.670 -33.259  1.00  0.00    -0.246 OA
HETATM    5  H   UNL     1      -5.178   2.437 -33.589  1.00  0.00     0.165 HD
HETATM    6  H   UNL     1      -3.383   3.323 -30.728  1.00  0.00     0.192 HD
ENDROOT
BRANCH   1   7
HETATM    7  C   UNL     1      -4.863   1.363 -31.783  1.00  0.00     0.122 C 
BRANCH   7   8
HETATM    8  C   UNL     1      -5.030   0.132 -32.662  1.00  0.00    -0.035 A 
HETATM    9  C   UNL     1      -6.063   0.077 -33.608  1.00  0.00     0.010 A 
HETATM   10  C   UNL     1      -6.220  -1.042 -34.430  1.00  0.00     0.007 A 
HETATM   11  C   UNL     1      -5.353  -2.134 -34.318  1.00  0.00    -0.059 A 
HETATM   12  C   UNL     1      -4.321  -2.086 -33.373  1.00  0.00     0.007 A 
HETATM   13  C   UNL     1      -4.163  -0.967 -32.553  1.00  0.00     0.010 A 
BRANCH  11  14
HETATM   14  C   UNL     1      -5.502  -3.330 -35.223  1.00  0.00     0.034 C 
HETATM   15  C   UNL     1      -6.752  -4.133 -34.891  1.00  0.00     0.010 C 
ENDBRANCH  11  14
ENDBRANCH   7   8
BRANCH   7  16
HETATM   16  C   UNL     1      -5.967   1.499 -30.697  1.00  0.00     0.005 C 
HETATM   17  C   UNL     1      -7.300   1.969 -31.297  1.00  0.00     0.012 C 
HETATM   18  C   UNL     1      -6.198   0.166 -29.971  1.00  0.00     0.012 C 
ENDBRANCH   7  16
ENDBRANCH   1   7
BRANCH   3  19
HETATM   19  N   UNL     1      -3.410   5.290 -30.914  1.00  0.00    -0.244 N 
HETATM   20  C   UNL     1      -2.079   5.595 -30.975  1.00  0.00     0.086 A 
HETATM   21  C   UNL     1      -2.026   6.875 -30.418  1.00  0.00     0.086 A 
HETATM   22  C   UNL     1      -0.942   4.916 -31.432  1.00  0.00     0.034 A 
HETATM   23  C   UNL     1      -0.786   7.522 -30.307  1.00  0.00     0.034 A 
HETATM   24  N   UNL     1      -3.276   7.309 -30.030  1.00  0.00    -0.240 NA
HETATM   25  C   UNL     1       0.363   6.860 -30.754  1.00  0.00     0.002 A 
HETATM   26  C   UNL     1       0.284   5.580 -31.306  1.00  0.00     0.002 A 
HETATM   27  C   UNL     1      -4.089   6.320 -30.339  1.00  0.00     0.234 A 
ENDBRANCH   3  19
TORSDOF 5
ENDMDL
MODEL 5
REMARK VINA RESULT:      -7.8     14.716     17.765
REMARK  5 active torsions:
REMARK  status: ('A' for Active; 'I' for Inactive)
REMARK    1  A    between atoms: C_2  and  C_3 
REMARK    2  A    between atoms: C_6  and  C_7 
REMARK    3  A    between atoms: C_7  and  N_8 
REMARK    4  A    between atoms: C_7  and  C_21 
REMARK       I    between atoms: N_8  and  C_9 
REMARK       I    between atoms: C_9  and  N_10 
REMARK    5  A    between atoms: N_10  and  N_11 
ROOT
HETATM    1  N   UNL     1      -4.996 -12.896 -37.118  1.00  0.00    -0.333 N 
HETATM    2  C   UNL     1      -3.794 -13.023 -37.734  1.00  0.00     0.335 C 
HETATM    3  N   UNL     1      -3.483 -14.260 -38.206  1.00  0.00    -0.244 N 
HETATM    4  O   UNL     1      -3.049 -12.049 -37.787  1.00  0.00    -0.246 OA
HETATM    5  H   UNL     1      -5.162 -11.948 -36.805  1.00  0.00     0.165 HD
HETATM    6  H   UNL     1      -4.239 -14.814 -38.574  1.00  0.00     0.192 HD
ENDROOT
BRANCH   1   7
HETATM    7  C   UNL     1      -6.022 -13.892 -36.808  1.00  0.00     0.122 C 
BRANCH   7   8
HETATM    8  C   UNL     1      -7.222 -13.638 -37.708  1.00  0.00    -0.035 A 
HETATM    9  C   UNL     1      -8.158 -14.657 -37.937  1.00  0.00     0.010 A 
HETATM   10  C   UNL     1      -9.272 -14.434 -38.750  1.00  0.00     0.007 A 
HETATM   11  C   UNL     1      -9.470 -13.191 -39.361  1.00  0.00    -0.059 A 
HETATM   12  C   UNL     1      -8.537 -12.171 -39.138  1.00  0.00     0.007 A 
HETATM   13  C   UNL     1      -7.426 -12.393 -38.324  1.00  0.00     0.010 A 
BRANCH  11  14
HETATM   14  C   UNL     1     -10.685 -12.939 -40.216  1.00  0.00     0.034 C 
HETATM   15  C   UNL     1     -10.861 -11.459 -40.521  1.00  0.00     0.010 C 
ENDBRANCH  11  14
ENDBRANCH   7   8
BRANCH   7  16
HETATM   16  C   UNL     1      -6.374 -13.880 -35.294  1.00  0.00     0.005 C 
HETATM   17  C   UNL     1      -6.574 -15.300 -34.746  1.00  0.00     0.012 C 
HETATM   18  C   UNL     1      -5.276 -13.188 -34.474  1.00  0.00     0.012 C 
ENDBRANCH   7  16
ENDBRANCH   1   7
BRANCH   3  19
HETATM   19  N   UNL     1      -2.343 -14.388 -38.932  1.00  0.00    -0.244 N 
HETATM   20  C   UNL     1      -1.140 -14.781 -38.417  1.00  0.00     0.086 A 
HETATM   21  C   UNL     1      -0.252 -14.519 -39.462  1.00  0.00     0.086 A 
HETATM   22  C   UNL     1      -0.734 -15.313 -37.187  1.00  0.00     0.034 A 
HETATM   23  C   UNL     1       1.112 -14.799 -39.287  1.00  0.00     0.034 A 
HETATM   24  N   UNL     1      -0.900 -13.979 -40.553  1.00  0.00    -0.240 NA
HETATM   25  C   UNL     1       1.541 -15.328 -38.064  1.00  0.00     0.002 A 
HETATM   26  C   UNL     1       0.633 -15.579 -37.034  1.00  0.00     0.002 A 
HETATM   27  C   UNL     1      -2.165 -13.907 -40.194  1.00  0.00     0.234 A 
ENDBRANCH   3  19
TORSDOF 5
ENDMDL
MODEL 6
REMARK VINA RESULT:      -7.8      1.984      6.758
REMARK  5 active torsions:
REMARK  status: ('A' for Active; 'I' for Inactive)
REMARK    1  A    between atoms: C_2  and  C_3 
REMARK    2  A    between atoms: C_6  and  C_7 
REMARK    3  A    between atoms: C_7  and  N_8 
REMARK    4  A    between atoms: C_7  and  C_21 
REMARK       I    between atoms: N_8  and  C_9 
REMARK       I    between atoms: C_9  and  N_10 
REMARK    5  A    between atoms: N_10  and  N_11 
ROOT
HETATM    1  N   UNL     1      -7.957   2.898 -33.417  1.00  0.00    -0.333 N 
HETATM    2  C   UNL     1      -6.875   2.129 -33.696  1.00  0.00     0.335 C 
HETATM    3  N   UNL     1      -6.632   1.093 -32.848  1.00  0.00    -0.244 N 
HETATM    4  O   UNL     1      -6.162   2.432 -34.648  1.00  0.00    -0.246 OA
HETATM    5  H   UNL     1      -8.080   3.638 -34.095  1.00  0.00     0.165 HD
HETATM    6  H   UNL     1      -7.432   0.621 -32.460  1.00  0.00     0.192 HD
ENDROOT
BRANCH   1   7
HETATM    7  C   UNL     1      -8.903   2.848 -32.302  1.00  0.00     0.122 C 
BRANCH   7   8
HETATM    8  C   UNL     1     -10.155   2.119 -32.768  1.00  0.00    -0.035 A 
HETATM    9  C   UNL     1     -10.155   0.721 -32.878  1.00  0.00     0.010 A 
HETATM   10  C   UNL     1     -11.302   0.038 -33.292  1.00  0.00     0.007 A 
HETATM   11  C   UNL     1     -12.470   0.738 -33.615  1.00  0.00    -0.059 A 
HETATM   12  C   UNL     1     -12.473   2.134 -33.510  1.00  0.00     0.007 A 
HETATM   13  C   UNL     1     -11.329   2.816 -33.094  1.00  0.00     0.010 A 
BRANCH  11  14
HETATM   14  C   UNL     1     -13.716   0.002 -34.035  1.00  0.00     0.034 C 
HETATM   15  C   UNL     1     -14.924   0.926 -34.087  1.00  0.00     0.010 C 
ENDBRANCH  11  14
ENDBRANCH   7   8
BRANCH   7  16
HETATM   16  C   UNL     1      -9.190   4.272 -31.747  1.00  0.00     0.005 C 
HETATM   17  C   UNL     1      -8.969   4.346 -30.230  1.00  0.00     0.012 C 
HETATM   18  C   UNL     1      -8.298   5.321 -32.425  1.00  0.00     0.012 C 
ENDBRANCH   7  16
ENDBRANCH   1   7
BRANCH   3  19
HETATM   19  N   UNL     1      -5.630   0.237 -33.173  1.00  0.00    -0.244 N 
HETATM   20  C   UNL     1      -5.818  -0.988 -33.750  1.00  0.00     0.086 A 
HETATM   21  C   UNL     1      -4.555  -1.575 -33.654  1.00  0.00     0.086 A 
HETATM   22  C   UNL     1      -6.919  -1.637 -34.323  1.00  0.00     0.034 A 
HETATM   23  C   UNL     1      -4.364  -2.874 -34.152  1.00  0.00     0.034 A 
HETATM   24  N   UNL     1      -3.653  -0.738 -33.032  1.00  0.00    -0.240 NA
HETATM   25  C   UNL     1      -5.452  -3.543 -34.725  1.00  0.00     0.002 A 
HETATM   26  C   UNL     1      -6.706  -2.933 -34.808  1.00  0.00     0.002 A 
HETATM   27  C   UNL     1      -4.341   0.349 -32.748  1.00  0.00     0.234 A 
ENDBRANCH   3  19
TORSDOF 5
ENDMDL
MODEL 7
REMARK VINA RESULT:      -7.7      2.499      6.463
REMARK  5 active torsions:
REMARK  status: ('A' for Active; 'I' for Inactive)
REMARK    1  A    between atoms: C_2  and  C_3 
REMARK    2  A    between atoms: C_6  and  C_7 
REMARK    3  A    between atoms: C_7  and  N_8 
REMARK    4  A    between atoms: C_7  and  C_21 
REMARK       I    between atoms: N_8  and  C_9 
REMARK       I    between atoms: C_9  and  N_10 
REMARK    5  A    between atoms: N_10  and  N_11 
ROOT
HETATM    1  N   UNL     1      -8.058   3.036 -33.942  1.00  0.00    -0.333 N 
HETATM    2  C   UNL     1      -7.232   4.003 -33.470  1.00  0.00     0.335 C 
HETATM    3  N   UNL     1      -6.795   3.855 -32.190  1.00  0.00    -0.244 N 
HETATM    4  O   UNL     1      -6.968   4.961 -34.190  1.00  0.00    -0.246 OA
HETATM    5  H   UNL     1      -8.330   3.206 -34.901  1.00  0.00     0.165 HD
HETATM    6  H   UNL     1      -6.620   2.917 -31.870  1.00  0.00     0.192 HD
ENDROOT
BRANCH   1   7
HETATM    7  C   UNL     1      -8.628   1.861 -33.283  1.00  0.00     0.122 C 
BRANCH   7   8
HETATM    8  C   UNL     1      -7.726   0.668 -33.566  1.00  0.00    -0.035 A 
HETATM    9  C   UNL     1      -7.692   0.100 -34.848  1.00  0.00     0.010 A 
HETATM   10  C   UNL     1      -6.858  -0.987 -35.125  1.00  0.00     0.007 A 
HETATM   11  C   UNL     1      -6.047  -1.535 -34.125  1.00  0.00    -0.059 A 
HETATM   12  C   UNL     1      -6.079  -0.972 -32.844  1.00  0.00     0.007 A 
HETATM   13  C   UNL     1      -6.910   0.114 -32.567  1.00  0.00     0.010 A 
BRANCH  11  14
HETATM   14  C   UNL     1      -5.126  -2.688 -34.429  1.00  0.00     0.034 C 
HETATM   15  C   UNL     1      -5.843  -3.793 -35.191  1.00  0.00     0.010 C 
ENDBRANCH  11  14
ENDBRANCH   7   8
BRANCH   7  16
HETATM   16  C   UNL     1     -10.103   1.634 -33.721  1.00  0.00     0.005 C 
HETATM   17  C   UNL     1     -10.692   0.361 -33.098  1.00  0.00     0.012 C 
HETATM   18  C   UNL     1     -10.987   2.827 -33.328  1.00  0.00     0.012 C 
ENDBRANCH   7  16
ENDBRANCH   1   7
BRANCH   3  19
HETATM   19  N   UNL     1      -5.873   4.741 -31.734  1.00  0.00    -0.244 N 
HETATM   20  C   UNL     1      -4.531   4.653 -31.979  1.00  0.00     0.086 A 
HETATM   21  C   UNL     1      -3.993   5.611 -31.118  1.00  0.00     0.086 A 
HETATM   22  C   UNL     1      -3.745   3.860 -32.824  1.00  0.00     0.034 A 
HETATM   23  C   UNL     1      -2.603   5.802 -31.090  1.00  0.00     0.034 A 
HETATM   24  N   UNL     1      -4.976   6.238 -30.381  1.00  0.00    -0.240 NA
HETATM   25  C   UNL     1      -1.797   5.018 -31.923  1.00  0.00     0.002 A 
HETATM   26  C   UNL     1      -2.360   4.065 -32.774  1.00  0.00     0.002 A 
HETATM   27  C   UNL     1      -6.102   5.681 -30.775  1.00  0.00     0.234 A 
ENDBRANCH   3  19
TORSDOF 5
ENDMDL
MODEL 8
REMARK VINA RESULT:      -7.7      1.587      2.817
REMARK  5 active torsions:
REMARK  status: ('A' for Active; 'I' for Inactive)
REMARK    1  A    between atoms: C_2  and  C_3 
REMARK    2  A    between atoms: C_6  and  C_7 
REMARK    3  A    between atoms: C_7  and  N_8 
REMARK    4  A    between atoms: C_7  and  C_21 
REMARK       I    between atoms: N_8  and  C_9 
REMARK       I    between atoms: C_9  and  N_10 
REMARK    5  A    between atoms: N_10  and  N_11 
ROOT
HETATM    1  N   UNL     1      -7.453   1.802 -32.476  1.00  0.00    -0.333 N 
HETATM    2  C   UNL     1      -8.702   2.187 -32.836  1.00  0.00     0.335 C 
HETATM    3  N   UNL     1      -8.888   2.493 -34.149  1.00  0.00    -0.244 N 
HETATM    4  O   UNL     1      -9.565   2.284 -31.969  1.00  0.00    -0.246 OA
HETATM    5  H   UNL     1      -7.394   1.579 -31.492  1.00  0.00     0.165 HD
HETATM    6  H   UNL     1      -8.371   1.954 -34.823  1.00  0.00     0.192 HD
ENDROOT
BRANCH   1   7
HETATM    7  C   UNL     1      -6.219   1.710 -33.257  1.00  0.00     0.122 C 
BRANCH   7   8
HETATM    8  C   UNL     1      -5.993   0.252 -33.628  1.00  0.00    -0.035 A 
HETATM    9  C   UNL     1      -6.909  -0.413 -34.456  1.00  0.00     0.010 A 
HETATM   10  C   UNL     1      -6.708  -1.748 -34.816  1.00  0.00     0.007 A 
HETATM   11  C   UNL     1      -5.591  -2.450 -34.348  1.00  0.00    -0.059 A 
HETATM   12  C   UNL     1      -4.676  -1.792 -33.519  1.00  0.00     0.007 A 
HETATM   13  C   UNL     1      -4.876  -0.458 -33.161  1.00  0.00     0.010 A 
BRANCH  11  14
HETATM   14  C   UNL     1      -5.357  -3.882 -34.757  1.00  0.00     0.034 C 
HETATM   15  C   UNL     1      -6.624  -4.525 -35.303  1.00  0.00     0.010 C 
ENDBRANCH  11  14
ENDBRANCH   7   8
BRANCH   7  16
HETATM   16  C   UNL     1      -5.023   2.342 -32.490  1.00  0.00     0.005 C 
HETATM   17  C   UNL     1      -4.644   3.717 -33.059  1.00  0.00     0.012 C 
HETATM   18  C   UNL     1      -5.344   2.501 -30.997  1.00  0.00     0.012 C 
ENDBRANCH   7  16
ENDBRANCH   1   7
BRANCH   3  19
HETATM   19  N   UNL     1     -10.154   2.763 -34.558  1.00  0.00    -0.244 N 
HETATM   20  C   UNL     1     -10.617   4.014 -34.860  1.00  0.00     0.086 A 
HETATM   21  C   UNL     1     -11.994   3.817 -34.976  1.00  0.00     0.086 A 
HETATM   22  C   UNL     1     -10.008   5.263 -35.033  1.00  0.00     0.034 A 
HETATM   23  C   UNL     1     -12.818   4.912 -35.281  1.00  0.00     0.034 A 
HETATM   24  N   UNL     1     -12.339   2.503 -34.739  1.00  0.00    -0.240 NA
HETATM   25  C   UNL     1     -12.231   6.170 -35.454  1.00  0.00     0.002 A 
HETATM   26  C   UNL     1     -10.851   6.341 -35.332  1.00  0.00     0.002 A 
HETATM   27  C   UNL     1     -11.200   1.895 -34.482  1.00  0.00     0.234 A 
ENDBRANCH   3  19
TORSDOF 5
ENDMDL
MODEL 9
REMARK VINA RESULT:      -7.7      2.971      7.443
REMARK  5 active torsions:
REMARK  status: ('A' for Active; 'I' for Inactive)
REMARK    1  A    between atoms: C_2  and  C_3 
REMARK    2  A    between atoms: C_6  and  C_7 
REMARK    3  A    between atoms: C_7  and  N_8 
REMARK    4  A    between atoms: C_7  and  C_21 
REMARK       I    between atoms: N_8  and  C_9 
REMARK       I    between atoms: C_9  and  N_10 
REMARK    5  A    between atoms: N_10  and  N_11 
ROOT
HETATM    1  N   UNL     1      -5.365   1.182 -32.173  1.00  0.00    -0.333 N 
HETATM    2  C   UNL     1      -4.928   2.460 -32.051  1.00  0.00     0.335 C 
HETATM    3  N   UNL     1      -5.001   3.235 -33.166  1.00  0.00    -0.244 N 
HETATM    4  O   UNL     1      -4.455   2.825 -30.978  1.00  0.00    -0.246 OA
HETATM    5  H   UNL     1      -5.292   0.672 -31.303  1.00  0.00     0.165 HD
HETATM    6  H   UNL     1      -5.785   3.084 -33.779  1.00  0.00     0.192 HD
ENDROOT
BRANCH   1   7
HETATM    7  C   UNL     1      -5.860   0.449 -33.338  1.00  0.00     0.122 C 
BRANCH   7   8
HETATM    8  C   UNL     1      -7.375   0.594 -33.387  1.00  0.00    -0.035 A 
HETATM    9  C   UNL     1      -7.988   1.198 -34.493  1.00  0.00     0.010 A 
HETATM   10  C   UNL     1      -9.378   1.325 -34.558  1.00  0.00     0.007 A 
HETATM   11  C   UNL     1     -10.184   0.860 -33.513  1.00  0.00    -0.059 A 
HETATM   12  C   UNL     1      -9.577   0.259 -32.405  1.00  0.00     0.007 A 
HETATM   13  C   UNL     1      -8.188   0.129 -32.341  1.00  0.00     0.010 A 
BRANCH  11  14
HETATM   14  C   UNL     1     -11.685   0.971 -33.592  1.00  0.00     0.034 C 
HETATM   15  C   UNL     1     -12.137   1.530 -34.934  1.00  0.00     0.010 C 
ENDBRANCH  11  14
ENDBRANCH   7   8
BRANCH   7  16
HETATM   16  C   UNL     1      -5.384  -1.031 -33.311  1.00  0.00     0.005 C 
HETATM   17  C   UNL     1      -5.889  -1.813 -34.532  1.00  0.00     0.012 C 
HETATM   18  C   UNL     1      -3.852  -1.120 -33.271  1.00  0.00     0.012 C 
ENDBRANCH   7  16
ENDBRANCH   1   7
BRANCH   3  19
HETATM   19  N   UNL     1      -4.684   4.549 -33.041  1.00  0.00    -0.244 N 
HETATM   20  C   UNL     1      -3.466   5.083 -33.354  1.00  0.00     0.086 A 
HETATM   21  C   UNL     1      -3.546   6.375 -32.830  1.00  0.00     0.086 A 
HETATM   22  C   UNL     1      -2.328   4.596 -34.010  1.00  0.00     0.034 A 
HETATM   23  C   UNL     1      -2.446   7.236 -32.962  1.00  0.00     0.034 A 
HETATM   24  N   UNL     1      -4.761   6.597 -32.218  1.00  0.00    -0.240 NA
HETATM   25  C   UNL     1      -1.297   6.769 -33.610  1.00  0.00     0.002 A 
HETATM   26  C   UNL     1      -1.241   5.472 -34.125  1.00  0.00     0.002 A 
HETATM   27  C   UNL     1      -5.423   5.467 -32.358  1.00  0.00     0.234 A 
ENDBRANCH   3  19
TORSDOF 5
ENDMDL
MODEL 10
REMARK VINA RESULT:      -7.6      4.866      8.783
REMARK  5 active torsions:
REMARK  status: ('A' for Active; 'I' for Inactive)
REMARK    1  A    between atoms: C_2  and  C_3 
REMARK    2  A    between atoms: C_6  and  C_7 
REMARK    3  A    between atoms: C_7  and  N_8 
REMARK    4  A    between atoms: C_7  and  C_21 
REMARK       I    between atoms: N_8  and  C_9 
REMARK       I    between atoms: C_9  and  N_10 
REMARK    5  A    between atoms: N_10  and  N_11 
ROOT
HETATM    1  N   UNL     1      -3.391   4.643 -31.213  1.00  0.00    -0.333 N 
HETATM    2  C   UNL     1      -3.930   3.402 -31.321  1.00  0.00     0.335 C 
HETATM    3  N   UNL     1      -3.372   2.578 -32.248  1.00  0.00    -0.244 N 
HETATM    4  O   UNL     1      -4.901   3.115 -30.627  1.00  0.00    -0.246 OA
HETATM    5  H   UNL     1      -3.848   5.192 -30.497  1.00  0.00     0.165 HD
HETATM    6  H   UNL     1      -2.378   2.651 -32.388  1.00  0.00     0.192 HD
ENDROOT
BRANCH   1   7
HETATM    7  C   UNL     1      -2.326   5.292 -31.977  1.00  0.00     0.122 C 
BRANCH   7   8
HETATM    8  C   UNL     1      -1.425   6.038 -31.003  1.00  0.00    -0.035 A 
HETATM    9  C   UNL     1      -0.035   6.025 -31.181  1.00  0.00     0.010 A 
HETATM   10  C   UNL     1       0.804   6.717 -30.303  1.00  0.00     0.007 A 
HETATM   11  C   UNL     1       0.271   7.429 -29.222  1.00  0.00    -0.059 A 
HETATM   12  C   UNL     1      -1.117   7.442 -29.039  1.00  0.00     0.007 A 
HETATM   13  C   UNL     1      -1.955   6.753 -29.917  1.00  0.00     0.010 A 
BRANCH  11  14
HETATM   14  C   UNL     1       1.170   8.198 -28.289  1.00  0.00     0.034 C 
HETATM   15  C   UNL     1       1.321   7.497 -26.948  1.00  0.00     0.010 C 
ENDBRANCH  11  14
ENDBRANCH   7   8
BRANCH   7  16
HETATM   16  C   UNL     1      -2.913   6.202 -33.093  1.00  0.00     0.005 C 
HETATM   17  C   UNL     1      -1.966   7.358 -33.441  1.00  0.00     0.012 C 
HETATM   18  C   UNL     1      -3.196   5.398 -34.370  1.00  0.00     0.012 C 
ENDBRANCH   7  16
ENDBRANCH   1   7
BRANCH   3  19
HETATM   19  N   UNL     1      -3.811   1.294 -32.293  1.00  0.00    -0.244 N 
HETATM   20  C   UNL     1      -4.956   0.892 -32.922  1.00  0.00     0.086 A 
HETATM   21  C   UNL     1      -5.105  -0.426 -32.485  1.00  0.00     0.086 A 
HETATM   22  C   UNL     1      -5.861   1.513 -33.792  1.00  0.00     0.034 A 
HETATM   23  C   UNL     1      -6.204  -1.175 -32.932  1.00  0.00     0.034 A 
HETATM   24  N   UNL     1      -4.094  -0.790 -31.621  1.00  0.00    -0.240 NA
HETATM   25  C   UNL     1      -7.124  -0.572 -33.799  1.00  0.00     0.002 A 
HETATM   26  C   UNL     1      -6.952   0.748 -34.220  1.00  0.00     0.002 A 
HETATM   27  C   UNL     1      -3.332   0.279 -31.522  1.00  0.00     0.234 A 
ENDBRANCH   3  19
TORSDOF 5
ENDMDL
