MODEL 1
REMARK VINA RESULT:      -9.7      0.000      0.000
REMARK  3 active torsions:
REMARK  status: ('A' for Active; 'I' for Inactive)
REMARK    1  A    between atoms: C_3  and  C_4 
REMARK       I    between atoms: C_4  and  N_5 
REMARK    2  A    between atoms: N_5  and  C_6 
REMARK    3  A    between atoms: C_13  and  C_14 
REMARK       I    between atoms: C_14  and  N_15 
ROOT
HETATM    1  C   UNL     1      -4.704   0.878 -32.248  1.00  0.00     0.262 C 
HETATM    2  N   UNL     1      -3.916   1.864 -32.806  1.00  0.00    -0.323 N 
HETATM    3  O   UNL     1      -5.402   1.025 -31.249  1.00  0.00    -0.267 OA
HETATM    4  H   UNL     1      -3.301   1.576 -33.568  1.00  0.00     0.169 HD
ENDROOT
BRANCH   2   5
HETATM    5  C   UNL     1      -3.716   3.184 -32.345  1.00  0.00     0.036 A 
HETATM    6  C   UNL     1      -2.565   3.614 -31.671  1.00  0.00     0.046 A 
HETATM    7  C   UNL     1      -2.443   4.971 -31.295  1.00  0.00     0.030 A 
HETATM    8  C   UNL     1      -3.481   5.845 -31.591  1.00  0.00     0.063 A 
HETATM    9  C   UNL     1      -1.457   5.775 -30.645  1.00  0.00     0.156 A 
HETATM   10  N   UNL     1      -3.075   7.063 -31.123  1.00  0.00    -0.277 N 
HETATM   11  C   UNL     1      -4.650   5.448 -32.241  1.00  0.00     0.034 A 
HETATM   12  H   UNL     1      -3.583   7.939 -31.171  1.00  0.00     0.189 HD
HETATM   13  N   UNL     1      -1.860   7.063 -30.549  1.00  0.00    -0.168 NA
HETATM   14  C   UNL     1      -4.742   4.102 -32.612  1.00  0.00     0.032 A 
BRANCH   9  15
HETATM   15  C   UNL     1      -0.150   5.348 -30.126  1.00  0.00     0.270 C 
HETATM   16  N   UNL     1       0.011   5.553 -28.784  1.00  0.00    -0.365 N 
HETATM   17  H   UNL     1      -0.749   5.975 -28.263  1.00  0.00     0.159 HD
HETATM   18  H   UNL     1       0.881   5.304 -28.340  1.00  0.00     0.159 HD
HETATM   19  O   UNL     1       0.744   4.851 -30.802  1.00  0.00    -0.266 OA
ENDBRANCH   9  15
ENDBRANCH   2   5
BRANCH   1  20
HETATM   20  C   UNL     1      -4.608  -0.481 -32.913  1.00  0.00     0.114 C 
HETATM   21  C   UNL     1      -5.583  -0.897 -33.760  1.00  0.00    -0.027 C 
HETATM   22  C   UNL     1      -6.672  -0.005 -34.312  1.00  0.00     0.050 C 
HETATM   23  C   UNL     1      -5.607  -2.313 -34.185  1.00  0.00     0.005 A 
HETATM   24  C   UNL     1      -4.565  -3.152 -33.801  1.00  0.00     0.090 A 
HETATM   25  C   UNL     1      -6.656  -2.896 -34.914  1.00  0.00     0.015 A 
HETATM   26  O   UNL     1      -3.491  -2.673 -33.044  1.00  0.00    -0.274 OA
HETATM   27  C   UNL     1      -4.528  -4.508 -34.129  1.00  0.00     0.038 A 
HETATM   28  C   UNL     1      -3.462  -1.369 -32.590  1.00  0.00     0.304 C 
HETATM   29  O   UNL     1      -2.482  -0.955 -31.973  1.00  0.00    -0.259 OA
HETATM   30  C   UNL     1      -5.573  -5.063 -34.860  1.00  0.00     0.003 A 
HETATM   31  C   UNL     1      -6.639  -4.257 -35.250  1.00  0.00     0.001 A 
ENDBRANCH   1  20
TORSDOF 3
ENDMDL
MODEL 2
REMARK VINA RESULT:      -9.7      3.274      3.689
REMARK  3 active torsions:
REMARK  status: ('A' for Active; 'I' for Inactive)
REMARK    1  A    between atoms: C_3  and  C_4 
REMARK       I    between atoms: C_4  and  N_5 
REMARK    2  A    between atoms: N_5  and  C_6 
REMARK    3  A    between atoms: C_13  and  C_14 
REMARK       I    between atoms: C_14  and  N_15 
ROOT
HETATM    1  C   UNL     1      -6.018   1.356 -32.903  1.00  0.00     0.262 C 
HETATM    2  N   UNL     1      -6.417   1.409 -31.583  1.00  0.00    -0.323 N 
HETATM    3  O   UNL     1      -6.108   2.288 -33.697  1.00  0.00    -0.267 OA
HETATM    4  H   UNL     1      -6.389   0.530 -31.065  1.00  0.00     0.169 HD
ENDROOT
BRANCH   2   5
HETATM    5  C   UNL     1      -7.028   2.484 -30.900  1.00  0.00     0.036 A 
HETATM    6  C   UNL     1      -6.344   3.370 -30.058  1.00  0.00     0.046 A 
HETATM    7  C   UNL     1      -7.041   4.445 -29.461  1.00  0.00     0.030 A 
HETATM    8  C   UNL     1      -8.399   4.586 -29.713  1.00  0.00     0.063 A 
HETATM    9  C   UNL     1      -6.710   5.535 -28.599  1.00  0.00     0.156 A 
HETATM   10  N   UNL     1      -8.784   5.699 -29.021  1.00  0.00    -0.277 N 
HETATM   11  C   UNL     1      -9.118   3.710 -30.528  1.00  0.00     0.034 A 
HETATM   12  H   UNL     1      -9.712   6.104 -28.978  1.00  0.00     0.189 HD
HETATM   13  N   UNL     1      -7.794   6.301 -28.340  1.00  0.00    -0.168 NA
HETATM   14  C   UNL     1      -8.403   2.661 -31.116  1.00  0.00     0.032 A 
BRANCH   9  15
HETATM   15  C   UNL     1      -5.395   5.863 -28.032  1.00  0.00     0.270 C 
HETATM   16  N   UNL     1      -5.117   5.217 -26.858  1.00  0.00    -0.365 N 
HETATM   17  H   UNL     1      -5.813   4.588 -26.474  1.00  0.00     0.159 HD
HETATM   18  H   UNL     1      -4.244   5.390 -26.386  1.00  0.00     0.159 HD
HETATM   19  O   UNL     1      -4.591   6.642 -28.531  1.00  0.00    -0.266 OA
ENDBRANCH   9  15
ENDBRANCH   2   5
BRANCH   1  20
HETATM   20  C   UNL     1      -5.507   0.008 -33.371  1.00  0.00     0.114 C 
HETATM   21  C   UNL     1      -6.317  -0.824 -34.072  1.00  0.00    -0.027 C 
HETATM   22  C   UNL     1      -7.651  -0.422 -34.660  1.00  0.00     0.050 C 
HETATM   23  C   UNL     1      -5.893  -2.225 -34.287  1.00  0.00     0.005 A 
HETATM   24  C   UNL     1      -4.626  -2.619 -33.868  1.00  0.00     0.090 A 
HETATM   25  C   UNL     1      -6.717  -3.218 -34.841  1.00  0.00     0.015 A 
HETATM   26  O   UNL     1      -3.744  -1.711 -33.273  1.00  0.00    -0.274 OA
HETATM   27  C   UNL     1      -4.161  -3.929 -34.001  1.00  0.00     0.038 A 
HETATM   28  C   UNL     1      -4.127  -0.410 -33.015  1.00  0.00     0.304 C 
HETATM   29  O   UNL     1      -3.316   0.386 -32.541  1.00  0.00    -0.259 OA
HETATM   30  C   UNL     1      -4.990  -4.895 -34.561  1.00  0.00     0.003 A 
HETATM   31  C   UNL     1      -6.269  -4.539 -34.980  1.00  0.00     0.001 A 
ENDBRANCH   1  20
TORSDOF 3
ENDMDL
MODEL 3
REMARK VINA RESULT:      -9.7      1.624      2.330
REMARK  3 active torsions:
REMARK  status: ('A' for Active; 'I' for Inactive)
REMARK    1  A    between atoms: C_3  and  C_4 
REMARK       I    between atoms: C_4  and  N_5 
REMARK    2  A    between atoms: N_5  and  C_6 
REMARK    3  A    between atoms: C_13  and  C_14 
REMARK       I    between atoms: C_14  and  N_15 
ROOT
HETATM    1  C   UNL     1      -4.755   1.979 -31.917  1.00  0.00     0.262 C 
HETATM    2  N   UNL     1      -4.185   2.784 -32.882  1.00  0.00    -0.323 N 
HETATM    3  O   UNL     1      -4.746   2.220 -30.713  1.00  0.00    -0.267 OA
HETATM    4  H   UNL     1      -4.166   2.410 -33.831  1.00  0.00     0.169 HD
ENDROOT
BRANCH   2   5
HETATM    5  C   UNL     1      -3.462   3.984 -32.700  1.00  0.00     0.036 A 
HETATM    6  C   UNL     1      -2.278   4.082 -31.957  1.00  0.00     0.046 A 
HETATM    7  C   UNL     1      -1.604   5.321 -31.878  1.00  0.00     0.030 A 
HETATM    8  C   UNL     1      -2.146   6.422 -32.529  1.00  0.00     0.063 A 
HETATM    9  C   UNL     1      -0.407   5.805 -31.268  1.00  0.00     0.156 A 
HETATM   10  N   UNL     1      -1.282   7.451 -32.284  1.00  0.00    -0.277 N 
HETATM   11  C   UNL     1      -3.334   6.367 -33.259  1.00  0.00     0.034 A 
HETATM   12  H   UNL     1      -1.359   8.408 -32.609  1.00  0.00     0.189 HD
HETATM   13  N   UNL     1      -0.220   7.119 -31.531  1.00  0.00    -0.168 NA
HETATM   14  C   UNL     1      -3.976   5.126 -33.331  1.00  0.00     0.032 A 
BRANCH   9  15
HETATM   15  C   UNL     1       0.558   5.048 -30.458  1.00  0.00     0.270 C 
HETATM   16  N   UNL     1       0.320   5.104 -29.112  1.00  0.00    -0.365 N 
HETATM   17  H   UNL     1      -0.469   5.647 -28.781  1.00  0.00     0.159 HD
HETATM   18  H   UNL     1       0.937   4.627 -28.475  1.00  0.00     0.159 HD
HETATM   19  O   UNL     1       1.506   4.414 -30.907  1.00  0.00    -0.266 OA
ENDBRANCH   9  15
ENDBRANCH   2   5
BRANCH   1  20
HETATM   20  C   UNL     1      -5.358   0.685 -32.426  1.00  0.00     0.114 C 
HETATM   21  C   UNL     1      -4.563  -0.386 -32.679  1.00  0.00    -0.027 C 
HETATM   22  C   UNL     1      -3.116  -0.493 -32.256  1.00  0.00     0.050 C 
HETATM   23  C   UNL     1      -5.126  -1.538 -33.417  1.00  0.00     0.005 A 
HETATM   24  C   UNL     1      -6.482  -1.543 -33.730  1.00  0.00     0.090 A 
HETATM   25  C   UNL     1      -4.361  -2.619 -33.885  1.00  0.00     0.015 A 
HETATM   26  O   UNL     1      -7.320  -0.494 -33.338  1.00  0.00    -0.274 OA
HETATM   27  C   UNL     1      -7.085  -2.573 -34.455  1.00  0.00     0.038 A 
HETATM   28  C   UNL     1      -6.818   0.617 -32.690  1.00  0.00     0.304 C 
HETATM   29  O   UNL     1      -7.582   1.501 -32.306  1.00  0.00    -0.259 OA
HETATM   30  C   UNL     1      -6.311  -3.639 -34.900  1.00  0.00     0.003 A 
HETATM   31  C   UNL     1      -4.948  -3.660 -34.617  1.00  0.00     0.001 A 
ENDBRANCH   1  20
TORSDOF 3
ENDMDL
MODEL 4
REMARK VINA RESULT:      -9.3      4.292      6.029
REMARK  3 active torsions:
REMARK  status: ('A' for Active; 'I' for Inactive)
REMARK    1  A    between atoms: C_3  and  C_4 
REMARK       I    between atoms: C_4  and  N_5 
REMARK    2  A    between atoms: N_5  and  C_6 
REMARK    3  A    between atoms: C_13  and  C_14 
REMARK       I    between atoms: C_14  and  N_15 
ROOT
HETATM    1  C   UNL     1      -6.000   1.102 -32.936  1.00  0.00     0.262 C 
HETATM    2  N   UNL     1      -6.975   1.049 -31.961  1.00  0.00    -0.323 N 
HETATM    3  O   UNL     1      -5.663   2.122 -33.531  1.00  0.00    -0.267 OA
HETATM    4  H   UNL     1      -7.234   0.120 -31.628  1.00  0.00     0.169 HD
ENDROOT
BRANCH   2   5
HETATM    5  C   UNL     1      -7.793   2.101 -31.490  1.00  0.00     0.036 A 
HETATM    6  C   UNL     1      -9.046   2.422 -32.026  1.00  0.00     0.046 A 
HETATM    7  C   UNL     1      -9.808   3.462 -31.448  1.00  0.00     0.030 A 
HETATM    8  C   UNL     1      -9.282   4.156 -30.365  1.00  0.00     0.063 A 
HETATM    9  C   UNL     1     -11.088   4.051 -31.677  1.00  0.00     0.156 A 
HETATM   10  N   UNL     1     -10.234   5.075 -30.025  1.00  0.00    -0.277 N 
HETATM   11  C   UNL     1      -8.028   3.878 -29.819  1.00  0.00     0.034 A 
HETATM   12  H   UNL     1     -10.191   5.753 -29.274  1.00  0.00     0.189 HD
HETATM   13  N   UNL     1     -11.338   5.041 -30.790  1.00  0.00    -0.168 NA
HETATM   14  C   UNL     1      -7.299   2.837 -30.403  1.00  0.00     0.032 A 
BRANCH   9  15
HETATM   15  C   UNL     1     -12.072   3.688 -32.706  1.00  0.00     0.270 C 
HETATM   16  N   UNL     1     -13.062   2.855 -32.262  1.00  0.00    -0.365 N 
HETATM   17  H   UNL     1     -13.044   2.553 -31.294  1.00  0.00     0.159 HD
HETATM   18  H   UNL     1     -13.775   2.540 -32.900  1.00  0.00     0.159 HD
HETATM   19  O   UNL     1     -12.043   4.072 -33.870  1.00  0.00    -0.266 OA
ENDBRANCH   9  15
ENDBRANCH   2   5
BRANCH   1  20
HETATM   20  C   UNL     1      -5.383  -0.232 -33.308  1.00  0.00     0.114 C 
HETATM   21  C   UNL     1      -6.044  -1.083 -34.132  1.00  0.00    -0.027 C 
HETATM   22  C   UNL     1      -7.269  -0.714 -34.937  1.00  0.00     0.050 C 
HETATM   23  C   UNL     1      -5.554  -2.473 -34.269  1.00  0.00     0.005 A 
HETATM   24  C   UNL     1      -4.366  -2.835 -33.642  1.00  0.00     0.090 A 
HETATM   25  C   UNL     1      -6.249  -3.485 -34.951  1.00  0.00     0.015 A 
HETATM   26  O   UNL     1      -3.620  -1.906 -32.911  1.00  0.00    -0.274 OA
HETATM   27  C   UNL     1      -3.853  -4.133 -33.692  1.00  0.00     0.038 A 
HETATM   28  C   UNL     1      -4.072  -0.615 -32.724  1.00  0.00     0.304 C 
HETATM   29  O   UNL     1      -3.373   0.200 -32.123  1.00  0.00    -0.259 OA
HETATM   30  C   UNL     1      -4.552  -5.118 -34.381  1.00  0.00     0.003 A 
HETATM   31  C   UNL     1      -5.751  -4.794 -35.008  1.00  0.00     0.001 A 
ENDBRANCH   1  20
TORSDOF 3
ENDMDL
MODEL 5
REMARK VINA RESULT:      -9.2      1.811      2.084
REMARK  3 active torsions:
REMARK  status: ('A' for Active; 'I' for Inactive)
REMARK    1  A    between atoms: C_3  and  C_4 
REMARK       I    between atoms: C_4  and  N_5 
REMARK    2  A    between atoms: N_5  and  C_6 
REMARK    3  A    between atoms: C_13  and  C_14 
REMARK       I    between atoms: C_14  and  N_15 
ROOT
HETATM    1  C   UNL     1      -5.196   0.903 -32.488  1.00  0.00     0.262 C 
HETATM    2  N   UNL     1      -4.170   1.825 -32.510  1.00  0.00    -0.323 N 
HETATM    3  O   UNL     1      -6.321   1.121 -32.046  1.00  0.00    -0.267 OA
HETATM    4  H   UNL     1      -3.256   1.480 -32.801  1.00  0.00     0.169 HD
ENDROOT
BRANCH   2   5
HETATM    5  C   UNL     1      -4.177   3.148 -32.013  1.00  0.00     0.036 A 
HETATM    6  C   UNL     1      -3.518   4.221 -32.627  1.00  0.00     0.046 A 
HETATM    7  C   UNL     1      -3.629   5.517 -32.074  1.00  0.00     0.030 A 
HETATM    8  C   UNL     1      -4.380   5.691 -30.919  1.00  0.00     0.063 A 
HETATM    9  C   UNL     1      -3.150   6.821 -32.404  1.00  0.00     0.156 A 
HETATM   10  N   UNL     1      -4.311   7.026 -30.638  1.00  0.00    -0.277 N 
HETATM   11  C   UNL     1      -5.032   4.642 -30.268  1.00  0.00     0.034 A 
HETATM   12  H   UNL     1      -4.747   7.513 -29.864  1.00  0.00     0.189 HD
HETATM   13  N   UNL     1      -3.582   7.742 -31.511  1.00  0.00    -0.168 NA
HETATM   14  C   UNL     1      -4.915   3.371 -30.841  1.00  0.00     0.032 A 
BRANCH   9  15
HETATM   15  C   UNL     1      -2.307   7.207 -33.544  1.00  0.00     0.270 C 
HETATM   16  N   UNL     1      -2.459   6.408 -34.644  1.00  0.00    -0.365 N 
HETATM   17  H   UNL     1      -3.111   5.634 -34.596  1.00  0.00     0.159 HD
HETATM   18  H   UNL     1      -1.911   6.587 -35.471  1.00  0.00     0.159 HD
HETATM   19  O   UNL     1      -1.523   8.149 -33.548  1.00  0.00    -0.266 OA
ENDBRANCH   9  15
ENDBRANCH   2   5
BRANCH   1  20
HETATM   20  C   UNL     1      -4.834  -0.481 -32.990  1.00  0.00     0.114 C 
HETATM   21  C   UNL     1      -5.589  -1.080 -33.945  1.00  0.00    -0.027 C 
HETATM   22  C   UNL     1      -6.652  -0.377 -34.758  1.00  0.00     0.050 C 
HETATM   23  C   UNL     1      -5.380  -2.517 -34.226  1.00  0.00     0.005 A 
HETATM   24  C   UNL     1      -4.338  -3.186 -33.590  1.00  0.00     0.090 A 
HETATM   25  C   UNL     1      -6.210  -3.282 -35.062  1.00  0.00     0.015 A 
HETATM   26  O   UNL     1      -3.477  -2.519 -32.713  1.00  0.00    -0.274 OA
HETATM   27  C   UNL     1      -4.094  -4.549 -33.773  1.00  0.00     0.038 A 
HETATM   28  C   UNL     1      -3.674  -1.190 -32.392  1.00  0.00     0.304 C 
HETATM   29  O   UNL     1      -2.872  -0.610 -31.662  1.00  0.00    -0.259 OA
HETATM   30  C   UNL     1      -4.923  -5.285 -34.612  1.00  0.00     0.003 A 
HETATM   31  C   UNL     1      -5.983  -4.651 -35.255  1.00  0.00     0.001 A 
ENDBRANCH   1  20
TORSDOF 3
ENDMDL
MODEL 6
REMARK VINA RESULT:      -9.0      2.002      2.495
REMARK  3 active torsions:
REMARK  status: ('A' for Active; 'I' for Inactive)
REMARK    1  A    between atoms: C_3  and  C_4 
REMARK       I    between atoms: C_4  and  N_5 
REMARK    2  A    between atoms: N_5  and  C_6 
REMARK    3  A    between atoms: C_13  and  C_14 
REMARK       I    between atoms: C_14  and  N_15 
ROOT
HETATM    1  C   UNL     1      -6.113   1.040 -32.738  1.00  0.00     0.262 C 
HETATM    2  N   UNL     1      -5.679   2.169 -33.402  1.00  0.00    -0.323 N 
HETATM    3  O   UNL     1      -6.878   1.045 -31.778  1.00  0.00    -0.267 OA
HETATM    4  H   UNL     1      -4.958   2.030 -34.110  1.00  0.00     0.169 HD
ENDROOT
BRANCH   2   5
HETATM    5  C   UNL     1      -5.973   3.519 -33.107  1.00  0.00     0.036 A 
HETATM    6  C   UNL     1      -5.208   4.320 -32.249  1.00  0.00     0.046 A 
HETATM    7  C   UNL     1      -5.560   5.675 -32.060  1.00  0.00     0.030 A 
HETATM    8  C   UNL     1      -6.673   6.178 -32.722  1.00  0.00     0.063 A 
HETATM    9  C   UNL     1      -5.040   6.780 -31.320  1.00  0.00     0.156 A 
HETATM   10  N   UNL     1      -6.751   7.492 -32.357  1.00  0.00    -0.277 N 
HETATM   11  C   UNL     1      -7.471   5.404 -33.566  1.00  0.00     0.034 A 
HETATM   12  H   UNL     1      -7.441   8.171 -32.654  1.00  0.00     0.189 HD
HETATM   13  N   UNL     1      -5.783   7.894 -31.516  1.00  0.00    -0.168 NA
HETATM   14  C   UNL     1      -7.095   4.069 -33.744  1.00  0.00     0.032 A 
BRANCH   9  15
HETATM   15  C   UNL     1      -3.859   6.800 -30.447  1.00  0.00     0.270 C 
HETATM   16  N   UNL     1      -4.023   6.120 -29.271  1.00  0.00    -0.365 N 
HETATM   17  H   UNL     1      -4.915   5.675 -29.089  1.00  0.00     0.159 HD
HETATM   18  H   UNL     1      -3.271   6.090 -28.601  1.00  0.00     0.159 HD
HETATM   19  O   UNL     1      -2.803   7.365 -30.709  1.00  0.00    -0.266 OA
ENDBRANCH   9  15
ENDBRANCH   2   5
BRANCH   1  20
HETATM   20  C   UNL     1      -5.517  -0.266 -33.225  1.00  0.00     0.114 C 
HETATM   21  C   UNL     1      -6.234  -1.084 -34.035  1.00  0.00    -0.027 C 
HETATM   22  C   UNL     1      -7.524  -0.691 -34.720  1.00  0.00     0.050 C 
HETATM   23  C   UNL     1      -5.746  -2.459 -34.280  1.00  0.00     0.005 A 
HETATM   24  C   UNL     1      -4.507  -2.837 -33.769  1.00  0.00     0.090 A 
HETATM   25  C   UNL     1      -6.484  -3.446 -34.954  1.00  0.00     0.015 A 
HETATM   26  O   UNL     1      -3.713  -1.936 -33.054  1.00  0.00    -0.274 OA
HETATM   27  C   UNL     1      -3.989  -4.124 -33.924  1.00  0.00     0.038 A 
HETATM   28  C   UNL     1      -4.160  -0.661 -32.767  1.00  0.00     0.304 C 
HETATM   29  O   UNL     1      -3.422   0.132 -32.184  1.00  0.00    -0.259 OA
HETATM   30  C   UNL     1      -4.733  -5.083 -34.603  1.00  0.00     0.003 A 
HETATM   31  C   UNL     1      -5.981  -4.744 -35.116  1.00  0.00     0.001 A 
ENDBRANCH   1  20
TORSDOF 3
ENDMDL
MODEL 7
REMARK VINA RESULT:      -8.9      2.312      3.341
REMARK  3 active torsions:
REMARK  status: ('A' for Active; 'I' for Inactive)
REMARK    1  A    between atoms: C_3  and  C_4 
REMARK       I    between atoms: C_4  and  N_5 
REMARK    2  A    between atoms: N_5  and  C_6 
REMARK    3  A    between atoms: C_13  and  C_14 
REMARK       I    between atoms: C_14  and  N_15 
ROOT
HETATM    1  C   UNL     1      -4.283   2.236 -32.120  1.00  0.00     0.262 C 
HETATM    2  N   UNL     1      -4.253   3.236 -33.070  1.00  0.00    -0.323 N 
HETATM    3  O   UNL     1      -3.693   2.277 -31.044  1.00  0.00    -0.267 OA
HETATM    4  H   UNL     1      -4.696   3.026 -33.964  1.00  0.00     0.169 HD
ENDROOT
BRANCH   2   5
HETATM    5  C   UNL     1      -3.534   4.452 -33.032  1.00  0.00     0.036 A 
HETATM    6  C   UNL     1      -3.956   5.592 -32.336  1.00  0.00     0.046 A 
HETATM    7  C   UNL     1      -3.136   6.744 -32.320  1.00  0.00     0.030 A 
HETATM    8  C   UNL     1      -1.934   6.720 -33.015  1.00  0.00     0.063 A 
HETATM    9  C   UNL     1      -3.197   8.042 -31.729  1.00  0.00     0.156 A 
HETATM   10  N   UNL     1      -1.371   7.948 -32.809  1.00  0.00    -0.277 N 
HETATM   11  C   UNL     1      -1.492   5.611 -33.737  1.00  0.00     0.034 A 
HETATM   12  H   UNL     1      -0.484   8.283 -33.165  1.00  0.00     0.189 HD
HETATM   13  N   UNL     1      -2.100   8.772 -32.037  1.00  0.00    -0.168 NA
HETATM   14  C   UNL     1      -2.317   4.480 -33.728  1.00  0.00     0.032 A 
BRANCH   9  15
HETATM   15  C   UNL     1      -4.262   8.594 -30.880  1.00  0.00     0.270 C 
HETATM   16  N   UNL     1      -4.390   7.968 -29.670  1.00  0.00    -0.365 N 
HETATM   17  H   UNL     1      -3.771   7.195 -29.456  1.00  0.00     0.159 HD
HETATM   18  H   UNL     1      -5.103   8.268 -29.025  1.00  0.00     0.159 HD
HETATM   19  O   UNL     1      -4.994   9.527 -31.191  1.00  0.00    -0.266 OA
ENDBRANCH   9  15
ENDBRANCH   2   5
BRANCH   1  20
HETATM   20  C   UNL     1      -5.055   0.992 -32.514  1.00  0.00     0.114 C 
HETATM   21  C   UNL     1      -4.394  -0.137 -32.874  1.00  0.00    -0.027 C 
HETATM   22  C   UNL     1      -2.911  -0.355 -32.680  1.00  0.00     0.050 C 
HETATM   23  C   UNL     1      -5.151  -1.241 -33.502  1.00  0.00     0.005 A 
HETATM   24  C   UNL     1      -6.536  -1.141 -33.600  1.00  0.00     0.090 A 
HETATM   25  C   UNL     1      -4.554  -2.378 -34.070  1.00  0.00     0.015 A 
HETATM   26  O   UNL     1      -7.220  -0.031 -33.095  1.00  0.00    -0.274 OA
HETATM   27  C   UNL     1      -7.321  -2.122 -34.210  1.00  0.00     0.038 A 
HETATM   28  C   UNL     1      -6.539   1.038 -32.546  1.00  0.00     0.304 C 
HETATM   29  O   UNL     1      -7.165   1.978 -32.058  1.00  0.00    -0.259 OA
HETATM   30  C   UNL     1      -6.710  -3.244 -34.757  1.00  0.00     0.003 A 
HETATM   31  C   UNL     1      -5.325  -3.371 -34.689  1.00  0.00     0.001 A 
ENDBRANCH   1  20
TORSDOF 3
ENDMDL
MODEL 8
REMARK VINA RESULT:      -8.9      2.309      2.778
REMARK  3 active torsions:
REMARK  status: ('A' for Active; 'I' for Inactive)
REMARK    1  A    between atoms: C_3  and  C_4 
REMARK       I    between atoms: C_4  and  N_5 
REMARK    2  A    between atoms: N_5  and  C_6 
REMARK    3  A    between atoms: C_13  and  C_14 
REMARK       I    between atoms: C_14  and  N_15 
ROOT
HETATM    1  C   UNL     1      -5.243   1.239 -32.209  1.00  0.00     0.262 C 
HETATM    2  N   UNL     1      -4.415   2.304 -32.499  1.00  0.00    -0.323 N 
HETATM    3  O   UNL     1      -6.314   1.329 -31.615  1.00  0.00    -0.267 OA
HETATM    4  H   UNL     1      -3.504   2.075 -32.897  1.00  0.00     0.169 HD
ENDROOT
BRANCH   2   5
HETATM    5  C   UNL     1      -4.590   3.663 -32.153  1.00  0.00     0.036 A 
HETATM    6  C   UNL     1      -5.044   4.102 -30.902  1.00  0.00     0.046 A 
HETATM    7  C   UNL     1      -5.136   5.488 -30.641  1.00  0.00     0.030 A 
HETATM    8  C   UNL     1      -4.790   6.384 -31.644  1.00  0.00     0.063 A 
HETATM    9  C   UNL     1      -5.512   6.303 -29.531  1.00  0.00     0.156 A 
HETATM   10  N   UNL     1      -4.968   7.625 -31.101  1.00  0.00    -0.277 N 
HETATM   11  C   UNL     1      -4.356   5.982 -32.909  1.00  0.00     0.034 A 
HETATM   12  H   UNL     1      -4.807   8.519 -31.548  1.00  0.00     0.189 HD
HETATM   13  N   UNL     1      -5.400   7.619 -29.828  1.00  0.00    -0.168 NA
HETATM   14  C   UNL     1      -4.262   4.606 -33.138  1.00  0.00     0.032 A 
BRANCH   9  15
HETATM   15  C   UNL     1      -5.961   5.861 -28.203  1.00  0.00     0.270 C 
HETATM   16  N   UNL     1      -5.060   5.071 -27.544  1.00  0.00    -0.365 N 
HETATM   17  H   UNL     1      -4.184   4.849 -28.002  1.00  0.00     0.159 HD
HETATM   18  H   UNL     1      -5.286   4.708 -26.632  1.00  0.00     0.159 HD
HETATM   19  O   UNL     1      -7.040   6.149 -27.697  1.00  0.00    -0.266 OA
ENDBRANCH   9  15
ENDBRANCH   2   5
BRANCH   1  20
HETATM   20  C   UNL     1      -4.712  -0.123 -32.610  1.00  0.00     0.114 C 
HETATM   21  C   UNL     1      -5.309  -0.821 -33.609  1.00  0.00    -0.027 C 
HETATM   22  C   UNL     1      -6.339  -0.247 -34.555  1.00  0.00     0.050 C 
HETATM   23  C   UNL     1      -4.948  -2.242 -33.805  1.00  0.00     0.005 A 
HETATM   24  C   UNL     1      -3.923  -2.791 -33.039  1.00  0.00     0.090 A 
HETATM   25  C   UNL     1      -5.617  -3.107 -34.685  1.00  0.00     0.015 A 
HETATM   26  O   UNL     1      -3.219  -2.018 -32.110  1.00  0.00    -0.274 OA
HETATM   27  C   UNL     1      -3.544  -4.131 -33.137  1.00  0.00     0.038 A 
HETATM   28  C   UNL     1      -3.563  -0.703 -31.869  1.00  0.00     0.304 C 
HETATM   29  O   UNL     1      -2.895  -0.027 -31.088  1.00  0.00    -0.259 OA
HETATM   30  C   UNL     1      -4.215  -4.968 -34.021  1.00  0.00     0.003 A 
HETATM   31  C   UNL     1      -5.253  -4.457 -34.794  1.00  0.00     0.001 A 
ENDBRANCH   1  20
TORSDOF 3
ENDMDL
MODEL 9
REMARK VINA RESULT:      -8.8      1.740      3.130
REMARK  3 active torsions:
REMARK  status: ('A' for Active; 'I' for Inactive)
REMARK    1  A    between atoms: C_3  and  C_4 
REMARK       I    between atoms: C_4  and  N_5 
REMARK    2  A    between atoms: N_5  and  C_6 
REMARK    3  A    between atoms: C_13  and  C_14 
REMARK       I    between atoms: C_14  and  N_15 
ROOT
HETATM    1  C   UNL     1      -4.892   0.841 -32.220  1.00  0.00     0.262 C 
HETATM    2  N   UNL     1      -4.104   1.858 -32.718  1.00  0.00    -0.323 N 
HETATM    3  O   UNL     1      -5.694   0.967 -31.298  1.00  0.00    -0.267 OA
HETATM    4  H   UNL     1      -3.402   1.592 -33.408  1.00  0.00     0.169 HD
ENDROOT
BRANCH   2   5
HETATM    5  C   UNL     1      -4.019   3.195 -32.267  1.00  0.00     0.036 A 
HETATM    6  C   UNL     1      -5.108   4.075 -32.213  1.00  0.00     0.046 A 
HETATM    7  C   UNL     1      -4.926   5.379 -31.698  1.00  0.00     0.030 A 
HETATM    8  C   UNL     1      -3.661   5.762 -31.273  1.00  0.00     0.063 A 
HETATM    9  C   UNL     1      -5.756   6.517 -31.461  1.00  0.00     0.156 A 
HETATM   10  N   UNL     1      -3.800   7.045 -30.827  1.00  0.00    -0.277 N 
HETATM   11  C   UNL     1      -2.549   4.920 -31.334  1.00  0.00     0.034 A 
HETATM   12  H   UNL     1      -3.078   7.642 -30.440  1.00  0.00     0.189 HD
HETATM   13  N   UNL     1      -5.048   7.535 -30.920  1.00  0.00    -0.168 NA
HETATM   14  C   UNL     1      -2.758   3.631 -31.837  1.00  0.00     0.032 A 
BRANCH   9  15
HETATM   15  C   UNL     1      -7.195   6.650 -31.727  1.00  0.00     0.270 C 
HETATM   16  N   UNL     1      -7.507   7.629 -32.629  1.00  0.00    -0.365 N 
HETATM   17  H   UNL     1      -6.754   8.177 -33.029  1.00  0.00     0.159 HD
HETATM   18  H   UNL     1      -8.471   7.804 -32.865  1.00  0.00     0.159 HD
HETATM   19  O   UNL     1      -8.070   5.967 -31.206  1.00  0.00    -0.266 OA
ENDBRANCH   9  15
ENDBRANCH   2   5
BRANCH   1  20
HETATM   20  C   UNL     1      -4.660  -0.521 -32.842  1.00  0.00     0.114 C 
HETATM   21  C   UNL     1      -5.533  -1.010 -33.759  1.00  0.00    -0.027 C 
HETATM   22  C   UNL     1      -6.620  -0.196 -34.422  1.00  0.00     0.050 C 
HETATM   23  C   UNL     1      -5.437  -2.434 -34.152  1.00  0.00     0.005 A 
HETATM   24  C   UNL     1      -4.385  -3.201 -33.660  1.00  0.00     0.090 A 
HETATM   25  C   UNL     1      -6.384  -3.091 -34.953  1.00  0.00     0.015 A 
HETATM   26  O   UNL     1      -3.410  -2.644 -32.826  1.00  0.00    -0.274 OA
HETATM   27  C   UNL     1      -4.241  -4.558 -33.953  1.00  0.00     0.038 A 
HETATM   28  C   UNL     1      -3.497  -1.333 -32.402  1.00  0.00     0.304 C 
HETATM   29  O   UNL     1      -2.599  -0.850 -31.714  1.00  0.00    -0.259 OA
HETATM   30  C   UNL     1      -5.185  -5.188 -34.757  1.00  0.00     0.003 A 
HETATM   31  C   UNL     1      -6.257  -4.454 -35.255  1.00  0.00     0.001 A 
ENDBRANCH   1  20
TORSDOF 3
ENDMDL
MODEL 10
REMARK VINA RESULT:      -8.7      2.387      3.118
REMARK  3 active torsions:
REMARK  status: ('A' for Active; 'I' for Inactive)
REMARK    1  A    between atoms: C_3  and  C_4 
REMARK       I    between atoms: C_4  and  N_5 
REMARK    2  A    between atoms: N_5  and  C_6 
REMARK    3  A    between atoms: C_13  and  C_14 
REMARK       I    between atoms: C_14  and  N_15 
ROOT
HETATM    1  C   UNL     1      -5.520   2.281 -31.245  1.00  0.00     0.262 C 
HETATM    2  N   UNL     1      -5.636   3.406 -32.036  1.00  0.00    -0.323 N 
HETATM    3  O   UNL     1      -5.100   2.280 -30.091  1.00  0.00    -0.267 OA
HETATM    4  H   UNL     1      -5.893   3.250 -33.011  1.00  0.00     0.169 HD
ENDROOT
BRANCH   2   5
HETATM    5  C   UNL     1      -5.273   4.734 -31.720  1.00  0.00     0.036 A 
HETATM    6  C   UNL     1      -4.104   5.358 -32.176  1.00  0.00     0.046 A 
HETATM    7  C   UNL     1      -3.859   6.709 -31.842  1.00  0.00     0.030 A 
HETATM    8  C   UNL     1      -4.781   7.383 -31.051  1.00  0.00     0.063 A 
HETATM    9  C   UNL     1      -2.841   7.670 -32.123  1.00  0.00     0.156 A 
HETATM   10  N   UNL     1      -4.284   8.648 -30.911  1.00  0.00    -0.277 N 
HETATM   11  C   UNL     1      -5.944   6.787 -30.560  1.00  0.00     0.034 A 
HETATM   12  H   UNL     1      -4.700   9.416 -30.398  1.00  0.00     0.189 HD
HETATM   13  N   UNL     1      -3.119   8.862 -31.545  1.00  0.00    -0.168 NA
HETATM   14  C   UNL     1      -6.168   5.452 -30.914  1.00  0.00     0.032 A 
BRANCH   9  15
HETATM   15  C   UNL     1      -1.626   7.483 -32.928  1.00  0.00     0.270 C 
HETATM   16  N   UNL     1      -0.600   6.877 -32.257  1.00  0.00    -0.365 N 
HETATM   17  H   UNL     1      -0.741   6.618 -31.287  1.00  0.00     0.159 HD
HETATM   18  H   UNL     1       0.279   6.719 -32.724  1.00  0.00     0.159 HD
HETATM   19  O   UNL     1      -1.502   7.826 -34.099  1.00  0.00    -0.266 OA
ENDBRANCH   9  15
ENDBRANCH   2   5
BRANCH   1  20
HETATM   20  C   UNL     1      -5.882   0.974 -31.921  1.00  0.00     0.114 C 
HETATM   21  C   UNL     1      -4.934   0.023 -32.122  1.00  0.00    -0.027 C 
HETATM   22  C   UNL     1      -3.558   0.045 -31.497  1.00  0.00     0.050 C 
HETATM   23  C   UNL     1      -5.242  -1.120 -33.010  1.00  0.00     0.005 A 
HETATM   24  C   UNL     1      -6.530  -1.251 -33.520  1.00  0.00     0.090 A 
HETATM   25  C   UNL     1      -4.292  -2.066 -33.428  1.00  0.00     0.015 A 
HETATM   26  O   UNL     1      -7.537  -0.339 -33.189  1.00  0.00    -0.274 OA
HETATM   27  C   UNL     1      -6.894  -2.279 -34.392  1.00  0.00     0.038 A 
HETATM   28  C   UNL     1      -7.271   0.764 -32.403  1.00  0.00     0.304 C 
HETATM   29  O   UNL     1      -8.185   1.522 -32.080  1.00  0.00    -0.259 OA
HETATM   30  C   UNL     1      -5.940  -3.211 -34.786  1.00  0.00     0.003 A 
HETATM   31  C   UNL     1      -4.638  -3.103 -34.305  1.00  0.00     0.001 A 
ENDBRANCH   1  20
TORSDOF 3
ENDMDL
