MODEL 1
REMARK VINA RESULT:      -8.1      0.000      0.000
REMARK  4 active torsions:
REMARK  status: ('A' for Active; 'I' for Inactive)
REMARK    1  A    between atoms: C_4  and  N_5 
REMARK    2  A    between atoms: C_9  and  N_10 
REMARK    3  A    between atoms: C_13  and  C_14 
REMARK    4  A    between atoms: C_22  and  C_23 
ROOT
HETATM    1  N   UNL     1      -4.016   4.799 -31.080  1.00  0.00    -0.258 N 
HETATM    2  C   UNL     1      -5.061   4.417 -30.187  1.00  0.00     0.333 A 
HETATM    3  O   UNL     1      -5.596   5.012 -29.272  1.00  0.00    -0.246 OA
HETATM    4  N   UNL     1      -5.436   3.129 -30.587  1.00  0.00    -0.292 N 
HETATM    5  C   UNL     1      -4.685   2.739 -31.661  1.00  0.00     0.146 A 
HETATM    6  C   UNL     1      -3.812   3.727 -31.950  1.00  0.00     0.126 A 
HETATM    7  H   UNL     1      -6.201   2.646 -30.139  1.00  0.00     0.172 HD
ENDROOT
BRANCH   5   8
HETATM    8  N   UNL     1      -4.809   1.471 -32.239  1.00  0.00    -0.317 N 
HETATM    9  C   UNL     1      -5.756   1.261 -33.185  1.00  0.00     0.099 A 
HETATM   10  C   UNL     1      -5.931   0.007 -33.767  1.00  0.00     0.030 A 
HETATM   11  C   UNL     1      -5.116  -1.064 -33.395  1.00  0.00    -0.023 A 
HETATM   12  C   UNL     1      -4.117  -0.811 -32.454  1.00  0.00     0.030 A 
HETATM   13  C   UNL     1      -3.976   0.457 -31.895  1.00  0.00     0.099 A 
BRANCH  11  14
HETATM   14  C   UNL     1      -5.315  -2.410 -33.957  1.00  0.00    -0.023 A 
HETATM   15  C   UNL     1      -6.522  -2.778 -34.567  1.00  0.00     0.031 A 
HETATM   16  C   UNL     1      -6.660  -4.063 -35.069  1.00  0.00     0.117 A 
HETATM   17  N   UNL     1      -5.692  -4.997 -35.004  1.00  0.00    -0.273 NA
HETATM   18  C   UNL     1      -4.535  -4.638 -34.418  1.00  0.00     0.117 A 
HETATM   19  C   UNL     1      -4.303  -3.377 -33.889  1.00  0.00     0.031 A 
ENDBRANCH  11  14
ENDBRANCH   5   8
BRANCH   6  20
HETATM   20  C   UNL     1      -2.657   3.599 -32.858  1.00  0.00     0.292 C 
HETATM   21  O   UNL     1      -2.513   4.323 -33.836  1.00  0.00    -0.300 OA
ENDBRANCH   6  20
BRANCH   1  22
HETATM   22  C   UNL     1      -3.391   6.076 -31.043  1.00  0.00     0.044 A 
HETATM   23  C   UNL     1      -4.055   7.213 -31.525  1.00  0.00     0.030 A 
HETATM   24  C   UNL     1      -3.456   8.476 -31.470  1.00  0.00     0.002 A 
HETATM   25  C   UNL     1      -2.175   8.621 -30.946  1.00  0.00     0.000 A 
HETATM   26  C   UNL     1      -1.490   7.502 -30.489  1.00  0.00     0.002 A 
HETATM   27  C   UNL     1      -2.089   6.239 -30.543  1.00  0.00     0.030 A 
ENDBRANCH   1  22
TORSDOF 4
ENDMDL
MODEL 2
REMARK VINA RESULT:      -7.9      1.971      3.036
REMARK  4 active torsions:
REMARK  status: ('A' for Active; 'I' for Inactive)
REMARK    1  A    between atoms: C_4  and  N_5 
REMARK    2  A    between atoms: C_9  and  N_10 
REMARK    3  A    between atoms: C_13  and  C_14 
REMARK    4  A    between atoms: C_22  and  C_23 
ROOT
HETATM    1  N   UNL     1      -5.681   4.768 -31.509  1.00  0.00    -0.258 N 
HETATM    2  C   UNL     1      -5.363   5.101 -32.859  1.00  0.00     0.333 A 
HETATM    3  O   UNL     1      -5.212   6.174 -33.410  1.00  0.00    -0.246 OA
HETATM    4  N   UNL     1      -5.203   3.874 -33.514  1.00  0.00    -0.292 N 
HETATM    5  C   UNL     1      -5.398   2.847 -32.632  1.00  0.00     0.146 A 
HETATM    6  C   UNL     1      -5.709   3.375 -31.430  1.00  0.00     0.126 A 
HETATM    7  H   UNL     1      -4.924   3.833 -34.484  1.00  0.00     0.172 HD
ENDROOT
BRANCH   5   8
HETATM    8  N   UNL     1      -5.353   1.506 -33.026  1.00  0.00    -0.317 N 
HETATM    9  C   UNL     1      -6.374   0.991 -33.754  1.00  0.00     0.099 A 
HETATM   10  C   UNL     1      -6.382  -0.346 -34.143  1.00  0.00     0.030 A 
HETATM   11  C   UNL     1      -5.321  -1.187 -33.803  1.00  0.00    -0.023 A 
HETATM   12  C   UNL     1      -4.259  -0.623 -33.094  1.00  0.00     0.030 A 
HETATM   13  C   UNL     1      -4.290   0.719 -32.722  1.00  0.00     0.099 A 
BRANCH  11  14
HETATM   14  C   UNL     1      -5.330  -2.616 -34.158  1.00  0.00    -0.023 A 
HETATM   15  C   UNL     1      -4.242  -3.449 -33.867  1.00  0.00     0.031 A 
HETATM   16  C   UNL     1      -4.297  -4.785 -34.235  1.00  0.00     0.117 A 
HETATM   17  N   UNL     1      -5.348  -5.341 -34.868  1.00  0.00    -0.273 NA
HETATM   18  C   UNL     1      -6.391  -4.536 -35.145  1.00  0.00     0.117 A 
HETATM   19  C   UNL     1      -6.427  -3.189 -34.815  1.00  0.00     0.031 A 
ENDBRANCH  11  14
ENDBRANCH   5   8
BRANCH   6  20
HETATM   20  C   UNL     1      -6.248   2.616 -30.286  1.00  0.00     0.292 C 
HETATM   21  O   UNL     1      -7.448   2.570 -30.041  1.00  0.00    -0.300 OA
ENDBRANCH   6  20
BRANCH   1  22
HETATM   22  C   UNL     1      -5.870   5.744 -30.492  1.00  0.00     0.044 A 
HETATM   23  C   UNL     1      -4.782   6.221 -29.746  1.00  0.00     0.030 A 
HETATM   24  C   UNL     1      -4.957   7.199 -28.761  1.00  0.00     0.002 A 
HETATM   25  C   UNL     1      -6.225   7.704 -28.493  1.00  0.00     0.000 A 
HETATM   26  C   UNL     1      -7.320   7.223 -29.203  1.00  0.00     0.002 A 
HETATM   27  C   UNL     1      -7.145   6.247 -30.190  1.00  0.00     0.030 A 
ENDBRANCH   1  22
TORSDOF 4
ENDMDL
MODEL 3
REMARK VINA RESULT:      -7.9      4.153      5.238
REMARK  4 active torsions:
REMARK  status: ('A' for Active; 'I' for Inactive)
REMARK    1  A    between atoms: C_4  and  N_5 
REMARK    2  A    between atoms: C_9  and  N_10 
REMARK    3  A    between atoms: C_13  and  C_14 
REMARK    4  A    between atoms: C_22  and  C_23 
ROOT
HETATM    1  N   UNL     1      -4.049   3.355 -32.348  1.00  0.00    -0.258 N 
HETATM    2  C   UNL     1      -3.931   2.031 -31.831  1.00  0.00     0.333 A 
HETATM    3  O   UNL     1      -2.989   1.438 -31.343  1.00  0.00    -0.246 OA
HETATM    4  N   UNL     1      -5.207   1.469 -31.959  1.00  0.00    -0.292 N 
HETATM    5  C   UNL     1      -6.064   2.383 -32.507  1.00  0.00     0.146 A 
HETATM    6  C   UNL     1      -5.372   3.512 -32.766  1.00  0.00     0.126 A 
HETATM    7  H   UNL     1      -5.404   0.540 -31.617  1.00  0.00     0.172 HD
ENDROOT
BRANCH   5   8
HETATM    8  N   UNL     1      -7.397   2.076 -32.799  1.00  0.00    -0.317 N 
HETATM    9  C   UNL     1      -7.686   1.356 -33.911  1.00  0.00     0.099 A 
HETATM   10  C   UNL     1      -9.001   1.051 -34.253  1.00  0.00     0.030 A 
HETATM   11  C   UNL     1     -10.058   1.470 -33.441  1.00  0.00    -0.023 A 
HETATM   12  C   UNL     1      -9.732   2.169 -32.277  1.00  0.00     0.030 A 
HETATM   13  C   UNL     1      -8.404   2.455 -31.972  1.00  0.00     0.099 A 
BRANCH  11  14
HETATM   14  C   UNL     1     -11.458   1.205 -33.808  1.00  0.00    -0.023 A 
HETATM   15  C   UNL     1     -12.115   0.039 -33.391  1.00  0.00     0.031 A 
HETATM   16  C   UNL     1     -13.432  -0.168 -33.775  1.00  0.00     0.117 A 
HETATM   17  N   UNL     1     -14.130   0.695 -34.538  1.00  0.00    -0.273 NA
HETATM   18  C   UNL     1     -13.494   1.813 -34.935  1.00  0.00     0.117 A 
HETATM   19  C   UNL     1     -12.181   2.107 -34.600  1.00  0.00     0.031 A 
ENDBRANCH  11  14
ENDBRANCH   5   8
BRANCH   6  20
HETATM   20  C   UNL     1      -5.856   4.632 -33.593  1.00  0.00     0.292 C 
HETATM   21  O   UNL     1      -5.363   4.900 -34.682  1.00  0.00    -0.300 OA
ENDBRANCH   6  20
BRANCH   1  22
HETATM   22  C   UNL     1      -2.975   4.287 -32.350  1.00  0.00     0.044 A 
HETATM   23  C   UNL     1      -2.149   4.426 -33.475  1.00  0.00     0.030 A 
HETATM   24  C   UNL     1      -1.106   5.358 -33.495  1.00  0.00     0.002 A 
HETATM   25  C   UNL     1      -0.861   6.156 -32.382  1.00  0.00     0.000 A 
HETATM   26  C   UNL     1      -1.651   6.014 -31.247  1.00  0.00     0.002 A 
HETATM   27  C   UNL     1      -2.695   5.084 -31.229  1.00  0.00     0.030 A 
ENDBRANCH   1  22
TORSDOF 4
ENDMDL
MODEL 4
REMARK VINA RESULT:      -7.9      5.103      6.527
REMARK  4 active torsions:
REMARK  status: ('A' for Active; 'I' for Inactive)
REMARK    1  A    between atoms: C_4  and  N_5 
REMARK    2  A    between atoms: C_9  and  N_10 
REMARK    3  A    between atoms: C_13  and  C_14 
REMARK    4  A    between atoms: C_22  and  C_23 
ROOT
HETATM    1  N   UNL     1     -10.310   3.929 -33.793  1.00  0.00    -0.258 N 
HETATM    2  C   UNL     1      -9.039   4.575 -33.739  1.00  0.00     0.333 A 
HETATM    3  O   UNL     1      -8.736   5.748 -33.645  1.00  0.00    -0.246 OA
HETATM    4  N   UNL     1      -8.097   3.541 -33.782  1.00  0.00    -0.292 N 
HETATM    5  C   UNL     1      -8.735   2.333 -33.849  1.00  0.00     0.146 A 
HETATM    6  C   UNL     1     -10.065   2.557 -33.880  1.00  0.00     0.126 A 
HETATM    7  H   UNL     1      -7.108   3.733 -33.709  1.00  0.00     0.172 HD
ENDROOT
BRANCH   5   8
HETATM    8  N   UNL     1      -8.039   1.125 -33.958  1.00  0.00    -0.317 N 
HETATM    9  C   UNL     1      -7.769   0.620 -35.187  1.00  0.00     0.099 A 
HETATM   10  C   UNL     1      -7.101  -0.593 -35.340  1.00  0.00     0.030 A 
HETATM   11  C   UNL     1      -6.678  -1.312 -34.220  1.00  0.00    -0.023 A 
HETATM   12  C   UNL     1      -6.925  -0.749 -32.967  1.00  0.00     0.030 A 
HETATM   13  C   UNL     1      -7.597   0.466 -32.857  1.00  0.00     0.099 A 
BRANCH  11  14
HETATM   14  C   UNL     1      -6.016  -2.621 -34.354  1.00  0.00    -0.023 A 
HETATM   15  C   UNL     1      -6.691  -3.731 -34.878  1.00  0.00     0.031 A 
HETATM   16  C   UNL     1      -6.024  -4.944 -34.971  1.00  0.00     0.117 A 
HETATM   17  N   UNL     1      -4.749  -5.125 -34.580  1.00  0.00    -0.273 NA
HETATM   18  C   UNL     1      -4.105  -4.054 -34.079  1.00  0.00     0.117 A 
HETATM   19  C   UNL     1      -4.687  -2.802 -33.948  1.00  0.00     0.031 A 
ENDBRANCH  11  14
ENDBRANCH   5   8
BRANCH   6  20
HETATM   20  C   UNL     1     -11.087   1.549 -34.216  1.00  0.00     0.292 C 
HETATM   21  O   UNL     1     -11.386   0.642 -33.448  1.00  0.00    -0.300 OA
ENDBRANCH   6  20
BRANCH   1  22
HETATM   22  C   UNL     1     -11.543   4.632 -33.718  1.00  0.00     0.044 A 
HETATM   23  C   UNL     1     -12.257   4.701 -32.513  1.00  0.00     0.030 A 
HETATM   24  C   UNL     1     -13.458   5.412 -32.425  1.00  0.00     0.002 A 
HETATM   25  C   UNL     1     -13.975   6.054 -33.547  1.00  0.00     0.000 A 
HETATM   26  C   UNL     1     -13.297   5.974 -34.757  1.00  0.00     0.002 A 
HETATM   27  C   UNL     1     -12.094   5.265 -34.844  1.00  0.00     0.030 A 
ENDBRANCH   1  22
TORSDOF 4
ENDMDL
MODEL 5
REMARK VINA RESULT:      -7.4      3.974      5.434
REMARK  4 active torsions:
REMARK  status: ('A' for Active; 'I' for Inactive)
REMARK    1  A    between atoms: C_4  and  N_5 
REMARK    2  A    between atoms: C_9  and  N_10 
REMARK    3  A    between atoms: C_13  and  C_14 
REMARK    4  A    between atoms: C_22  and  C_23 
ROOT
HETATM    1  N   UNL     1      -3.255   5.317 -33.107  1.00  0.00    -0.258 N 
HETATM    2  C   UNL     1      -3.241   5.283 -34.533  1.00  0.00     0.333 A 
HETATM    3  O   UNL     1      -2.384   5.593 -35.337  1.00  0.00    -0.246 OA
HETATM    4  N   UNL     1      -4.483   4.754 -34.902  1.00  0.00    -0.292 N 
HETATM    5  C   UNL     1      -5.217   4.468 -33.784  1.00  0.00     0.146 A 
HETATM    6  C   UNL     1      -4.496   4.825 -32.700  1.00  0.00     0.126 A 
HETATM    7  H   UNL     1      -4.709   4.579 -35.871  1.00  0.00     0.172 HD
ENDROOT
BRANCH   5   8
HETATM    8  N   UNL     1      -6.524   3.976 -33.854  1.00  0.00    -0.317 N 
HETATM    9  C   UNL     1      -6.732   2.636 -33.862  1.00  0.00     0.099 A 
HETATM   10  C   UNL     1      -8.015   2.104 -33.958  1.00  0.00     0.030 A 
HETATM   11  C   UNL     1      -9.126   2.947 -34.031  1.00  0.00    -0.023 A 
HETATM   12  C   UNL     1      -8.891   4.322 -33.973  1.00  0.00     0.030 A 
HETATM   13  C   UNL     1      -7.591   4.814 -33.878  1.00  0.00     0.099 A 
BRANCH  11  14
HETATM   14  C   UNL     1     -10.488   2.409 -34.184  1.00  0.00    -0.023 A 
HETATM   15  C   UNL     1     -11.448   3.063 -34.967  1.00  0.00     0.031 A 
HETATM   16  C   UNL     1     -12.721   2.520 -35.067  1.00  0.00     0.117 A 
HETATM   17  N   UNL     1     -13.098   1.386 -34.447  1.00  0.00    -0.273 NA
HETATM   18  C   UNL     1     -12.171   0.762 -33.697  1.00  0.00     0.117 A 
HETATM   19  C   UNL     1     -10.874   1.227 -33.538  1.00  0.00     0.031 A 
ENDBRANCH  11  14
ENDBRANCH   5   8
BRANCH   6  20
HETATM   20  C   UNL     1      -5.025   4.930 -31.328  1.00  0.00     0.292 C 
HETATM   21  O   UNL     1      -4.995   3.989 -30.544  1.00  0.00    -0.300 OA
ENDBRANCH   6  20
BRANCH   1  22
HETATM   22  C   UNL     1      -2.144   5.745 -32.329  1.00  0.00     0.044 A 
HETATM   23  C   UNL     1      -1.199   4.821 -31.860  1.00  0.00     0.030 A 
HETATM   24  C   UNL     1      -0.091   5.237 -31.115  1.00  0.00     0.002 A 
HETATM   25  C   UNL     1       0.083   6.584 -30.812  1.00  0.00     0.000 A 
HETATM   26  C   UNL     1      -0.857   7.512 -31.244  1.00  0.00     0.002 A 
HETATM   27  C   UNL     1      -1.964   7.096 -31.991  1.00  0.00     0.030 A 
ENDBRANCH   1  22
TORSDOF 4
ENDMDL
MODEL 6
REMARK VINA RESULT:      -7.4      2.181      9.014
REMARK  4 active torsions:
REMARK  status: ('A' for Active; 'I' for Inactive)
REMARK    1  A    between atoms: C_4  and  N_5 
REMARK    2  A    between atoms: C_9  and  N_10 
REMARK    3  A    between atoms: C_13  and  C_14 
REMARK    4  A    between atoms: C_22  and  C_23 
ROOT
HETATM    1  N   UNL     1      -4.642  -0.621 -32.937  1.00  0.00    -0.258 N 
HETATM    2  C   UNL     1      -3.587  -0.808 -31.995  1.00  0.00     0.333 A 
HETATM    3  O   UNL     1      -3.048  -1.815 -31.580  1.00  0.00    -0.246 OA
HETATM    4  N   UNL     1      -3.207   0.482 -31.606  1.00  0.00    -0.292 N 
HETATM    5  C   UNL     1      -3.965   1.409 -32.266  1.00  0.00     0.146 A 
HETATM    6  C   UNL     1      -4.847   0.755 -33.051  1.00  0.00     0.126 A 
HETATM    7  H   UNL     1      -2.435   0.629 -30.972  1.00  0.00     0.172 HD
ENDROOT
BRANCH   5   8
HETATM    8  N   UNL     1      -3.838   2.782 -32.032  1.00  0.00    -0.317 N 
HETATM    9  C   UNL     1      -4.613   3.371 -31.088  1.00  0.00     0.099 A 
HETATM   10  C   UNL     1      -4.537   4.740 -30.841  1.00  0.00     0.030 A 
HETATM   11  C   UNL     1      -3.642   5.538 -31.556  1.00  0.00    -0.023 A 
HETATM   12  C   UNL     1      -2.821   4.901 -32.489  1.00  0.00     0.030 A 
HETATM   13  C   UNL     1      -2.929   3.530 -32.707  1.00  0.00     0.099 A 
BRANCH  11  14
HETATM   14  C   UNL     1      -3.579   6.994 -31.350  1.00  0.00    -0.023 A 
HETATM   15  C   UNL     1      -4.736   7.751 -31.120  1.00  0.00     0.031 A 
HETATM   16  C   UNL     1      -4.622   9.122 -30.945  1.00  0.00     0.117 A 
HETATM   17  N   UNL     1      -3.449   9.783 -30.984  1.00  0.00    -0.273 NA
HETATM   18  C   UNL     1      -2.341   9.051 -31.204  1.00  0.00     0.117 A 
HETATM   19  C   UNL     1      -2.356   7.677 -31.390  1.00  0.00     0.031 A 
ENDBRANCH  11  14
ENDBRANCH   5   8
BRANCH   6  20
HETATM   20  C   UNL     1      -6.009   1.372 -33.717  1.00  0.00     0.292 C 
HETATM   21  O   UNL     1      -7.004   1.727 -33.096  1.00  0.00    -0.300 OA
ENDBRANCH   6  20
BRANCH   1  22
HETATM   22  C   UNL     1      -5.276  -1.697 -33.618  1.00  0.00     0.044 A 
HETATM   23  C   UNL     1      -4.517  -2.724 -34.199  1.00  0.00     0.030 A 
HETATM   24  C   UNL     1      -5.133  -3.797 -34.849  1.00  0.00     0.002 A 
HETATM   25  C   UNL     1      -6.520  -3.855 -34.943  1.00  0.00     0.000 A 
HETATM   26  C   UNL     1      -7.289  -2.833 -34.398  1.00  0.00     0.002 A 
HETATM   27  C   UNL     1      -6.672  -1.760 -33.746  1.00  0.00     0.030 A 
ENDBRANCH   1  22
TORSDOF 4
ENDMDL
MODEL 7
REMARK VINA RESULT:      -7.3      6.902      9.490
REMARK  4 active torsions:
REMARK  status: ('A' for Active; 'I' for Inactive)
REMARK    1  A    between atoms: C_4  and  N_5 
REMARK    2  A    between atoms: C_9  and  N_10 
REMARK    3  A    between atoms: C_13  and  C_14 
REMARK    4  A    between atoms: C_22  and  C_23 
ROOT
HETATM    1  N   UNL     1      -7.739   1.405 -33.313  1.00  0.00    -0.258 N 
HETATM    2  C   UNL     1      -7.591   2.751 -33.763  1.00  0.00     0.333 A 
HETATM    3  O   UNL     1      -6.623   3.361 -34.172  1.00  0.00    -0.246 OA
HETATM    4  N   UNL     1      -8.872   3.310 -33.681  1.00  0.00    -0.292 N 
HETATM    5  C   UNL     1      -9.759   2.376 -33.222  1.00  0.00     0.146 A 
HETATM    6  C   UNL     1      -9.083   1.234 -32.976  1.00  0.00     0.126 A 
HETATM    7  H   UNL     1      -9.049   4.255 -33.992  1.00  0.00     0.172 HD
ENDROOT
BRANCH   5   8
HETATM    8  N   UNL     1     -11.105   2.675 -32.991  1.00  0.00    -0.317 N 
HETATM    9  C   UNL     1     -11.436   3.531 -31.993  1.00  0.00     0.099 A 
HETATM   10  C   UNL     1     -12.766   3.835 -31.711  1.00  0.00     0.030 A 
HETATM   11  C   UNL     1     -13.794   3.272 -32.469  1.00  0.00    -0.023 A 
HETATM   12  C   UNL     1     -13.428   2.430 -33.521  1.00  0.00     0.030 A 
HETATM   13  C   UNL     1     -12.086   2.151 -33.769  1.00  0.00     0.099 A 
BRANCH  11  14
HETATM   14  C   UNL     1     -15.209   3.537 -32.159  1.00  0.00    -0.023 A 
HETATM   15  C   UNL     1     -15.656   4.822 -31.824  1.00  0.00     0.031 A 
HETATM   16  C   UNL     1     -16.997   5.014 -31.528  1.00  0.00     0.117 A 
HETATM   17  N   UNL     1     -17.912   4.027 -31.541  1.00  0.00    -0.273 NA
HETATM   18  C   UNL     1     -17.477   2.794 -31.864  1.00  0.00     0.117 A 
HETATM   19  C   UNL     1     -16.157   2.505 -32.175  1.00  0.00     0.031 A 
ENDBRANCH  11  14
ENDBRANCH   5   8
BRANCH   6  20
HETATM   20  C   UNL     1      -9.614   0.080 -32.227  1.00  0.00     0.292 C 
HETATM   21  O   UNL     1     -10.507  -0.631 -32.672  1.00  0.00    -0.300 OA
ENDBRANCH   6  20
BRANCH   1  22
HETATM   22  C   UNL     1      -6.668   0.470 -33.293  1.00  0.00     0.044 A 
HETATM   23  C   UNL     1      -5.696   0.516 -32.282  1.00  0.00     0.030 A 
HETATM   24  C   UNL     1      -4.653  -0.415 -32.242  1.00  0.00     0.002 A 
HETATM   25  C   UNL     1      -4.555  -1.400 -33.220  1.00  0.00     0.000 A 
HETATM   26  C   UNL     1      -5.493  -1.444 -34.245  1.00  0.00     0.002 A 
HETATM   27  C   UNL     1      -6.537  -0.514 -34.285  1.00  0.00     0.030 A 
ENDBRANCH   1  22
TORSDOF 4
ENDMDL
MODEL 8
REMARK VINA RESULT:      -7.3      4.066      8.763
REMARK  4 active torsions:
REMARK  status: ('A' for Active; 'I' for Inactive)
REMARK    1  A    between atoms: C_4  and  N_5 
REMARK    2  A    between atoms: C_9  and  N_10 
REMARK    3  A    between atoms: C_13  and  C_14 
REMARK    4  A    between atoms: C_22  and  C_23 
ROOT
HETATM    1  N   UNL     1      -8.987   1.735 -34.224  1.00  0.00    -0.258 N 
HETATM    2  C   UNL     1      -8.048   0.829 -34.802  1.00  0.00     0.333 A 
HETATM    3  O   UNL     1      -8.203  -0.212 -35.409  1.00  0.00    -0.246 OA
HETATM    4  N   UNL     1      -6.792   1.399 -34.565  1.00  0.00    -0.292 N 
HETATM    5  C   UNL     1      -6.937   2.583 -33.895  1.00  0.00     0.146 A 
HETATM    6  C   UNL     1      -8.252   2.781 -33.665  1.00  0.00     0.126 A 
HETATM    7  H   UNL     1      -5.949   0.971 -34.922  1.00  0.00     0.172 HD
ENDROOT
BRANCH   5   8
HETATM    8  N   UNL     1      -5.841   3.345 -33.479  1.00  0.00    -0.317 N 
HETATM    9  C   UNL     1      -5.414   4.375 -34.250  1.00  0.00     0.099 A 
HETATM   10  C   UNL     1      -4.310   5.143 -33.887  1.00  0.00     0.030 A 
HETATM   11  C   UNL     1      -3.624   4.875 -32.701  1.00  0.00    -0.023 A 
HETATM   12  C   UNL     1      -4.110   3.841 -31.899  1.00  0.00     0.030 A 
HETATM   13  C   UNL     1      -5.217   3.096 -32.299  1.00  0.00     0.099 A 
BRANCH  11  14
HETATM   14  C   UNL     1      -2.425   5.639 -32.320  1.00  0.00    -0.023 A 
HETATM   15  C   UNL     1      -2.376   7.034 -32.442  1.00  0.00     0.031 A 
HETATM   16  C   UNL     1      -1.216   7.703 -32.081  1.00  0.00     0.117 A 
HETATM   17  N   UNL     1      -0.114   7.086 -31.613  1.00  0.00    -0.273 NA
HETATM   18  C   UNL     1      -0.167   5.746 -31.497  1.00  0.00     0.117 A 
HETATM   19  C   UNL     1      -1.281   4.991 -31.832  1.00  0.00     0.031 A 
ENDBRANCH  11  14
ENDBRANCH   5   8
BRANCH   6  20
HETATM   20  C   UNL     1      -8.808   3.793 -32.748  1.00  0.00     0.292 C 
HETATM   21  O   UNL     1      -8.663   3.723 -31.533  1.00  0.00    -0.300 OA
ENDBRANCH   6  20
BRANCH   1  22
HETATM   22  C   UNL     1     -10.394   1.546 -34.295  1.00  0.00     0.044 A 
HETATM   23  C   UNL     1     -11.028   0.574 -33.507  1.00  0.00     0.030 A 
HETATM   24  C   UNL     1     -12.415   0.399 -33.554  1.00  0.00     0.002 A 
HETATM   25  C   UNL     1     -13.191   1.182 -34.402  1.00  0.00     0.000 A 
HETATM   26  C   UNL     1     -12.578   2.131 -35.212  1.00  0.00     0.002 A 
HETATM   27  C   UNL     1     -11.191   2.308 -35.164  1.00  0.00     0.030 A 
ENDBRANCH   1  22
TORSDOF 4
ENDMDL
MODEL 9
REMARK VINA RESULT:      -7.1      5.050     10.726
REMARK  4 active torsions:
REMARK  status: ('A' for Active; 'I' for Inactive)
REMARK    1  A    between atoms: C_4  and  N_5 
REMARK    2  A    between atoms: C_9  and  N_10 
REMARK    3  A    between atoms: C_13  and  C_14 
REMARK    4  A    between atoms: C_22  and  C_23 
ROOT
HETATM    1  N   UNL     1      -3.197   6.658 -32.263  1.00  0.00    -0.258 N 
HETATM    2  C   UNL     1      -2.179   7.260 -33.061  1.00  0.00     0.333 A 
HETATM    3  O   UNL     1      -2.045   7.343 -34.266  1.00  0.00    -0.246 OA
HETATM    4  N   UNL     1      -1.281   7.826 -32.149  1.00  0.00    -0.292 N 
HETATM    5  C   UNL     1      -1.714   7.602 -30.871  1.00  0.00     0.146 A 
HETATM    6  C   UNL     1      -2.852   6.880 -30.929  1.00  0.00     0.126 A 
HETATM    7  H   UNL     1      -0.485   8.361 -32.464  1.00  0.00     0.172 HD
ENDROOT
BRANCH   5   8
HETATM    8  N   UNL     1      -0.982   8.012 -29.752  1.00  0.00    -0.317 N 
HETATM    9  C   UNL     1      -1.454   9.022 -28.981  1.00  0.00     0.099 A 
HETATM   10  C   UNL     1      -0.743   9.479 -27.873  1.00  0.00     0.030 A 
HETATM   11  C   UNL     1       0.472   8.889 -27.521  1.00  0.00    -0.023 A 
HETATM   12  C   UNL     1       0.914   7.820 -28.301  1.00  0.00     0.030 A 
HETATM   13  C   UNL     1       0.175   7.394 -29.402  1.00  0.00     0.099 A 
BRANCH  11  14
HETATM   14  C   UNL     1       1.266   9.388 -26.386  1.00  0.00    -0.023 A 
HETATM   15  C   UNL     1       1.082  10.679 -25.875  1.00  0.00     0.031 A 
HETATM   16  C   UNL     1       1.866  11.103 -24.812  1.00  0.00     0.117 A 
HETATM   17  N   UNL     1       2.810  10.339 -24.232  1.00  0.00    -0.273 NA
HETATM   18  C   UNL     1       2.983   9.098 -24.726  1.00  0.00     0.117 A 
HETATM   19  C   UNL     1       2.247   8.587 -25.784  1.00  0.00     0.031 A 
ENDBRANCH  11  14
ENDBRANCH   5   8
BRANCH   6  20
HETATM   20  C   UNL     1      -3.489   6.208 -29.781  1.00  0.00     0.292 C 
HETATM   21  O   UNL     1      -4.211   6.807 -28.993  1.00  0.00    -0.300 OA
ENDBRANCH   6  20
BRANCH   1  22
HETATM   22  C   UNL     1      -4.338   6.014 -32.815  1.00  0.00     0.044 A 
HETATM   23  C   UNL     1      -4.198   4.875 -33.622  1.00  0.00     0.030 A 
HETATM   24  C   UNL     1      -5.317   4.222 -34.148  1.00  0.00     0.002 A 
HETATM   25  C   UNL     1      -6.596   4.705 -33.889  1.00  0.00     0.000 A 
HETATM   26  C   UNL     1      -6.754   5.848 -33.115  1.00  0.00     0.002 A 
HETATM   27  C   UNL     1      -5.635   6.501 -32.587  1.00  0.00     0.030 A 
ENDBRANCH   1  22
TORSDOF 4
ENDMDL
MODEL 10
REMARK VINA RESULT:      -7.0      2.054      3.723
REMARK  4 active torsions:
REMARK  status: ('A' for Active; 'I' for Inactive)
REMARK    1  A    between atoms: C_4  and  N_5 
REMARK    2  A    between atoms: C_9  and  N_10 
REMARK    3  A    between atoms: C_13  and  C_14 
REMARK    4  A    between atoms: C_22  and  C_23 
ROOT
HETATM    1  N   UNL     1      -2.744   7.510 -31.375  1.00  0.00    -0.258 N 
HETATM    2  C   UNL     1      -2.249   7.495 -32.713  1.00  0.00     0.333 A 
HETATM    3  O   UNL     1      -1.570   8.294 -33.328  1.00  0.00    -0.246 OA
HETATM    4  N   UNL     1      -2.684   6.280 -33.254  1.00  0.00    -0.292 N 
HETATM    5  C   UNL     1      -3.392   5.580 -32.317  1.00  0.00     0.146 A 
HETATM    6  C   UNL     1      -3.454   6.321 -31.191  1.00  0.00     0.126 A 
HETATM    7  H   UNL     1      -2.420   6.002 -34.189  1.00  0.00     0.172 HD
ENDROOT
BRANCH   5   8
HETATM    8  N   UNL     1      -3.993   4.350 -32.600  1.00  0.00    -0.317 N 
HETATM    9  C   UNL     1      -5.118   4.317 -33.356  1.00  0.00     0.099 A 
HETATM   10  C   UNL     1      -5.764   3.115 -33.640  1.00  0.00     0.030 A 
HETATM   11  C   UNL     1      -5.252   1.908 -33.160  1.00  0.00    -0.023 A 
HETATM   12  C   UNL     1      -4.067   1.962 -32.425  1.00  0.00     0.030 A 
HETATM   13  C   UNL     1      -3.453   3.185 -32.162  1.00  0.00     0.099 A 
BRANCH  11  14
HETATM   14  C   UNL     1      -5.943   0.631 -33.403  1.00  0.00    -0.023 A 
HETATM   15  C   UNL     1      -7.338   0.529 -33.326  1.00  0.00     0.031 A 
HETATM   16  C   UNL     1      -7.939  -0.702 -33.552  1.00  0.00     0.117 A 
HETATM   17  N   UNL     1      -7.253  -1.823 -33.843  1.00  0.00    -0.273 NA
HETATM   18  C   UNL     1      -5.912  -1.718 -33.917  1.00  0.00     0.117 A 
HETATM   19  C   UNL     1      -5.224  -0.533 -33.709  1.00  0.00     0.031 A 
ENDBRANCH  11  14
ENDBRANCH   5   8
BRANCH   6  20
HETATM   20  C   UNL     1      -4.342   6.050 -30.046  1.00  0.00     0.292 C 
HETATM   21  O   UNL     1      -5.364   6.695 -29.846  1.00  0.00    -0.300 OA
ENDBRANCH   6  20
BRANCH   1  22
HETATM   22  C   UNL     1      -2.473   8.561 -30.457  1.00  0.00     0.044 A 
HETATM   23  C   UNL     1      -1.565   8.377 -29.403  1.00  0.00     0.030 A 
HETATM   24  C   UNL     1      -1.275   9.414 -28.511  1.00  0.00     0.002 A 
HETATM   25  C   UNL     1      -1.900  10.650 -28.647  1.00  0.00     0.000 A 
HETATM   26  C   UNL     1      -2.823  10.843 -29.668  1.00  0.00     0.002 A 
HETATM   27  C   UNL     1      -3.112   9.807 -30.562  1.00  0.00     0.030 A 
ENDBRANCH   1  22
TORSDOF 4
ENDMDL
