MODEL 1
REMARK VINA RESULT:      -9.0      0.000      0.000
REMARK  2 active torsions:
REMARK  status: ('A' for Active; 'I' for Inactive)
REMARK    1  A    between atoms: O_2  and  C_3 
REMARK    2  A    between atoms: C_7  and  N_8 
REMARK       I    between atoms: N_8  and  C_9 
REMARK       I    between atoms: C_9  and  N_10 
ROOT
HETATM    1  N   UNL     1      -4.548   3.566 -31.753  1.00  0.00    -0.309 N 
HETATM    2  C   UNL     1      -3.802   2.441 -31.483  1.00  0.00     0.323 C 
HETATM    3  N   UNL     1      -4.490   1.237 -31.579  1.00  0.00    -0.328 N 
HETATM    4  C   UNL     1      -3.689   0.010 -31.458  1.00  0.00     0.185 C 
HETATM    5  C   UNL     1      -4.293  -1.027 -32.341  1.00  0.00     0.035 A 
HETATM    6  C   UNL     1      -5.526  -0.976 -32.961  1.00  0.00    -0.020 A 
HETATM    7  C   UNL     1      -6.418   0.207 -32.800  1.00  0.00     0.061 C 
HETATM    8  C   UNL     1      -5.958   1.039 -31.584  1.00  0.00     0.132 C 
HETATM    9  N   UNL     1      -3.693  -2.207 -32.683  1.00  0.00    -0.357 N 
HETATM   10  H   UNL     1      -2.777  -2.512 -32.382  1.00  0.00     0.166 HD
HETATM   11  C   UNL     1      -4.517  -2.922 -33.526  1.00  0.00     0.043 A 
HETATM   12  C   UNL     1      -5.678  -2.166 -33.720  1.00  0.00    -0.001 A 
HETATM   13  C   UNL     1      -4.318  -4.167 -34.135  1.00  0.00     0.030 A 
HETATM   14  C   UNL     1      -5.330  -4.653 -34.967  1.00  0.00     0.002 A 
HETATM   15  C   UNL     1      -6.496  -3.920 -35.180  1.00  0.00     0.001 A 
HETATM   16  C   UNL     1      -6.683  -2.677 -34.564  1.00  0.00     0.014 A 
HETATM   17  O   UNL     1      -2.606   2.459 -31.199  1.00  0.00    -0.247 OA
HETATM   18  H   UNL     1      -5.466   3.410 -32.127  1.00  0.00     0.170 HD
ENDROOT
BRANCH   1  19
HETATM   19  C   UNL     1      -4.118   4.911 -31.757  1.00  0.00     0.038 A 
HETATM   20  C   UNL     1      -3.229   5.455 -32.686  1.00  0.00     0.056 A 
HETATM   21  C   UNL     1      -2.889   6.812 -32.633  1.00  0.00     0.069 A 
HETATM   22  C   UNL     1      -3.436   7.647 -31.651  1.00  0.00     0.090 A 
HETATM   23 CL   UNL     1      -1.807   7.433 -33.830  1.00  0.00    -0.081 Cl
HETATM   24  C   UNL     1      -4.292   7.098 -30.695  1.00  0.00     0.041 A 
HETATM   25  C   UNL     1      -4.636   5.743 -30.755  1.00  0.00     0.032 A 
BRANCH  22  26
HETATM   26  O   UNL     1      -3.060   8.964 -31.631  1.00  0.00    -0.354 OA
HETATM   27  C   UNL     1      -2.407   9.367 -30.430  1.00  0.00     0.210 C 
ENDBRANCH  22  26
ENDBRANCH   1  19
TORSDOF 2
ENDMDL
MODEL 2
REMARK VINA RESULT:      -8.6      5.755      9.309
REMARK  2 active torsions:
REMARK  status: ('A' for Active; 'I' for Inactive)
REMARK    1  A    between atoms: O_2  and  C_3 
REMARK    2  A    between atoms: C_7  and  N_8 
REMARK       I    between atoms: N_8  and  C_9 
REMARK       I    between atoms: C_9  and  N_10 
ROOT
HETATM    1  N   UNL     1      -7.181   0.537 -33.449  1.00  0.00    -0.309 N 
HETATM    2  C   UNL     1      -7.522   1.063 -32.224  1.00  0.00     0.323 C 
HETATM    3  N   UNL     1      -8.310   2.207 -32.269  1.00  0.00    -0.328 N 
HETATM    4  C   UNL     1      -8.828   2.701 -30.985  1.00  0.00     0.185 C 
HETATM    5  C   UNL     1     -10.174   3.293 -31.225  1.00  0.00     0.035 A 
HETATM    6  C   UNL     1     -10.745   3.590 -32.447  1.00  0.00    -0.020 A 
HETATM    7  C   UNL     1     -10.023   3.316 -33.720  1.00  0.00     0.061 C 
HETATM    8  C   UNL     1      -8.522   3.107 -33.428  1.00  0.00     0.132 C 
HETATM    9  N   UNL     1     -11.065   3.628 -30.244  1.00  0.00    -0.357 N 
HETATM   10  H   UNL     1     -10.920   3.513 -29.250  1.00  0.00     0.166 HD
HETATM   11  C   UNL     1     -12.216   4.132 -30.813  1.00  0.00     0.043 A 
HETATM   12  C   UNL     1     -12.042   4.116 -32.201  1.00  0.00    -0.001 A 
HETATM   13  C   UNL     1     -13.393   4.587 -30.206  1.00  0.00     0.030 A 
HETATM   14  C   UNL     1     -14.422   5.036 -31.040  1.00  0.00     0.002 A 
HETATM   15  C   UNL     1     -14.277   5.029 -32.425  1.00  0.00     0.001 A 
HETATM   16  C   UNL     1     -13.094   4.572 -33.018  1.00  0.00     0.014 A 
HETATM   17  O   UNL     1      -7.195   0.569 -31.147  1.00  0.00    -0.247 OA
HETATM   18  H   UNL     1      -7.640   0.936 -34.247  1.00  0.00     0.170 HD
ENDROOT
BRANCH   1  19
HETATM   19  C   UNL     1      -6.416  -0.621 -33.714  1.00  0.00     0.038 A 
HETATM   20  C   UNL     1      -6.934  -1.808 -34.234  1.00  0.00     0.056 A 
HETATM   21  C   UNL     1      -6.091  -2.894 -34.499  1.00  0.00     0.069 A 
HETATM   22  C   UNL     1      -4.716  -2.807 -34.250  1.00  0.00     0.090 A 
HETATM   23 CL   UNL     1      -6.787  -4.327 -35.172  1.00  0.00    -0.081 Cl
HETATM   24  C   UNL     1      -4.201  -1.637 -33.690  1.00  0.00     0.041 A 
HETATM   25  C   UNL     1      -5.045  -0.551 -33.433  1.00  0.00     0.032 A 
BRANCH  22  26
HETATM   26  O   UNL     1      -3.935  -3.903 -34.511  1.00  0.00    -0.354 OA
HETATM   27  C   UNL     1      -3.577  -4.654 -33.354  1.00  0.00     0.210 C 
ENDBRANCH  22  26
ENDBRANCH   1  19
TORSDOF 2
ENDMDL
MODEL 3
REMARK VINA RESULT:      -8.4     16.523     18.421
REMARK  2 active torsions:
REMARK  status: ('A' for Active; 'I' for Inactive)
REMARK    1  A    between atoms: O_2  and  C_3 
REMARK    2  A    between atoms: C_7  and  N_8 
REMARK       I    between atoms: N_8  and  C_9 
REMARK       I    between atoms: C_9  and  N_10 
ROOT
HETATM    1  N   UNL     1      -6.887 -13.377 -38.552  1.00  0.00    -0.309 N 
HETATM    2  C   UNL     1      -5.786 -12.724 -39.057  1.00  0.00     0.323 C 
HETATM    3  N   UNL     1      -4.626 -12.846 -38.301  1.00  0.00    -0.328 N 
HETATM    4  C   UNL     1      -3.395 -12.300 -38.891  1.00  0.00     0.185 C 
HETATM    5  C   UNL     1      -2.255 -13.160 -38.464  1.00  0.00     0.035 A 
HETATM    6  C   UNL     1      -2.269 -14.130 -37.481  1.00  0.00    -0.020 A 
HETATM    7  C   UNL     1      -3.511 -14.432 -36.716  1.00  0.00     0.061 C 
HETATM    8  C   UNL     1      -4.517 -13.273 -36.886  1.00  0.00     0.132 C 
HETATM    9  N   UNL     1      -1.001 -13.119 -39.005  1.00  0.00    -0.357 N 
HETATM   10  H   UNL     1      -0.700 -12.508 -39.753  1.00  0.00     0.166 HD
HETATM   11  C   UNL     1      -0.198 -14.058 -38.393  1.00  0.00     0.043 A 
HETATM   12  C   UNL     1      -0.974 -14.712 -37.430  1.00  0.00    -0.001 A 
HETATM   13  C   UNL     1       1.144 -14.381 -38.625  1.00  0.00     0.030 A 
HETATM   14  C   UNL     1       1.709 -15.402 -37.856  1.00  0.00     0.002 A 
HETATM   15  C   UNL     1       0.959 -16.072 -36.892  1.00  0.00     0.001 A 
HETATM   16  C   UNL     1      -0.382 -15.738 -36.669  1.00  0.00     0.014 A 
HETATM   17  O   UNL     1      -5.784 -12.091 -40.111  1.00  0.00    -0.247 OA
HETATM   18  H   UNL     1      -6.722 -13.988 -37.772  1.00  0.00     0.170 HD
ENDROOT
BRANCH   1  19
HETATM   19  C   UNL     1      -8.183 -13.450 -39.107  1.00  0.00     0.038 A 
HETATM   20  C   UNL     1      -8.950 -12.341 -39.473  1.00  0.00     0.056 A 
HETATM   21  C   UNL     1     -10.213 -12.513 -40.052  1.00  0.00     0.069 A 
HETATM   22  C   UNL     1     -10.726 -13.796 -40.279  1.00  0.00     0.090 A 
HETATM   23 CL   UNL     1     -11.102 -11.102 -40.511  1.00  0.00    -0.081 Cl
HETATM   24  C   UNL     1      -9.981 -14.905 -39.876  1.00  0.00     0.041 A 
HETATM   25  C   UNL     1      -8.716 -14.730 -39.304  1.00  0.00     0.032 A 
BRANCH  22  26
HETATM   26  O   UNL     1     -11.974 -13.911 -40.834  1.00  0.00    -0.354 OA
HETATM   27  C   UNL     1     -12.129 -15.034 -41.696  1.00  0.00     0.210 C 
ENDBRANCH  22  26
ENDBRANCH   1  19
TORSDOF 2
ENDMDL
MODEL 4
REMARK VINA RESULT:      -8.0      5.979      9.526
REMARK  2 active torsions:
REMARK  status: ('A' for Active; 'I' for Inactive)
REMARK    1  A    between atoms: O_2  and  C_3 
REMARK    2  A    between atoms: C_7  and  N_8 
REMARK       I    between atoms: N_8  and  C_9 
REMARK       I    between atoms: C_9  and  N_10 
ROOT
HETATM    1  N   UNL     1      -7.079   0.429 -33.553  1.00  0.00    -0.309 N 
HETATM    2  C   UNL     1      -8.412   0.560 -33.237  1.00  0.00     0.323 C 
HETATM    3  N   UNL     1      -8.865   1.869 -33.110  1.00  0.00    -0.328 N 
HETATM    4  C   UNL     1     -10.314   2.049 -32.935  1.00  0.00     0.185 C 
HETATM    5  C   UNL     1     -10.708   3.317 -33.613  1.00  0.00     0.035 A 
HETATM    6  C   UNL     1      -9.864   4.302 -34.089  1.00  0.00    -0.020 A 
HETATM    7  C   UNL     1      -8.385   4.171 -33.969  1.00  0.00     0.061 C 
HETATM    8  C   UNL     1      -8.045   3.089 -32.922  1.00  0.00     0.132 C 
HETATM    9  N   UNL     1     -11.995   3.693 -33.878  1.00  0.00    -0.357 N 
HETATM   10  H   UNL     1     -12.824   3.161 -33.649  1.00  0.00     0.166 HD
HETATM   11  C   UNL     1     -12.000   4.908 -34.530  1.00  0.00     0.043 A 
HETATM   12  C   UNL     1     -10.670   5.312 -34.678  1.00  0.00    -0.001 A 
HETATM   13  C   UNL     1     -13.076   5.668 -35.004  1.00  0.00     0.030 A 
HETATM   14  C   UNL     1     -12.786   6.873 -35.651  1.00  0.00     0.002 A 
HETATM   15  C   UNL     1     -11.470   7.299 -35.815  1.00  0.00     0.001 A 
HETATM   16  C   UNL     1     -10.403   6.529 -35.334  1.00  0.00     0.014 A 
HETATM   17  O   UNL     1      -9.183  -0.387 -33.097  1.00  0.00    -0.247 OA
HETATM   18  H   UNL     1      -6.595   1.274 -33.798  1.00  0.00     0.170 HD
ENDROOT
BRANCH   1  19
HETATM   19  C   UNL     1      -6.351  -0.762 -33.766  1.00  0.00     0.038 A 
HETATM   20  C   UNL     1      -6.853  -1.889 -34.420  1.00  0.00     0.056 A 
HETATM   21  C   UNL     1      -6.044  -3.014 -34.619  1.00  0.00     0.069 A 
HETATM   22  C   UNL     1      -4.718  -3.026 -34.169  1.00  0.00     0.090 A 
HETATM   23 CL   UNL     1      -6.714  -4.367 -35.462  1.00  0.00    -0.081 Cl
HETATM   24  C   UNL     1      -4.225  -1.918 -33.478  1.00  0.00     0.041 A 
HETATM   25  C   UNL     1      -5.035  -0.793 -33.287  1.00  0.00     0.032 A 
BRANCH  22  26
HETATM   26  O   UNL     1      -3.971  -4.157 -34.373  1.00  0.00    -0.354 OA
HETATM   27  C   UNL     1      -3.404  -4.705 -33.186  1.00  0.00     0.210 C 
ENDBRANCH  22  26
ENDBRANCH   1  19
TORSDOF 2
ENDMDL
MODEL 5
REMARK VINA RESULT:      -8.0      6.600      9.346
REMARK  2 active torsions:
REMARK  status: ('A' for Active; 'I' for Inactive)
REMARK    1  A    between atoms: O_2  and  C_3 
REMARK    2  A    between atoms: C_7  and  N_8 
REMARK       I    between atoms: N_8  and  C_9 
REMARK       I    between atoms: C_9  and  N_10 
ROOT
HETATM    1  N   UNL     1      -8.754   0.359 -33.445  1.00  0.00    -0.309 N 
HETATM    2  C   UNL     1      -9.117   1.683 -33.352  1.00  0.00     0.323 C 
HETATM    3  N   UNL     1     -10.426   1.967 -33.725  1.00  0.00    -0.328 N 
HETATM    4  C   UNL     1     -10.897   3.339 -33.485  1.00  0.00     0.185 C 
HETATM    5  C   UNL     1     -12.345   3.278 -33.140  1.00  0.00     0.035 A 
HETATM    6  C   UNL     1     -13.187   2.192 -33.276  1.00  0.00    -0.020 A 
HETATM    7  C   UNL     1     -12.687   0.893 -33.806  1.00  0.00     0.061 C 
HETATM    8  C   UNL     1     -11.337   1.113 -34.523  1.00  0.00     0.132 C 
HETATM    9  N   UNL     1     -13.066   4.314 -32.614  1.00  0.00    -0.357 N 
HETATM   10  H   UNL     1     -12.706   5.233 -32.398  1.00  0.00     0.166 HD
HETATM   11  C   UNL     1     -14.367   3.912 -32.397  1.00  0.00     0.043 A 
HETATM   12  C   UNL     1     -14.470   2.578 -32.803  1.00  0.00    -0.001 A 
HETATM   13  C   UNL     1     -15.450   4.624 -31.867  1.00  0.00     0.030 A 
HETATM   14  C   UNL     1     -16.671   3.953 -31.745  1.00  0.00     0.002 A 
HETATM   15  C   UNL     1     -16.801   2.624 -32.138  1.00  0.00     0.001 A 
HETATM   16  C   UNL     1     -15.710   1.925 -32.668  1.00  0.00     0.014 A 
HETATM   17  O   UNL     1      -8.373   2.575 -32.948  1.00  0.00    -0.247 OA
HETATM   18  H   UNL     1      -9.495  -0.292 -33.634  1.00  0.00     0.170 HD
ENDROOT
BRANCH   1  19
HETATM   19  C   UNL     1      -7.511  -0.225 -33.116  1.00  0.00     0.038 A 
HETATM   20  C   UNL     1      -6.784  -1.065 -33.962  1.00  0.00     0.056 A 
HETATM   21  C   UNL     1      -5.540  -1.569 -33.563  1.00  0.00     0.069 A 
HETATM   22  C   UNL     1      -5.002  -1.235 -32.315  1.00  0.00     0.090 A 
HETATM   23 CL   UNL     1      -4.674  -2.581 -34.667  1.00  0.00    -0.081 Cl
HETATM   24  C   UNL     1      -5.744  -0.430 -31.450  1.00  0.00     0.041 A 
HETATM   25  C   UNL     1      -6.984   0.078 -31.854  1.00  0.00     0.032 A 
BRANCH  22  26
HETATM   26  O   UNL     1      -3.788  -1.767 -31.964  1.00  0.00    -0.354 OA
HETATM   27  C   UNL     1      -2.736  -0.810 -31.874  1.00  0.00     0.210 C 
ENDBRANCH  22  26
ENDBRANCH   1  19
TORSDOF 2
ENDMDL
MODEL 6
REMARK VINA RESULT:      -7.9      3.952      9.648
REMARK  2 active torsions:
REMARK  status: ('A' for Active; 'I' for Inactive)
REMARK    1  A    between atoms: O_2  and  C_3 
REMARK    2  A    between atoms: C_7  and  N_8 
REMARK       I    between atoms: N_8  and  C_9 
REMARK       I    between atoms: C_9  and  N_10 
ROOT
HETATM    1  N   UNL     1      -4.400   4.415 -31.640  1.00  0.00    -0.309 N 
HETATM    2  C   UNL     1      -3.027   4.376 -31.561  1.00  0.00     0.323 C 
HETATM    3  N   UNL     1      -2.412   5.599 -31.319  1.00  0.00    -0.328 N 
HETATM    4  C   UNL     1      -0.964   5.569 -31.066  1.00  0.00     0.185 C 
HETATM    5  C   UNL     1      -0.642   6.644 -30.086  1.00  0.00     0.035 A 
HETATM    6  C   UNL     1      -1.470   7.670 -29.677  1.00  0.00    -0.020 A 
HETATM    7  C   UNL     1      -2.856   7.798 -30.206  1.00  0.00     0.061 C 
HETATM    8  C   UNL     1      -2.999   6.949 -31.488  1.00  0.00     0.132 C 
HETATM    9  N   UNL     1       0.548   6.766 -29.424  1.00  0.00    -0.357 N 
HETATM   10  H   UNL     1       1.342   6.147 -29.519  1.00  0.00     0.166 HD
HETATM   11  C   UNL     1       0.503   7.855 -28.581  1.00  0.00     0.043 A 
HETATM   12  C   UNL     1      -0.760   8.442 -28.718  1.00  0.00    -0.001 A 
HETATM   13  C   UNL     1       1.475   8.355 -27.706  1.00  0.00     0.030 A 
HETATM   14  C   UNL     1       1.148   9.483 -26.948  1.00  0.00     0.002 A 
HETATM   15  C   UNL     1      -0.103  10.086 -27.062  1.00  0.00     0.001 A 
HETATM   16  C   UNL     1      -1.065   9.576 -27.942  1.00  0.00     0.014 A 
HETATM   17  O   UNL     1      -2.360   3.348 -31.665  1.00  0.00    -0.247 OA
HETATM   18  H   UNL     1      -4.835   5.282 -31.380  1.00  0.00     0.170 HD
ENDROOT
BRANCH   1  19
HETATM   19  C   UNL     1      -5.289   3.338 -31.852  1.00  0.00     0.038 A 
HETATM   20  C   UNL     1      -5.610   2.814 -33.105  1.00  0.00     0.056 A 
HETATM   21  C   UNL     1      -6.474   1.717 -33.215  1.00  0.00     0.069 A 
HETATM   22  C   UNL     1      -7.027   1.127 -32.072  1.00  0.00     0.090 A 
HETATM   23 CL   UNL     1      -6.810   1.094 -34.793  1.00  0.00    -0.081 Cl
HETATM   24  C   UNL     1      -6.741   1.675 -30.821  1.00  0.00     0.041 A 
HETATM   25  C   UNL     1      -5.871   2.766 -30.714  1.00  0.00     0.032 A 
BRANCH  22  26
HETATM   26  O   UNL     1      -7.880   0.067 -32.233  1.00  0.00    -0.354 OA
HETATM   27  C   UNL     1      -9.261   0.415 -32.185  1.00  0.00     0.210 C 
ENDBRANCH  22  26
ENDBRANCH   1  19
TORSDOF 2
ENDMDL
MODEL 7
REMARK VINA RESULT:      -7.9      5.748      9.367
REMARK  2 active torsions:
REMARK  status: ('A' for Active; 'I' for Inactive)
REMARK    1  A    between atoms: O_2  and  C_3 
REMARK    2  A    between atoms: C_7  and  N_8 
REMARK       I    between atoms: N_8  and  C_9 
REMARK       I    between atoms: C_9  and  N_10 
ROOT
HETATM    1  N   UNL     1      -6.895   0.599 -33.440  1.00  0.00    -0.309 N 
HETATM    2  C   UNL     1      -8.258   0.639 -33.253  1.00  0.00     0.323 C 
HETATM    3  N   UNL     1      -8.801   1.912 -33.126  1.00  0.00    -0.328 N 
HETATM    4  C   UNL     1     -10.269   2.001 -33.088  1.00  0.00     0.185 C 
HETATM    5  C   UNL     1     -10.673   3.270 -33.757  1.00  0.00     0.035 A 
HETATM    6  C   UNL     1      -9.851   4.320 -34.113  1.00  0.00    -0.020 A 
HETATM    7  C   UNL     1      -8.385   4.272 -33.854  1.00  0.00     0.061 C 
HETATM    8  C   UNL     1      -8.081   3.170 -32.816  1.00  0.00     0.132 C 
HETATM    9  N   UNL     1     -11.950   3.580 -34.134  1.00  0.00    -0.357 N 
HETATM   10  H   UNL     1     -12.762   2.992 -34.007  1.00  0.00     0.166 HD
HETATM   11  C   UNL     1     -11.968   4.818 -34.741  1.00  0.00     0.043 A 
HETATM   12  C   UNL     1     -10.657   5.305 -34.744  1.00  0.00    -0.001 A 
HETATM   13  C   UNL     1     -13.038   5.533 -35.292  1.00  0.00     0.030 A 
HETATM   14  C   UNL     1     -12.762   6.778 -35.865  1.00  0.00     0.002 A 
HETATM   15  C   UNL     1     -11.465   7.286 -35.884  1.00  0.00     0.001 A 
HETATM   16  C   UNL     1     -10.405   6.561 -35.328  1.00  0.00     0.014 A 
HETATM   17  O   UNL     1      -8.979  -0.357 -33.222  1.00  0.00    -0.247 OA
HETATM   18  H   UNL     1      -6.444   1.480 -33.607  1.00  0.00     0.170 HD
ENDROOT
BRANCH   1  19
HETATM   19  C   UNL     1      -6.078  -0.539 -33.622  1.00  0.00     0.038 A 
HETATM   20  C   UNL     1      -5.035  -0.906 -32.770  1.00  0.00     0.056 A 
HETATM   21  C   UNL     1      -4.301  -2.074 -33.011  1.00  0.00     0.069 A 
HETATM   22  C   UNL     1      -4.602  -2.893 -34.105  1.00  0.00     0.090 A 
HETATM   23 CL   UNL     1      -3.040  -2.493 -31.903  1.00  0.00    -0.081 Cl
HETATM   24  C   UNL     1      -5.616  -2.507 -34.983  1.00  0.00     0.041 A 
HETATM   25  C   UNL     1      -6.352  -1.343 -34.736  1.00  0.00     0.032 A 
BRANCH  22  26
HETATM   26  O   UNL     1      -3.843  -4.017 -34.307  1.00  0.00    -0.354 OA
HETATM   27  C   UNL     1      -4.563  -5.240 -34.173  1.00  0.00     0.210 C 
ENDBRANCH  22  26
ENDBRANCH   1  19
TORSDOF 2
ENDMDL
MODEL 8
REMARK VINA RESULT:      -7.7      4.977      5.855
REMARK  2 active torsions:
REMARK  status: ('A' for Active; 'I' for Inactive)
REMARK    1  A    between atoms: O_2  and  C_3 
REMARK    2  A    between atoms: C_7  and  N_8 
REMARK       I    between atoms: N_8  and  C_9 
REMARK       I    between atoms: C_9  and  N_10 
ROOT
HETATM    1  N   UNL     1      -8.428   2.839 -32.813  1.00  0.00    -0.309 N 
HETATM    2  C   UNL     1      -8.307   1.925 -33.834  1.00  0.00     0.323 C 
HETATM    3  N   UNL     1      -7.067   1.303 -33.928  1.00  0.00    -0.328 N 
HETATM    4  C   UNL     1      -6.952   0.206 -34.901  1.00  0.00     0.185 C 
HETATM    5  C   UNL     1      -6.006  -0.805 -34.350  1.00  0.00     0.035 A 
HETATM    6  C   UNL     1      -5.165  -0.652 -33.265  1.00  0.00    -0.020 A 
HETATM    7  C   UNL     1      -5.135   0.619 -32.489  1.00  0.00     0.061 C 
HETATM    8  C   UNL     1      -5.791   1.745 -33.316  1.00  0.00     0.132 C 
HETATM    9  N   UNL     1      -5.837  -2.067 -34.847  1.00  0.00    -0.357 N 
HETATM   10  H   UNL     1      -6.329  -2.461 -35.637  1.00  0.00     0.166 HD
HETATM   11  C   UNL     1      -4.902  -2.743 -34.092  1.00  0.00     0.043 A 
HETATM   12  C   UNL     1      -4.465  -1.874 -33.086  1.00  0.00    -0.001 A 
HETATM   13  C   UNL     1      -4.421  -4.052 -34.218  1.00  0.00     0.030 A 
HETATM   14  C   UNL     1      -3.471  -4.488 -33.290  1.00  0.00     0.002 A 
HETATM   15  C   UNL     1      -3.020  -3.645 -32.277  1.00  0.00     0.001 A 
HETATM   16  C   UNL     1      -3.507  -2.338 -32.163  1.00  0.00     0.014 A 
HETATM   17  O   UNL     1      -9.215   1.633 -34.610  1.00  0.00    -0.247 OA
HETATM   18  H   UNL     1      -7.673   2.870 -32.152  1.00  0.00     0.170 HD
ENDROOT
BRANCH   1  19
HETATM   19  C   UNL     1      -9.565   3.601 -32.461  1.00  0.00     0.038 A 
HETATM   20  C   UNL     1     -10.194   4.516 -33.306  1.00  0.00     0.056 A 
HETATM   21  C   UNL     1     -11.340   5.200 -32.883  1.00  0.00     0.069 A 
HETATM   22  C   UNL     1     -11.875   4.976 -31.609  1.00  0.00     0.090 A 
HETATM   23 CL   UNL     1     -12.094   6.299 -33.986  1.00  0.00    -0.081 Cl
HETATM   24  C   UNL     1     -11.224   4.093 -30.746  1.00  0.00     0.041 A 
HETATM   25  C   UNL     1     -10.083   3.406 -31.174  1.00  0.00     0.032 A 
BRANCH  22  26
HETATM   26  O   UNL     1     -12.989   5.682 -31.235  1.00  0.00    -0.354 OA
HETATM   27  C   UNL     1     -12.720   6.783 -30.371  1.00  0.00     0.210 C 
ENDBRANCH  22  26
ENDBRANCH   1  19
TORSDOF 2
ENDMDL
MODEL 9
REMARK VINA RESULT:      -7.6      3.573      5.655
REMARK  2 active torsions:
REMARK  status: ('A' for Active; 'I' for Inactive)
REMARK    1  A    between atoms: O_2  and  C_3 
REMARK    2  A    between atoms: C_7  and  N_8 
REMARK       I    between atoms: N_8  and  C_9 
REMARK       I    between atoms: C_9  and  N_10 
ROOT
HETATM    1  N   UNL     1      -1.622   6.135 -29.743  1.00  0.00    -0.309 N 
HETATM    2  C   UNL     1      -2.836   6.355 -30.352  1.00  0.00     0.323 C 
HETATM    3  N   UNL     1      -3.266   5.341 -31.200  1.00  0.00    -0.328 N 
HETATM    4  C   UNL     1      -4.629   5.467 -31.738  1.00  0.00     0.185 C 
HETATM    5  C   UNL     1      -5.203   4.098 -31.873  1.00  0.00     0.035 A 
HETATM    6  C   UNL     1      -4.523   2.899 -31.781  1.00  0.00    -0.020 A 
HETATM    7  C   UNL     1      -3.059   2.864 -31.509  1.00  0.00     0.061 C 
HETATM    8  C   UNL     1      -2.448   4.254 -31.789  1.00  0.00     0.132 C 
HETATM    9  N   UNL     1      -6.522   3.824 -32.104  1.00  0.00    -0.357 N 
HETATM   10  H   UNL     1      -7.258   4.510 -32.207  1.00  0.00     0.166 HD
HETATM   11  C   UNL     1      -6.712   2.460 -32.153  1.00  0.00     0.043 A 
HETATM   12  C   UNL     1      -5.468   1.853 -31.950  1.00  0.00    -0.001 A 
HETATM   13  C   UNL     1      -7.886   1.723 -32.352  1.00  0.00     0.030 A 
HETATM   14  C   UNL     1      -7.789   0.329 -32.339  1.00  0.00     0.002 A 
HETATM   15  C   UNL     1      -6.563  -0.302 -32.136  1.00  0.00     0.001 A 
HETATM   16  C   UNL     1      -5.397   0.447 -31.940  1.00  0.00     0.014 A 
HETATM   17  O   UNL     1      -3.530   7.352 -30.165  1.00  0.00    -0.247 OA
HETATM   18  H   UNL     1      -1.230   5.217 -29.852  1.00  0.00     0.170 HD
ENDROOT
BRANCH   1  19
HETATM   19  C   UNL     1      -0.948   6.969 -28.824  1.00  0.00     0.038 A 
HETATM   20  C   UNL     1      -1.488   7.408 -27.613  1.00  0.00     0.056 A 
HETATM   21  C   UNL     1      -0.731   8.204 -26.746  1.00  0.00     0.069 A 
HETATM   22  C   UNL     1       0.580   8.570 -27.075  1.00  0.00     0.090 A 
HETATM   23 CL   UNL     1      -1.443   8.692 -25.247  1.00  0.00    -0.081 Cl
HETATM   24  C   UNL     1       1.108   8.169 -28.304  1.00  0.00     0.041 A 
HETATM   25  C   UNL     1       0.351   7.367 -29.165  1.00  0.00     0.032 A 
BRANCH  22  26
HETATM   26  O   UNL     1       1.275   9.365 -26.201  1.00  0.00    -0.354 OA
HETATM   27  C   UNL     1       2.326   8.694 -25.511  1.00  0.00     0.210 C 
ENDBRANCH  22  26
ENDBRANCH   1  19
TORSDOF 2
ENDMDL
MODEL 10
REMARK VINA RESULT:      -7.5      6.101      6.624
REMARK  2 active torsions:
REMARK  status: ('A' for Active; 'I' for Inactive)
REMARK    1  A    between atoms: O_2  and  C_3 
REMARK    2  A    between atoms: C_7  and  N_8 
REMARK       I    between atoms: N_8  and  C_9 
REMARK       I    between atoms: C_9  and  N_10 
ROOT
HETATM    1  N   UNL     1     -10.281   4.121 -34.399  1.00  0.00    -0.309 N 
HETATM    2  C   UNL     1      -9.048   4.043 -33.793  1.00  0.00     0.323 C 
HETATM    3  N   UNL     1      -8.672   2.771 -33.376  1.00  0.00    -0.328 N 
HETATM    4  C   UNL     1      -7.298   2.622 -32.875  1.00  0.00     0.185 C 
HETATM    5  C   UNL     1      -6.810   1.266 -33.254  1.00  0.00     0.035 A 
HETATM    6  C   UNL     1      -7.565   0.218 -33.743  1.00  0.00    -0.020 A 
HETATM    7  C   UNL     1      -9.032   0.363 -33.959  1.00  0.00     0.061 C 
HETATM    8  C   UNL     1      -9.550   1.593 -33.183  1.00  0.00     0.132 C 
HETATM    9  N   UNL     1      -5.508   0.857 -33.181  1.00  0.00    -0.357 N 
HETATM   10  H   UNL     1      -4.729   1.419 -32.867  1.00  0.00     0.166 HD
HETATM   11  C   UNL     1      -5.404  -0.444 -33.626  1.00  0.00     0.043 A 
HETATM   12  C   UNL     1      -6.686  -0.869 -33.989  1.00  0.00    -0.001 A 
HETATM   13  C   UNL     1      -4.276  -1.266 -33.742  1.00  0.00     0.030 A 
HETATM   14  C   UNL     1      -4.462  -2.557 -34.246  1.00  0.00     0.002 A 
HETATM   15  C   UNL     1      -5.727  -3.006 -34.618  1.00  0.00     0.001 A 
HETATM   16  C   UNL     1      -6.846  -2.174 -34.495  1.00  0.00     0.014 A 
HETATM   17  O   UNL     1      -8.295   5.002 -33.638  1.00  0.00    -0.247 OA
HETATM   18  H   UNL     1     -10.729   3.247 -34.609  1.00  0.00     0.170 HD
ENDROOT
BRANCH   1  19
HETATM   19  C   UNL     1     -10.912   5.264 -34.939  1.00  0.00     0.038 A 
HETATM   20  C   UNL     1     -10.252   6.270 -35.646  1.00  0.00     0.056 A 
HETATM   21  C   UNL     1     -10.968   7.350 -36.178  1.00  0.00     0.069 A 
HETATM   22  C   UNL     1     -12.356   7.436 -36.013  1.00  0.00     0.090 A 
HETATM   23 CL   UNL     1     -10.099   8.550 -37.070  1.00  0.00    -0.081 Cl
HETATM   24  C   UNL     1     -13.013   6.454 -35.270  1.00  0.00     0.041 A 
HETATM   25  C   UNL     1     -12.295   5.373 -34.746  1.00  0.00     0.032 A 
BRANCH  22  26
HETATM   26  O   UNL     1     -13.009   8.521 -36.538  1.00  0.00    -0.354 OA
HETATM   27  C   UNL     1     -13.702   8.253 -37.754  1.00  0.00     0.210 C 
ENDBRANCH  22  26
ENDBRANCH   1  19
TORSDOF 2
ENDMDL
