MODEL 1
REMARK VINA RESULT:      -8.5      0.000      0.000
REMARK  5 active torsions:
REMARK  status: ('A' for Active; 'I' for Inactive)
REMARK    1  A    between atoms: C_6  and  N_7 
REMARK       I    between atoms: N_7  and  C_8 
REMARK    2  A    between atoms: C_8  and  C_9 
REMARK    3  A    between atoms: C_9  and  O_10 
REMARK    4  A    between atoms: O_10  and  C_11 
REMARK    5  A    between atoms: C_19  and  C_20 
ROOT
HETATM    1  C   UNL     1      -6.007   5.123 -29.015  1.00  0.00     0.073 C 
HETATM    2  C   UNL     1      -6.583   4.037 -29.847  1.00  0.00     0.065 A 
HETATM    3  N   UNL     1      -7.670   3.378 -29.425  1.00  0.00    -0.177 NA
HETATM    4  N   UNL     1      -7.921   2.505 -30.415  1.00  0.00    -0.262 N 
HETATM    5  H   UNL     1      -8.715   1.874 -30.339  1.00  0.00     0.191 HD
HETATM    6  C   UNL     1      -7.021   2.560 -31.448  1.00  0.00     0.137 A 
HETATM    7  C   UNL     1      -6.135   3.564 -31.115  1.00  0.00     0.046 A 
ENDROOT
BRANCH   6   8
HETATM    8  N   UNL     1      -7.070   1.728 -32.553  1.00  0.00    -0.309 N 
HETATM    9  C   UNL     1      -6.809   0.371 -32.469  1.00  0.00     0.252 C 
HETATM   10  O   UNL     1      -6.512  -0.219 -31.430  1.00  0.00    -0.270 OA
HETATM   11  H   UNL     1      -7.252   2.140 -33.464  1.00  0.00     0.170 HD
BRANCH   9  12
HETATM   12  C   UNL     1      -6.985  -0.377 -33.799  1.00  0.00     0.217 C 
HETATM   13  C   UNL     1      -7.485   0.602 -34.859  1.00  0.00     0.050 C 
BRANCH  12  14
HETATM   14  O   UNL     1      -5.752  -0.915 -34.277  1.00  0.00    -0.337 OA
BRANCH  14  15
HETATM   15  C   UNL     1      -5.672  -2.274 -34.417  1.00  0.00     0.070 A 
HETATM   16  C   UNL     1      -4.427  -2.822 -34.096  1.00  0.00     0.037 A 
HETATM   17  C   UNL     1      -4.207  -4.197 -34.199  1.00  0.00     0.003 A 
HETATM   18  C   UNL     1      -5.239  -5.035 -34.611  1.00  0.00     0.000 A 
HETATM   19  C   UNL     1      -6.489  -4.498 -34.916  1.00  0.00     0.003 A 
HETATM   20  C   UNL     1      -6.708  -3.121 -34.817  1.00  0.00     0.037 A 
ENDBRANCH  14  15
ENDBRANCH  12  14
ENDBRANCH   9  12
ENDBRANCH   6   8
BRANCH   7  21
HETATM   21  C   UNL     1      -5.026   4.006 -31.938  1.00  0.00    -0.020 A 
HETATM   22  C   UNL     1      -3.734   3.512 -31.711  1.00  0.00     0.014 A 
HETATM   23  C   UNL     1      -2.670   3.922 -32.517  1.00  0.00     0.020 A 
HETATM   24  C   UNL     1      -2.898   4.823 -33.556  1.00  0.00     0.011 A 
HETATM   25 BR   UNL     1      -1.461   5.371 -34.654  1.00  0.00    -0.051 Br
HETATM   26  C   UNL     1      -4.179   5.318 -33.794  1.00  0.00     0.020 A 
HETATM   27  C   UNL     1      -5.242   4.910 -32.985  1.00  0.00     0.014 A 
ENDBRANCH   7  21
TORSDOF 5
ENDMDL
MODEL 2
REMARK VINA RESULT:      -8.4      3.313      7.698
REMARK  5 active torsions:
REMARK  status: ('A' for Active; 'I' for Inactive)
REMARK    1  A    between atoms: C_6  and  N_7 
REMARK       I    between atoms: N_7  and  C_8 
REMARK    2  A    between atoms: C_8  and  C_9 
REMARK    3  A    between atoms: C_9  and  O_10 
REMARK    4  A    between atoms: O_10  and  C_11 
REMARK    5  A    between atoms: C_19  and  C_20 
ROOT
HETATM    1  C   UNL     1      -6.661  -3.269 -34.617  1.00  0.00     0.073 C 
HETATM    2  C   UNL     1      -5.830  -2.126 -34.162  1.00  0.00     0.065 A 
HETATM    3  N   UNL     1      -4.501  -2.264 -34.070  1.00  0.00    -0.177 NA
HETATM    4  N   UNL     1      -4.081  -1.054 -33.663  1.00  0.00    -0.262 N 
HETATM    5  H   UNL     1      -3.088  -0.890 -33.517  1.00  0.00     0.191 HD
HETATM    6  C   UNL     1      -5.092  -0.150 -33.466  1.00  0.00     0.137 A 
HETATM    7  C   UNL     1      -6.255  -0.816 -33.796  1.00  0.00     0.046 A 
ENDROOT
BRANCH   6   8
HETATM    8  N   UNL     1      -4.889   1.143 -33.015  1.00  0.00    -0.309 N 
HETATM    9  C   UNL     1      -3.844   1.475 -32.170  1.00  0.00     0.252 C 
HETATM   10  O   UNL     1      -3.013   0.675 -31.741  1.00  0.00    -0.270 OA
HETATM   11  H   UNL     1      -5.562   1.859 -33.274  1.00  0.00     0.170 HD
BRANCH   9  12
HETATM   12  C   UNL     1      -3.762   2.975 -31.847  1.00  0.00     0.217 C 
HETATM   13  C   UNL     1      -4.629   3.270 -30.626  1.00  0.00     0.050 C 
BRANCH  12  14
HETATM   14  O   UNL     1      -2.432   3.379 -31.522  1.00  0.00    -0.337 OA
BRANCH  14  15
HETATM   15  C   UNL     1      -1.940   4.488 -32.156  1.00  0.00     0.070 A 
HETATM   16  C   UNL     1      -2.198   4.539 -33.528  1.00  0.00     0.037 A 
HETATM   17  C   UNL     1      -1.748   5.615 -34.296  1.00  0.00     0.003 A 
HETATM   18  C   UNL     1      -1.047   6.654 -33.692  1.00  0.00     0.000 A 
HETATM   19  C   UNL     1      -0.800   6.618 -32.320  1.00  0.00     0.003 A 
HETATM   20  C   UNL     1      -1.247   5.539 -31.552  1.00  0.00     0.037 A 
ENDBRANCH  14  15
ENDBRANCH  12  14
ENDBRANCH   9  12
ENDBRANCH   6   8
BRANCH   7  21
HETATM   21  C   UNL     1      -7.584  -0.237 -33.777  1.00  0.00    -0.020 A 
HETATM   22  C   UNL     1      -8.435  -0.454 -32.684  1.00  0.00     0.014 A 
HETATM   23  C   UNL     1      -9.708   0.122 -32.656  1.00  0.00     0.020 A 
HETATM   24  C   UNL     1     -10.128   0.920 -33.719  1.00  0.00     0.011 A 
HETATM   25 BR   UNL     1     -11.846   1.706 -33.677  1.00  0.00    -0.051 Br
HETATM   26  C   UNL     1      -9.289   1.145 -34.809  1.00  0.00     0.020 A 
HETATM   27  C   UNL     1      -8.018   0.567 -34.837  1.00  0.00     0.014 A 
ENDBRANCH   7  21
TORSDOF 5
ENDMDL
MODEL 3
REMARK VINA RESULT:      -7.9      3.235      7.263
REMARK  5 active torsions:
REMARK  status: ('A' for Active; 'I' for Inactive)
REMARK    1  A    between atoms: C_6  and  N_7 
REMARK       I    between atoms: N_7  and  C_8 
REMARK    2  A    between atoms: C_8  and  C_9 
REMARK    3  A    between atoms: C_9  and  O_10 
REMARK    4  A    between atoms: O_10  and  C_11 
REMARK    5  A    between atoms: C_19  and  C_20 
ROOT
HETATM    1  C   UNL     1      -9.946   0.275 -32.737  1.00  0.00     0.073 C 
HETATM    2  C   UNL     1      -8.948   1.373 -32.763  1.00  0.00     0.065 A 
HETATM    3  N   UNL     1      -9.335   2.632 -32.516  1.00  0.00    -0.177 NA
HETATM    4  N   UNL     1      -8.196   3.340 -32.596  1.00  0.00    -0.262 N 
HETATM    5  H   UNL     1      -8.217   4.345 -32.442  1.00  0.00     0.191 HD
HETATM    6  C   UNL     1      -7.093   2.587 -32.909  1.00  0.00     0.137 A 
HETATM    7  C   UNL     1      -7.548   1.288 -33.013  1.00  0.00     0.046 A 
ENDROOT
BRANCH   6   8
HETATM    8  N   UNL     1      -5.825   3.116 -33.074  1.00  0.00    -0.309 N 
HETATM    9  C   UNL     1      -5.599   4.289 -33.775  1.00  0.00     0.252 C 
HETATM   10  O   UNL     1      -6.480   4.962 -34.311  1.00  0.00    -0.270 OA
HETATM   11  H   UNL     1      -5.031   2.596 -32.713  1.00  0.00     0.170 HD
BRANCH   9  12
HETATM   12  C   UNL     1      -4.129   4.734 -33.780  1.00  0.00     0.217 C 
HETATM   13  C   UNL     1      -3.756   5.203 -35.184  1.00  0.00     0.050 C 
BRANCH  12  14
HETATM   14  O   UNL     1      -3.900   5.833 -32.898  1.00  0.00    -0.337 OA
BRANCH  14  15
HETATM   15  C   UNL     1      -2.630   5.997 -32.415  1.00  0.00     0.070 A 
HETATM   16  C   UNL     1      -2.194   4.979 -31.562  1.00  0.00     0.037 A 
HETATM   17  C   UNL     1      -0.918   5.025 -30.995  1.00  0.00     0.003 A 
HETATM   18  C   UNL     1      -0.066   6.084 -31.290  1.00  0.00     0.000 A 
HETATM   19  C   UNL     1      -0.488   7.095 -32.153  1.00  0.00     0.003 A 
HETATM   20  C   UNL     1      -1.766   7.051 -32.718  1.00  0.00     0.037 A 
ENDBRANCH  14  15
ENDBRANCH  12  14
ENDBRANCH   9  12
ENDBRANCH   6   8
BRANCH   7  21
HETATM   21  C   UNL     1      -6.718   0.133 -33.295  1.00  0.00    -0.020 A 
HETATM   22  C   UNL     1      -5.759  -0.293 -32.365  1.00  0.00     0.014 A 
HETATM   23  C   UNL     1      -4.974  -1.419 -32.627  1.00  0.00     0.020 A 
HETATM   24  C   UNL     1      -5.152  -2.123 -33.817  1.00  0.00     0.011 A 
HETATM   25 BR   UNL     1      -4.097  -3.651 -34.168  1.00  0.00    -0.051 Br
HETATM   26  C   UNL     1      -6.105  -1.710 -34.747  1.00  0.00     0.020 A 
HETATM   27  C   UNL     1      -6.887  -0.583 -34.485  1.00  0.00     0.014 A 
ENDBRANCH   7  21
TORSDOF 5
ENDMDL
MODEL 4
REMARK VINA RESULT:      -7.8      4.037      6.379
REMARK  5 active torsions:
REMARK  status: ('A' for Active; 'I' for Inactive)
REMARK    1  A    between atoms: C_6  and  N_7 
REMARK       I    between atoms: N_7  and  C_8 
REMARK    2  A    between atoms: C_8  and  C_9 
REMARK    3  A    between atoms: C_9  and  O_10 
REMARK    4  A    between atoms: O_10  and  C_11 
REMARK    5  A    between atoms: C_19  and  C_20 
ROOT
HETATM    1  C   UNL     1      -3.024   0.155 -31.197  1.00  0.00     0.073 C 
HETATM    2  C   UNL     1      -4.183   1.013 -31.550  1.00  0.00     0.065 A 
HETATM    3  N   UNL     1      -4.267   2.255 -31.055  1.00  0.00    -0.177 NA
HETATM    4  N   UNL     1      -5.401   2.738 -31.591  1.00  0.00    -0.262 N 
HETATM    5  H   UNL     1      -5.697   3.685 -31.371  1.00  0.00     0.191 HD
HETATM    6  C   UNL     1      -6.063   1.844 -32.394  1.00  0.00     0.137 A 
HETATM    7  C   UNL     1      -5.284   0.704 -32.400  1.00  0.00     0.046 A 
ENDROOT
BRANCH   6   8
HETATM    8  N   UNL     1      -7.266   2.119 -33.019  1.00  0.00    -0.309 N 
HETATM    9  C   UNL     1      -8.435   2.337 -32.310  1.00  0.00     0.252 C 
HETATM   10  O   UNL     1      -8.521   2.306 -31.081  1.00  0.00    -0.270 OA
HETATM   11  H   UNL     1      -7.300   2.108 -34.034  1.00  0.00     0.170 HD
BRANCH   9  12
HETATM   12  C   UNL     1      -9.639   2.693 -33.194  1.00  0.00     0.217 C 
HETATM   13  C   UNL     1      -9.259   3.854 -34.110  1.00  0.00     0.050 C 
BRANCH  12  14
HETATM   14  O   UNL     1     -10.024   1.606 -34.036  1.00  0.00    -0.337 OA
BRANCH  14  15
HETATM   15  C   UNL     1     -11.360   1.328 -34.132  1.00  0.00     0.070 A 
HETATM   16  C   UNL     1     -11.756   0.142 -33.508  1.00  0.00     0.037 A 
HETATM   17  C   UNL     1     -13.092  -0.264 -33.534  1.00  0.00     0.003 A 
HETATM   18  C   UNL     1     -14.044   0.525 -34.174  1.00  0.00     0.000 A 
HETATM   19  C   UNL     1     -13.659   1.718 -34.784  1.00  0.00     0.003 A 
HETATM   20  C   UNL     1     -12.321   2.121 -34.762  1.00  0.00     0.037 A 
ENDBRANCH  14  15
ENDBRANCH  12  14
ENDBRANCH   9  12
ENDBRANCH   6   8
BRANCH   7  21
HETATM   21  C   UNL     1      -5.574  -0.501 -33.152  1.00  0.00    -0.020 A 
HETATM   22  C   UNL     1      -4.534  -1.345 -33.565  1.00  0.00     0.014 A 
HETATM   23  C   UNL     1      -4.814  -2.517 -34.272  1.00  0.00     0.020 A 
HETATM   24  C   UNL     1      -6.137  -2.848 -34.561  1.00  0.00     0.011 A 
HETATM   25 BR   UNL     1      -6.518  -4.438 -35.509  1.00  0.00    -0.051 Br
HETATM   26  C   UNL     1      -7.180  -2.018 -34.153  1.00  0.00     0.020 A 
HETATM   27  C   UNL     1      -6.898  -0.846 -33.449  1.00  0.00     0.014 A 
ENDBRANCH   7  21
TORSDOF 5
ENDMDL
MODEL 5
REMARK VINA RESULT:      -7.5      5.220      6.489
REMARK  5 active torsions:
REMARK  status: ('A' for Active; 'I' for Inactive)
REMARK    1  A    between atoms: C_6  and  N_7 
REMARK       I    between atoms: N_7  and  C_8 
REMARK    2  A    between atoms: C_8  and  C_9 
REMARK    3  A    between atoms: C_9  and  O_10 
REMARK    4  A    between atoms: O_10  and  C_11 
REMARK    5  A    between atoms: C_19  and  C_20 
ROOT
HETATM    1  C   UNL     1     -15.586   1.783 -33.046  1.00  0.00     0.073 C 
HETATM    2  C   UNL     1     -14.235   1.238 -33.332  1.00  0.00     0.065 A 
HETATM    3  N   UNL     1     -14.039  -0.087 -33.343  1.00  0.00    -0.177 NA
HETATM    4  N   UNL     1     -12.738  -0.217 -33.654  1.00  0.00    -0.262 N 
HETATM    5  H   UNL     1     -12.331  -1.145 -33.730  1.00  0.00     0.191 HD
HETATM    6  C   UNL     1     -12.083   0.977 -33.820  1.00  0.00     0.137 A 
HETATM    7  C   UNL     1     -13.039   1.954 -33.629  1.00  0.00     0.046 A 
ENDROOT
BRANCH   6   8
HETATM    8  N   UNL     1     -10.734   1.077 -34.111  1.00  0.00    -0.309 N 
HETATM    9  C   UNL     1      -9.765   0.454 -33.343  1.00  0.00     0.252 C 
HETATM   10  O   UNL     1      -9.998  -0.233 -32.348  1.00  0.00    -0.270 OA
HETATM   11  H   UNL     1     -10.446   1.672 -34.882  1.00  0.00     0.170 HD
BRANCH   9  12
HETATM   12  C   UNL     1      -8.337   0.638 -33.879  1.00  0.00     0.217 C 
HETATM   13  C   UNL     1      -8.025   2.131 -33.960  1.00  0.00     0.050 C 
BRANCH  12  14
HETATM   14  O   UNL     1      -7.362   0.054 -33.016  1.00  0.00    -0.337 OA
BRANCH  14  15
HETATM   15  C   UNL     1      -6.579  -0.941 -33.534  1.00  0.00     0.070 A 
HETATM   16  C   UNL     1      -5.227  -0.861 -33.186  1.00  0.00     0.037 A 
HETATM   17  C   UNL     1      -4.316  -1.812 -33.651  1.00  0.00     0.003 A 
HETATM   18  C   UNL     1      -4.756  -2.857 -34.458  1.00  0.00     0.000 A 
HETATM   19  C   UNL     1      -6.105  -2.953 -34.795  1.00  0.00     0.003 A 
HETATM   20  C   UNL     1      -7.017  -1.999 -34.332  1.00  0.00     0.037 A 
ENDBRANCH  14  15
ENDBRANCH  12  14
ENDBRANCH   9  12
ENDBRANCH   6   8
BRANCH   7  21
HETATM   21  C   UNL     1     -12.809   3.381 -33.745  1.00  0.00    -0.020 A 
HETATM   22  C   UNL     1     -12.591   4.159 -32.600  1.00  0.00     0.014 A 
HETATM   23  C   UNL     1     -12.348   5.530 -32.714  1.00  0.00     0.020 A 
HETATM   24  C   UNL     1     -12.318   6.123 -33.975  1.00  0.00     0.011 A 
HETATM   25 BR   UNL     1     -11.981   7.976 -34.131  1.00  0.00    -0.051 Br
HETATM   26  C   UNL     1     -12.530   5.359 -35.121  1.00  0.00     0.020 A 
HETATM   27  C   UNL     1     -12.775   3.989 -35.006  1.00  0.00     0.014 A 
ENDBRANCH   7  21
TORSDOF 5
ENDMDL
MODEL 6
REMARK VINA RESULT:      -7.4      3.220      5.758
REMARK  5 active torsions:
REMARK  status: ('A' for Active; 'I' for Inactive)
REMARK    1  A    between atoms: C_6  and  N_7 
REMARK       I    between atoms: N_7  and  C_8 
REMARK    2  A    between atoms: C_8  and  C_9 
REMARK    3  A    between atoms: C_9  and  O_10 
REMARK    4  A    between atoms: O_10  and  C_11 
REMARK    5  A    between atoms: C_19  and  C_20 
ROOT
HETATM    1  C   UNL     1     -11.552   1.319 -34.059  1.00  0.00     0.073 C 
HETATM    2  C   UNL     1     -10.469   2.246 -33.642  1.00  0.00     0.065 A 
HETATM    3  N   UNL     1     -10.772   3.485 -33.236  1.00  0.00    -0.177 NA
HETATM    4  N   UNL     1      -9.581   4.020 -32.920  1.00  0.00    -0.262 N 
HETATM    5  H   UNL     1      -9.535   4.975 -32.573  1.00  0.00     0.191 HD
HETATM    6  C   UNL     1      -8.519   3.178 -33.129  1.00  0.00     0.137 A 
HETATM    7  C   UNL     1      -9.067   1.999 -33.592  1.00  0.00     0.046 A 
ENDROOT
BRANCH   6   8
HETATM    8  N   UNL     1      -7.201   3.534 -32.902  1.00  0.00    -0.309 N 
HETATM    9  C   UNL     1      -6.767   4.020 -31.680  1.00  0.00     0.252 C 
HETATM   10  O   UNL     1      -7.491   4.184 -30.698  1.00  0.00    -0.270 OA
HETATM   11  H   UNL     1      -6.545   3.486 -33.675  1.00  0.00     0.170 HD
BRANCH   9  12
HETATM   12  C   UNL     1      -5.256   4.290 -31.622  1.00  0.00     0.217 C 
HETATM   13  C   UNL     1      -5.021   5.686 -31.051  1.00  0.00     0.050 C 
BRANCH  12  14
HETATM   14  O   UNL     1      -4.581   3.369 -30.765  1.00  0.00    -0.337 OA
BRANCH  14  15
HETATM   15  C   UNL     1      -4.587   2.050 -31.131  1.00  0.00     0.070 A 
HETATM   16  C   UNL     1      -3.721   1.731 -32.180  1.00  0.00     0.037 A 
HETATM   17  C   UNL     1      -3.632   0.421 -32.654  1.00  0.00     0.003 A 
HETATM   18  C   UNL     1      -4.400  -0.582 -32.071  1.00  0.00     0.000 A 
HETATM   19  C   UNL     1      -5.254  -0.274 -31.012  1.00  0.00     0.003 A 
HETATM   20  C   UNL     1      -5.346   1.038 -30.540  1.00  0.00     0.037 A 
ENDBRANCH  14  15
ENDBRANCH  12  14
ENDBRANCH   9  12
ENDBRANCH   6   8
BRANCH   7  21
HETATM   21  C   UNL     1      -8.317   0.800 -33.913  1.00  0.00    -0.020 A 
HETATM   22  C   UNL     1      -7.439   0.785 -35.005  1.00  0.00     0.014 A 
HETATM   23  C   UNL     1      -6.700  -0.363 -35.302  1.00  0.00     0.020 A 
HETATM   24  C   UNL     1      -6.837  -1.497 -34.503  1.00  0.00     0.011 A 
HETATM   25 BR   UNL     1      -5.833  -3.048 -34.898  1.00  0.00    -0.051 Br
HETATM   26  C   UNL     1      -7.705  -1.493 -33.412  1.00  0.00     0.020 A 
HETATM   27  C   UNL     1      -8.444  -0.345 -33.118  1.00  0.00     0.014 A 
ENDBRANCH   7  21
TORSDOF 5
ENDMDL
MODEL 7
REMARK VINA RESULT:      -7.3      3.074      4.146
REMARK  5 active torsions:
REMARK  status: ('A' for Active; 'I' for Inactive)
REMARK    1  A    between atoms: C_6  and  N_7 
REMARK       I    between atoms: N_7  and  C_8 
REMARK    2  A    between atoms: C_8  and  C_9 
REMARK    3  A    between atoms: C_9  and  O_10 
REMARK    4  A    between atoms: O_10  and  C_11 
REMARK    5  A    between atoms: C_19  and  C_20 
ROOT
HETATM    1  C   UNL     1      -7.608   6.426 -29.298  1.00  0.00     0.073 C 
HETATM    2  C   UNL     1      -8.661   5.558 -29.880  1.00  0.00     0.065 A 
HETATM    3  N   UNL     1      -9.941   5.950 -29.849  1.00  0.00    -0.177 NA
HETATM    4  N   UNL     1     -10.598   4.957 -30.471  1.00  0.00    -0.262 N 
HETATM    5  H   UNL     1     -11.606   5.015 -30.585  1.00  0.00     0.191 HD
HETATM    6  C   UNL     1      -9.790   3.927 -30.882  1.00  0.00     0.137 A 
HETATM    7  C   UNL     1      -8.509   4.294 -30.521  1.00  0.00     0.046 A 
ENDROOT
BRANCH   6   8
HETATM    8  N   UNL     1     -10.260   2.788 -31.513  1.00  0.00    -0.309 N 
HETATM    9  C   UNL     1     -10.498   2.745 -32.876  1.00  0.00     0.252 C 
HETATM   10  O   UNL     1     -10.325   3.691 -33.645  1.00  0.00    -0.270 OA
HETATM   11  H   UNL     1     -10.486   1.977 -30.946  1.00  0.00     0.170 HD
BRANCH   9  12
HETATM   12  C   UNL     1     -10.951   1.366 -33.381  1.00  0.00     0.217 C 
HETATM   13  C   UNL     1     -12.368   1.481 -33.939  1.00  0.00     0.050 C 
BRANCH  12  14
HETATM   14  O   UNL     1     -10.123   0.887 -34.441  1.00  0.00    -0.337 OA
BRANCH  14  15
HETATM   15  C   UNL     1      -8.883   0.415 -34.105  1.00  0.00     0.070 A 
HETATM   16  C   UNL     1      -7.984   0.327 -35.172  1.00  0.00     0.037 A 
HETATM   17  C   UNL     1      -6.685  -0.143 -34.969  1.00  0.00     0.003 A 
HETATM   18  C   UNL     1      -6.273  -0.514 -33.693  1.00  0.00     0.000 A 
HETATM   19  C   UNL     1      -7.159  -0.413 -32.621  1.00  0.00     0.003 A 
HETATM   20  C   UNL     1      -8.461   0.054 -32.825  1.00  0.00     0.037 A 
ENDBRANCH  14  15
ENDBRANCH  12  14
ENDBRANCH   9  12
ENDBRANCH   6   8
BRANCH   7  21
HETATM   21  C   UNL     1      -7.312   3.522 -30.791  1.00  0.00    -0.020 A 
HETATM   22  C   UNL     1      -6.627   3.679 -32.004  1.00  0.00     0.014 A 
HETATM   23  C   UNL     1      -5.462   2.950 -32.255  1.00  0.00     0.020 A 
HETATM   24  C   UNL     1      -4.978   2.068 -31.291  1.00  0.00     0.011 A 
HETATM   25 BR   UNL     1      -3.396   1.089 -31.626  1.00  0.00    -0.051 Br
HETATM   26  C   UNL     1      -5.648   1.907 -30.079  1.00  0.00     0.020 A 
HETATM   27  C   UNL     1      -6.815   2.633 -29.830  1.00  0.00     0.014 A 
ENDBRANCH   7  21
TORSDOF 5
ENDMDL
MODEL 8
REMARK VINA RESULT:      -7.3      6.230     10.316
REMARK  5 active torsions:
REMARK  status: ('A' for Active; 'I' for Inactive)
REMARK    1  A    between atoms: C_6  and  N_7 
REMARK       I    between atoms: N_7  and  C_8 
REMARK    2  A    between atoms: C_8  and  C_9 
REMARK    3  A    between atoms: C_9  and  O_10 
REMARK    4  A    between atoms: O_10  and  C_11 
REMARK    5  A    between atoms: C_19  and  C_20 
ROOT
HETATM    1  C   UNL     1      -3.711   5.273 -35.273  1.00  0.00     0.073 C 
HETATM    2  C   UNL     1      -2.966   5.899 -34.152  1.00  0.00     0.065 A 
HETATM    3  N   UNL     1      -2.235   7.000 -34.370  1.00  0.00    -0.177 NA
HETATM    4  N   UNL     1      -1.733   7.296 -33.159  1.00  0.00    -0.262 N 
HETATM    5  H   UNL     1      -1.132   8.110 -33.050  1.00  0.00     0.191 HD
HETATM    6  C   UNL     1      -2.095   6.414 -32.174  1.00  0.00     0.137 A 
HETATM    7  C   UNL     1      -2.916   5.489 -32.788  1.00  0.00     0.046 A 
ENDROOT
BRANCH   6   8
HETATM    8  N   UNL     1      -1.666   6.510 -30.862  1.00  0.00    -0.309 N 
HETATM    9  C   UNL     1      -0.343   6.753 -30.534  1.00  0.00     0.252 C 
HETATM   10  O   UNL     1       0.564   6.901 -31.354  1.00  0.00    -0.270 OA
HETATM   11  H   UNL     1      -2.336   6.344 -30.118  1.00  0.00     0.170 HD
BRANCH   9  12
HETATM   12  C   UNL     1      -0.094   6.889 -29.024  1.00  0.00     0.217 C 
HETATM   13  C   UNL     1       0.590   5.622 -28.516  1.00  0.00     0.050 C 
BRANCH  12  14
HETATM   14  O   UNL     1       0.773   7.982 -28.721  1.00  0.00    -0.337 OA
BRANCH  14  15
HETATM   15  C   UNL     1       0.719   8.495 -27.454  1.00  0.00     0.070 A 
HETATM   16  C   UNL     1       1.957   8.604 -26.815  1.00  0.00     0.037 A 
HETATM   17  C   UNL     1       2.044   9.109 -25.516  1.00  0.00     0.003 A 
HETATM   18  C   UNL     1       0.892   9.520 -24.852  1.00  0.00     0.000 A 
HETATM   19  C   UNL     1      -0.345   9.430 -25.490  1.00  0.00     0.003 A 
HETATM   20  C   UNL     1      -0.432   8.921 -26.789  1.00  0.00     0.037 A 
ENDBRANCH  14  15
ENDBRANCH  12  14
ENDBRANCH   9  12
ENDBRANCH   6   8
BRANCH   7  21
HETATM   21  C   UNL     1      -3.571   4.382 -32.121  1.00  0.00    -0.020 A 
HETATM   22  C   UNL     1      -3.096   3.073 -32.288  1.00  0.00     0.014 A 
HETATM   23  C   UNL     1      -3.715   2.008 -31.628  1.00  0.00     0.020 A 
HETATM   24  C   UNL     1      -4.806   2.252 -30.796  1.00  0.00     0.011 A 
HETATM   25 BR   UNL     1      -5.638   0.814 -29.896  1.00  0.00    -0.051 Br
HETATM   26  C   UNL     1      -5.285   3.549 -30.619  1.00  0.00     0.020 A 
HETATM   27  C   UNL     1      -4.667   4.613 -31.282  1.00  0.00     0.014 A 
ENDBRANCH   7  21
TORSDOF 5
ENDMDL
MODEL 9
REMARK VINA RESULT:      -7.3      3.507      5.770
REMARK  5 active torsions:
REMARK  status: ('A' for Active; 'I' for Inactive)
REMARK    1  A    between atoms: C_6  and  N_7 
REMARK       I    between atoms: N_7  and  C_8 
REMARK    2  A    between atoms: C_8  and  C_9 
REMARK    3  A    between atoms: C_9  and  O_10 
REMARK    4  A    between atoms: O_10  and  C_11 
REMARK    5  A    between atoms: C_19  and  C_20 
ROOT
HETATM    1  C   UNL     1      -2.489   3.983 -33.075  1.00  0.00     0.073 C 
HETATM    2  C   UNL     1      -3.713   4.425 -32.361  1.00  0.00     0.065 A 
HETATM    3  N   UNL     1      -3.722   5.599 -31.717  1.00  0.00    -0.177 NA
HETATM    4  N   UNL     1      -4.967   5.684 -31.220  1.00  0.00    -0.262 N 
HETATM    5  H   UNL     1      -5.238   6.502 -30.680  1.00  0.00     0.191 HD
HETATM    6  C   UNL     1      -5.755   4.597 -31.500  1.00  0.00     0.137 A 
HETATM    7  C   UNL     1      -4.967   3.755 -32.259  1.00  0.00     0.046 A 
ENDROOT
BRANCH   6   8
HETATM    8  N   UNL     1      -7.059   4.459 -31.059  1.00  0.00    -0.309 N 
HETATM    9  C   UNL     1      -8.114   5.132 -31.651  1.00  0.00     0.252 C 
HETATM   10  O   UNL     1      -8.002   5.905 -32.604  1.00  0.00    -0.270 OA
HETATM   11  H   UNL     1      -7.237   3.886 -30.240  1.00  0.00     0.170 HD
BRANCH   9  12
HETATM   12  C   UNL     1      -9.485   4.785 -31.051  1.00  0.00     0.217 C 
HETATM   13  C   UNL     1     -10.217   6.079 -30.701  1.00  0.00     0.050 C 
BRANCH  12  14
HETATM   14  O   UNL     1     -10.309   4.076 -31.976  1.00  0.00    -0.337 OA
BRANCH  14  15
HETATM   15  C   UNL     1     -10.050   2.745 -32.157  1.00  0.00     0.070 A 
HETATM   16  C   UNL     1     -10.698   2.168 -33.252  1.00  0.00     0.037 A 
HETATM   17  C   UNL     1     -10.523   0.815 -33.549  1.00  0.00     0.003 A 
HETATM   18  C   UNL     1      -9.687   0.033 -32.758  1.00  0.00     0.000 A 
HETATM   19  C   UNL     1      -9.024   0.606 -31.673  1.00  0.00     0.003 A 
HETATM   20  C   UNL     1      -9.201   1.960 -31.374  1.00  0.00     0.037 A 
ENDBRANCH  14  15
ENDBRANCH  12  14
ENDBRANCH   9  12
ENDBRANCH   6   8
BRANCH   7  21
HETATM   21  C   UNL     1      -5.397   2.489 -32.820  1.00  0.00    -0.020 A 
HETATM   22  C   UNL     1      -6.242   2.460 -33.938  1.00  0.00     0.014 A 
HETATM   23  C   UNL     1      -6.640   1.240 -34.492  1.00  0.00     0.020 A 
HETATM   24  C   UNL     1      -6.187   0.048 -33.930  1.00  0.00     0.011 A 
HETATM   25 BR   UNL     1      -6.717  -1.603 -34.683  1.00  0.00    -0.051 Br
HETATM   26  C   UNL     1      -5.343   0.064 -32.820  1.00  0.00     0.020 A 
HETATM   27  C   UNL     1      -4.949   1.284 -32.267  1.00  0.00     0.014 A 
ENDBRANCH   7  21
TORSDOF 5
ENDMDL
MODEL 10
REMARK VINA RESULT:      -7.3      1.756      2.158
REMARK  5 active torsions:
REMARK  status: ('A' for Active; 'I' for Inactive)
REMARK    1  A    between atoms: C_6  and  N_7 
REMARK       I    between atoms: N_7  and  C_8 
REMARK    2  A    between atoms: C_8  and  C_9 
REMARK    3  A    between atoms: C_9  and  O_10 
REMARK    4  A    between atoms: O_10  and  C_11 
REMARK    5  A    between atoms: C_19  and  C_20 
ROOT
HETATM    1  C   UNL     1      -7.969   6.449 -30.693  1.00  0.00     0.073 C 
HETATM    2  C   UNL     1      -8.305   5.072 -31.133  1.00  0.00     0.065 A 
HETATM    3  N   UNL     1      -9.474   4.525 -30.776  1.00  0.00    -0.177 NA
HETATM    4  N   UNL     1      -9.453   3.313 -31.357  1.00  0.00    -0.262 N 
HETATM    5  H   UNL     1     -10.245   2.686 -31.239  1.00  0.00     0.191 HD
HETATM    6  C   UNL     1      -8.304   3.050 -32.056  1.00  0.00     0.137 A 
HETATM    7  C   UNL     1      -7.532   4.189 -31.941  1.00  0.00     0.046 A 
ENDROOT
BRANCH   6   8
HETATM    8  N   UNL     1      -8.056   1.853 -32.704  1.00  0.00    -0.309 N 
HETATM    9  C   UNL     1      -8.751   1.470 -33.838  1.00  0.00     0.252 C 
HETATM   10  O   UNL     1      -9.639   2.136 -34.371  1.00  0.00    -0.270 OA
HETATM   11  H   UNL     1      -7.379   1.213 -32.300  1.00  0.00     0.170 HD
BRANCH   9  12
HETATM   12  C   UNL     1      -8.273   0.138 -34.437  1.00  0.00     0.217 C 
HETATM   13  C   UNL     1      -7.156   0.415 -35.440  1.00  0.00     0.050 C 
BRANCH  12  14
HETATM   14  O   UNL     1      -7.735  -0.733 -33.442  1.00  0.00    -0.337 OA
BRANCH  14  15
HETATM   15  C   UNL     1      -6.720  -1.569 -33.821  1.00  0.00     0.070 A 
HETATM   16  C   UNL     1      -5.467  -1.241 -33.296  1.00  0.00     0.037 A 
HETATM   17  C   UNL     1      -4.344  -2.010 -33.606  1.00  0.00     0.003 A 
HETATM   18  C   UNL     1      -4.471  -3.122 -34.434  1.00  0.00     0.000 A 
HETATM   19  C   UNL     1      -5.721  -3.465 -34.947  1.00  0.00     0.003 A 
HETATM   20  C   UNL     1      -6.845  -2.693 -34.640  1.00  0.00     0.037 A 
ENDBRANCH  14  15
ENDBRANCH  12  14
ENDBRANCH   9  12
ENDBRANCH   6   8
BRANCH   7  21
HETATM   21  C   UNL     1      -6.234   4.384 -32.558  1.00  0.00    -0.020 A 
HETATM   22  C   UNL     1      -6.140   4.754 -33.907  1.00  0.00     0.014 A 
HETATM   23  C   UNL     1      -4.890   4.963 -34.496  1.00  0.00     0.020 A 
HETATM   24  C   UNL     1      -3.733   4.806 -33.734  1.00  0.00     0.011 A 
HETATM   25 BR   UNL     1      -2.043   5.096 -34.527  1.00  0.00    -0.051 Br
HETATM   26  C   UNL     1      -3.815   4.441 -32.391  1.00  0.00     0.020 A 
HETATM   27  C   UNL     1      -5.065   4.230 -31.804  1.00  0.00     0.014 A 
ENDBRANCH   7  21
TORSDOF 5
ENDMDL
