MODEL 1
REMARK VINA RESULT:      -9.0      0.000      0.000
REMARK  6 active torsions:
REMARK  status: ('A' for Active; 'I' for Inactive)
REMARK    1  A    between atoms: O_2  and  C_3 
REMARK    2  A    between atoms: C_6  and  C_7 
REMARK       I    between atoms: C_7  and  N_8 
REMARK    3  A    between atoms: N_8  and  C_9 
REMARK    4  A    between atoms: C_11  and  C_12 
REMARK    5  A    between atoms: C_12  and  C_13 
REMARK    6  A    between atoms: C_13  and  C_14 
ROOT
HETATM    1  C   UNL     1     -10.906   1.563 -33.263  1.00  0.00     0.725 A 
HETATM    2  N   UNL     1      -9.929   1.905 -34.062  1.00  0.00    -0.046 NA
HETATM    3  C   UNL     1      -9.031   0.878 -33.958  1.00  0.00     0.166 A 
HETATM    4  N   UNL     1      -9.408  -0.107 -33.132  1.00  0.00    -0.144 NA
HETATM    5  N   UNL     1     -10.599   0.350 -32.708  1.00  0.00    -0.106 N 
HETATM    6  H   UNL     1     -11.134  -0.205 -32.052  1.00  0.00     0.208 HD
ENDROOT
BRANCH   1   7
HETATM    7  N   UNL     1     -12.080   2.227 -32.994  1.00  0.00    -0.152 N 
HETATM    8  C   UNL     1     -13.302   1.594 -33.119  1.00  0.00     0.270 C 
HETATM    9  O   UNL     1     -13.524   0.480 -33.577  1.00  0.00    -0.267 OA
HETATM   10  H   UNL     1     -12.051   3.207 -32.759  1.00  0.00     0.187 HD
BRANCH   8  11
HETATM   11  C   UNL     1     -14.469   2.410 -32.688  1.00  0.00     0.033 A 
HETATM   12  C   UNL     1     -14.257   3.750 -32.343  1.00  0.00     0.020 A 
HETATM   13  C   UNL     1     -15.331   4.558 -31.957  1.00  0.00     0.038 A 
HETATM   14  C   UNL     1     -16.624   4.035 -31.927  1.00  0.00     0.068 A 
HETATM   15  C   UNL     1     -16.833   2.699 -32.280  1.00  0.00     0.038 A 
HETATM   16  C   UNL     1     -15.765   1.885 -32.665  1.00  0.00     0.020 A 
BRANCH  14  17
HETATM   17  O   UNL     1     -17.758   4.717 -31.581  1.00  0.00    -0.356 OA
HETATM   18  C   UNL     1     -18.885   4.561 -32.434  1.00  0.00     0.210 C 
ENDBRANCH  14  17
ENDBRANCH   8  11
ENDBRANCH   1   7
BRANCH   3  19
HETATM   19  C   UNL     1      -7.782   0.851 -34.757  1.00  0.00     0.087 C 
BRANCH  19  20
HETATM   20  C   UNL     1      -7.440  -0.559 -35.246  1.00  0.00     0.048 C 
BRANCH  20  21
HETATM   21  C   UNL     1      -6.211  -1.103 -34.585  1.00  0.00    -0.030 A 
HETATM   22  C   UNL     1      -5.804  -2.476 -34.564  1.00  0.00    -0.002 A 
HETATM   23  C   UNL     1      -4.613  -2.550 -33.843  1.00  0.00     0.042 A 
HETATM   24  C   UNL     1      -6.346  -3.665 -35.095  1.00  0.00     0.014 A 
HETATM   25  C   UNL     1      -3.935  -3.755 -33.622  1.00  0.00     0.030 A 
HETATM   26  N   UNL     1      -4.303  -1.269 -33.447  1.00  0.00    -0.365 N 
HETATM   27  C   UNL     1      -4.495  -4.920 -34.156  1.00  0.00     0.002 A 
HETATM   28  C   UNL     1      -5.682  -4.880 -34.882  1.00  0.00     0.001 A 
HETATM   29  H   UNL     1      -3.485  -1.021 -32.909  1.00  0.00     0.165 HD
HETATM   30  C   UNL     1      -5.259  -0.391 -33.885  1.00  0.00     0.096 A 
ENDBRANCH  20  21
ENDBRANCH  19  20
ENDBRANCH   3  19
TORSDOF 6
ENDMDL
MODEL 2
REMARK VINA RESULT:      -8.8      8.562     11.872
REMARK  6 active torsions:
REMARK  status: ('A' for Active; 'I' for Inactive)
REMARK    1  A    between atoms: O_2  and  C_3 
REMARK    2  A    between atoms: C_6  and  C_7 
REMARK       I    between atoms: C_7  and  N_8 
REMARK    3  A    between atoms: N_8  and  C_9 
REMARK    4  A    between atoms: C_11  and  C_12 
REMARK    5  A    between atoms: C_12  and  C_13 
REMARK    6  A    between atoms: C_13  and  C_14 
ROOT
HETATM    1  C   UNL     1      -2.085   4.971 -31.249  1.00  0.00     0.725 A 
HETATM    2  N   UNL     1      -3.149   4.210 -31.233  1.00  0.00    -0.046 NA
HETATM    3  C   UNL     1      -3.232   3.716 -32.506  1.00  0.00     0.166 A 
HETATM    4  N   UNL     1      -2.255   4.126 -33.326  1.00  0.00    -0.144 NA
HETATM    5  N   UNL     1      -1.541   4.916 -32.504  1.00  0.00    -0.106 N 
HETATM    6  H   UNL     1      -0.716   5.379 -32.862  1.00  0.00     0.208 HD
ENDROOT
BRANCH   1   7
HETATM    7  N   UNL     1      -1.527   5.704 -30.229  1.00  0.00    -0.152 N 
HETATM    8  C   UNL     1      -0.242   5.446 -29.786  1.00  0.00     0.270 C 
HETATM    9  O   UNL     1       0.488   4.519 -30.112  1.00  0.00    -0.267 OA
HETATM   10  H   UNL     1      -2.083   6.399 -29.757  1.00  0.00     0.187 HD
BRANCH   8  11
HETATM   11  C   UNL     1       0.258   6.392 -28.753  1.00  0.00     0.033 A 
HETATM   12  C   UNL     1       0.858   7.585 -29.174  1.00  0.00     0.020 A 
HETATM   13  C   UNL     1       1.319   8.513 -28.235  1.00  0.00     0.038 A 
HETATM   14  C   UNL     1       1.170   8.260 -26.872  1.00  0.00     0.068 A 
HETATM   15  C   UNL     1       0.564   7.071 -26.455  1.00  0.00     0.038 A 
HETATM   16  C   UNL     1       0.102   6.138 -27.387  1.00  0.00     0.020 A 
BRANCH  14  17
HETATM   17  O   UNL     1       1.565   9.085 -25.854  1.00  0.00    -0.356 OA
HETATM   18  C   UNL     1       2.398   8.514 -24.853  1.00  0.00     0.210 C 
ENDBRANCH  14  17
ENDBRANCH   8  11
ENDBRANCH   1   7
BRANCH   3  19
HETATM   19  C   UNL     1      -4.289   2.754 -32.901  1.00  0.00     0.087 C 
BRANCH  19  20
HETATM   20  C   UNL     1      -4.619   1.765 -31.780  1.00  0.00     0.048 C 
BRANCH  20  21
HETATM   21  C   UNL     1      -4.211   0.366 -32.123  1.00  0.00    -0.030 A 
HETATM   22  C   UNL     1      -4.849  -0.487 -33.080  1.00  0.00    -0.002 A 
HETATM   23  C   UNL     1      -4.159  -1.699 -33.087  1.00  0.00     0.042 A 
HETATM   24  C   UNL     1      -5.957  -0.336 -33.939  1.00  0.00     0.014 A 
HETATM   25  C   UNL     1      -4.522  -2.771 -33.911  1.00  0.00     0.030 A 
HETATM   26  N   UNL     1      -3.134  -1.584 -32.177  1.00  0.00    -0.365 N 
HETATM   27  C   UNL     1      -5.626  -2.597 -34.752  1.00  0.00     0.002 A 
HETATM   28  C   UNL     1      -6.335  -1.399 -34.769  1.00  0.00     0.001 A 
HETATM   29  H   UNL     1      -2.465  -2.313 -31.976  1.00  0.00     0.165 HD
HETATM   30  C   UNL     1      -3.157  -0.347 -31.588  1.00  0.00     0.096 A 
ENDBRANCH  20  21
ENDBRANCH  19  20
ENDBRANCH   3  19
TORSDOF 6
ENDMDL
MODEL 3
REMARK VINA RESULT:      -8.7      6.947     10.263
REMARK  6 active torsions:
REMARK  status: ('A' for Active; 'I' for Inactive)
REMARK    1  A    between atoms: O_2  and  C_3 
REMARK    2  A    between atoms: C_6  and  C_7 
REMARK       I    between atoms: C_7  and  N_8 
REMARK    3  A    between atoms: N_8  and  C_9 
REMARK    4  A    between atoms: C_11  and  C_12 
REMARK    5  A    between atoms: C_12  and  C_13 
REMARK    6  A    between atoms: C_13  and  C_14 
ROOT
HETATM    1  C   UNL     1      -4.435   3.684 -31.736  1.00  0.00     0.725 A 
HETATM    2  N   UNL     1      -5.011   2.545 -31.451  1.00  0.00    -0.046 NA
HETATM    3  C   UNL     1      -5.840   2.310 -32.514  1.00  0.00     0.166 A 
HETATM    4  N   UNL     1      -5.802   3.251 -33.467  1.00  0.00    -0.144 NA
HETATM    5  N   UNL     1      -4.902   4.107 -32.951  1.00  0.00    -0.106 N 
HETATM    6  H   UNL     1      -4.664   4.942 -33.470  1.00  0.00     0.208 HD
ENDROOT
BRANCH   1   7
HETATM    7  N   UNL     1      -3.496   4.385 -31.016  1.00  0.00    -0.152 N 
HETATM    8  C   UNL     1      -2.249   4.658 -31.548  1.00  0.00     0.270 C 
HETATM    9  O   UNL     1      -1.776   4.242 -32.597  1.00  0.00    -0.267 OA
HETATM   10  H   UNL     1      -3.699   4.652 -30.066  1.00  0.00     0.187 HD
BRANCH   8  11
HETATM   11  C   UNL     1      -1.386   5.517 -30.692  1.00  0.00     0.033 A 
HETATM   12  C   UNL     1      -0.100   5.065 -30.373  1.00  0.00     0.020 A 
HETATM   13  C   UNL     1       0.752   5.852 -29.593  1.00  0.00     0.038 A 
HETATM   14  C   UNL     1       0.329   7.101 -29.140  1.00  0.00     0.068 A 
HETATM   15  C   UNL     1      -0.953   7.553 -29.467  1.00  0.00     0.038 A 
HETATM   16  C   UNL     1      -1.811   6.771 -30.245  1.00  0.00     0.020 A 
BRANCH  14  17
HETATM   17  O   UNL     1       1.063   7.971 -28.382  1.00  0.00    -0.356 OA
HETATM   18  C   UNL     1       1.303   7.600 -27.030  1.00  0.00     0.210 C 
ENDBRANCH  14  17
ENDBRANCH   8  11
ENDBRANCH   1   7
BRANCH   3  19
HETATM   19  C   UNL     1      -6.653   1.073 -32.610  1.00  0.00     0.087 C 
BRANCH  19  20
HETATM   20  C   UNL     1      -6.452   0.353 -33.946  1.00  0.00     0.048 C 
BRANCH  20  21
HETATM   21  C   UNL     1      -5.474  -0.776 -33.836  1.00  0.00    -0.030 A 
HETATM   22  C   UNL     1      -5.712  -2.137 -34.216  1.00  0.00    -0.002 A 
HETATM   23  C   UNL     1      -4.549  -2.857 -33.946  1.00  0.00     0.042 A 
HETATM   24  C   UNL     1      -6.818  -2.820 -34.763  1.00  0.00     0.014 A 
HETATM   25  C   UNL     1      -4.436  -4.231 -34.194  1.00  0.00     0.030 A 
HETATM   26  N   UNL     1      -3.635  -1.968 -33.431  1.00  0.00    -0.365 N 
HETATM   27  C   UNL     1      -5.546  -4.886 -34.734  1.00  0.00     0.002 A 
HETATM   28  C   UNL     1      -6.722  -4.194 -35.016  1.00  0.00     0.001 A 
HETATM   29  H   UNL     1      -2.697  -2.213 -33.149  1.00  0.00     0.165 HD
HETATM   30  C   UNL     1      -4.181  -0.713 -33.358  1.00  0.00     0.096 A 
ENDBRANCH  20  21
ENDBRANCH  19  20
ENDBRANCH   3  19
TORSDOF 6
ENDMDL
MODEL 4
REMARK VINA RESULT:      -8.6      8.490     11.745
REMARK  6 active torsions:
REMARK  status: ('A' for Active; 'I' for Inactive)
REMARK    1  A    between atoms: O_2  and  C_3 
REMARK    2  A    between atoms: C_6  and  C_7 
REMARK       I    between atoms: C_7  and  N_8 
REMARK    3  A    between atoms: N_8  and  C_9 
REMARK    4  A    between atoms: C_11  and  C_12 
REMARK    5  A    between atoms: C_12  and  C_13 
REMARK    6  A    between atoms: C_13  and  C_14 
ROOT
HETATM    1  C   UNL     1      -2.198   4.940 -31.297  1.00  0.00     0.725 A 
HETATM    2  N   UNL     1      -3.317   4.265 -31.339  1.00  0.00    -0.046 NA
HETATM    3  C   UNL     1      -3.362   3.762 -32.611  1.00  0.00     0.166 A 
HETATM    4  N   UNL     1      -2.308   4.085 -33.373  1.00  0.00    -0.144 NA
HETATM    5  N   UNL     1      -1.585   4.828 -32.516  1.00  0.00    -0.106 N 
HETATM    6  H   UNL     1      -0.706   5.220 -32.826  1.00  0.00     0.208 HD
ENDROOT
BRANCH   1   7
HETATM    7  N   UNL     1      -1.646   5.640 -30.250  1.00  0.00    -0.152 N 
HETATM    8  C   UNL     1      -0.300   5.534 -29.952  1.00  0.00     0.270 C 
HETATM    9  O   UNL     1       0.516   4.765 -30.445  1.00  0.00    -0.267 OA
HETATM   10  H   UNL     1      -2.243   6.193 -29.655  1.00  0.00     0.187 HD
BRANCH   8  11
HETATM   11  C   UNL     1       0.167   6.434 -28.864  1.00  0.00     0.033 A 
HETATM   12  C   UNL     1      -0.096   6.071 -27.537  1.00  0.00     0.020 A 
HETATM   13  C   UNL     1       0.347   6.876 -26.484  1.00  0.00     0.038 A 
HETATM   14  C   UNL     1       1.067   8.041 -26.750  1.00  0.00     0.068 A 
HETATM   15  C   UNL     1       1.335   8.396 -28.075  1.00  0.00     0.038 A 
HETATM   16  C   UNL     1       0.894   7.597 -29.133  1.00  0.00     0.020 A 
BRANCH  14  17
HETATM   17  O   UNL     1       1.566   8.907 -25.816  1.00  0.00    -0.356 OA
HETATM   18  C   UNL     1       0.786  10.063 -25.533  1.00  0.00     0.210 C 
ENDBRANCH  14  17
ENDBRANCH   8  11
ENDBRANCH   1   7
BRANCH   3  19
HETATM   19  C   UNL     1      -4.466   2.881 -33.062  1.00  0.00     0.087 C 
BRANCH  19  20
HETATM   20  C   UNL     1      -4.602   1.632 -32.187  1.00  0.00     0.048 C 
BRANCH  20  21
HETATM   21  C   UNL     1      -5.673   0.710 -32.682  1.00  0.00    -0.030 A 
HETATM   22  C   UNL     1      -5.467  -0.550 -33.330  1.00  0.00    -0.002 A 
HETATM   23  C   UNL     1      -6.722  -1.079 -33.629  1.00  0.00     0.042 A 
HETATM   24  C   UNL     1      -4.321  -1.288 -33.693  1.00  0.00     0.014 A 
HETATM   25  C   UNL     1      -6.890  -2.309 -34.276  1.00  0.00     0.030 A 
HETATM   26  N   UNL     1      -7.657  -0.179 -33.172  1.00  0.00    -0.365 N 
HETATM   27  C   UNL     1      -5.738  -3.020 -34.627  1.00  0.00     0.002 A 
HETATM   28  C   UNL     1      -4.470  -2.520 -34.341  1.00  0.00     0.001 A 
HETATM   29  H   UNL     1      -8.655  -0.305 -33.249  1.00  0.00     0.165 HD
HETATM   30  C   UNL     1      -7.038   0.902 -32.602  1.00  0.00     0.096 A 
ENDBRANCH  20  21
ENDBRANCH  19  20
ENDBRANCH   3  19
TORSDOF 6
ENDMDL
MODEL 5
REMARK VINA RESULT:      -8.0      6.200      9.799
REMARK  6 active torsions:
REMARK  status: ('A' for Active; 'I' for Inactive)
REMARK    1  A    between atoms: O_2  and  C_3 
REMARK    2  A    between atoms: C_6  and  C_7 
REMARK       I    between atoms: C_7  and  N_8 
REMARK    3  A    between atoms: N_8  and  C_9 
REMARK    4  A    between atoms: C_11  and  C_12 
REMARK    5  A    between atoms: C_12  and  C_13 
REMARK    6  A    between atoms: C_13  and  C_14 
ROOT
HETATM    1  C   UNL     1      -5.724   2.781 -30.737  1.00  0.00     0.725 A 
HETATM    2  N   UNL     1      -5.048   3.890 -30.890  1.00  0.00    -0.046 NA
HETATM    3  C   UNL     1      -5.582   4.743 -29.963  1.00  0.00     0.166 A 
HETATM    4  N   UNL     1      -6.565   4.213 -29.222  1.00  0.00    -0.144 NA
HETATM    5  N   UNL     1      -6.631   2.969 -29.730  1.00  0.00    -0.106 N 
HETATM    6  H   UNL     1      -7.307   2.319 -29.351  1.00  0.00     0.208 HD
ENDROOT
BRANCH   1   7
HETATM    7  N   UNL     1      -5.591   1.586 -31.404  1.00  0.00    -0.152 N 
HETATM    8  C   UNL     1      -6.601   1.109 -32.220  1.00  0.00     0.270 C 
HETATM    9  O   UNL     1      -7.727   1.568 -32.361  1.00  0.00    -0.267 OA
HETATM   10  H   UNL     1      -4.771   1.021 -31.249  1.00  0.00     0.187 HD
BRANCH   8  11
HETATM   11  C   UNL     1      -6.265  -0.139 -32.955  1.00  0.00     0.033 A 
HETATM   12  C   UNL     1      -7.279  -0.788 -33.670  1.00  0.00     0.020 A 
HETATM   13  C   UNL     1      -7.000  -1.950 -34.395  1.00  0.00     0.038 A 
HETATM   14  C   UNL     1      -5.703  -2.462 -34.422  1.00  0.00     0.068 A 
HETATM   15  C   UNL     1      -4.691  -1.807 -33.713  1.00  0.00     0.038 A 
HETATM   16  C   UNL     1      -4.963  -0.647 -32.985  1.00  0.00     0.020 A 
BRANCH  14  17
HETATM   17  O   UNL     1      -5.295  -3.579 -35.097  1.00  0.00    -0.356 OA
HETATM   18  C   UNL     1      -6.247  -4.626 -35.240  1.00  0.00     0.210 C 
ENDBRANCH  14  17
ENDBRANCH   8  11
ENDBRANCH   1   7
BRANCH   3  19
HETATM   19  C   UNL     1      -5.055   6.116 -29.771  1.00  0.00     0.087 C 
BRANCH  19  20
HETATM   20  C   UNL     1      -5.184   6.967 -31.037  1.00  0.00     0.048 C 
BRANCH  20  21
HETATM   21  C   UNL     1      -3.850   7.337 -31.607  1.00  0.00    -0.030 A 
HETATM   22  C   UNL     1      -3.160   6.644 -32.654  1.00  0.00    -0.002 A 
HETATM   23  C   UNL     1      -1.957   7.313 -32.877  1.00  0.00     0.042 A 
HETATM   24  C   UNL     1      -3.452   5.504 -33.430  1.00  0.00     0.014 A 
HETATM   25  C   UNL     1      -1.027   6.897 -33.837  1.00  0.00     0.030 A 
HETATM   26  N   UNL     1      -1.920   8.376 -32.005  1.00  0.00    -0.365 N 
HETATM   27  C   UNL     1      -1.339   5.762 -34.593  1.00  0.00     0.002 A 
HETATM   28  C   UNL     1      -2.534   5.073 -34.395  1.00  0.00     0.001 A 
HETATM   29  H   UNL     1      -1.162   9.041 -31.948  1.00  0.00     0.165 HD
HETATM   30  C   UNL     1      -3.052   8.400 -31.234  1.00  0.00     0.096 A 
ENDBRANCH  20  21
ENDBRANCH  19  20
ENDBRANCH   3  19
TORSDOF 6
ENDMDL
MODEL 6
REMARK VINA RESULT:      -8.0      6.265      8.676
REMARK  6 active torsions:
REMARK  status: ('A' for Active; 'I' for Inactive)
REMARK    1  A    between atoms: O_2  and  C_3 
REMARK    2  A    between atoms: C_6  and  C_7 
REMARK       I    between atoms: C_7  and  N_8 
REMARK    3  A    between atoms: N_8  and  C_9 
REMARK    4  A    between atoms: C_11  and  C_12 
REMARK    5  A    between atoms: C_12  and  C_13 
REMARK    6  A    between atoms: C_13  and  C_14 
ROOT
HETATM    1  C   UNL     1      -6.361   1.897 -31.843  1.00  0.00     0.725 A 
HETATM    2  N   UNL     1      -6.398   1.219 -32.961  1.00  0.00    -0.046 NA
HETATM    3  C   UNL     1      -7.362   0.271 -32.751  1.00  0.00     0.166 A 
HETATM    4  N   UNL     1      -7.946   0.330 -31.547  1.00  0.00    -0.144 NA
HETATM    5  N   UNL     1      -7.296   1.370 -30.993  1.00  0.00    -0.106 N 
HETATM    6  H   UNL     1      -7.536   1.655 -30.053  1.00  0.00     0.208 HD
ENDROOT
BRANCH   1   7
HETATM    7  N   UNL     1      -5.578   2.976 -31.508  1.00  0.00    -0.152 N 
HETATM    8  C   UNL     1      -4.203   2.931 -31.649  1.00  0.00     0.270 C 
HETATM    9  O   UNL     1      -3.514   1.962 -31.942  1.00  0.00    -0.267 OA
HETATM   10  H   UNL     1      -6.008   3.791 -31.098  1.00  0.00     0.187 HD
BRANCH   8  11
HETATM   11  C   UNL     1      -3.507   4.211 -31.349  1.00  0.00     0.033 A 
HETATM   12  C   UNL     1      -4.254   5.270 -30.819  1.00  0.00     0.020 A 
HETATM   13  C   UNL     1      -3.634   6.481 -30.499  1.00  0.00     0.038 A 
HETATM   14  C   UNL     1      -2.261   6.636 -30.695  1.00  0.00     0.068 A 
HETATM   15  C   UNL     1      -1.517   5.573 -31.217  1.00  0.00     0.038 A 
HETATM   16  C   UNL     1      -2.131   4.361 -31.540  1.00  0.00     0.020 A 
BRANCH  14  17
HETATM   17  O   UNL     1      -1.532   7.759 -30.415  1.00  0.00    -0.356 OA
HETATM   18  C   UNL     1      -0.469   7.617 -29.481  1.00  0.00     0.210 C 
ENDBRANCH  14  17
ENDBRANCH   8  11
ENDBRANCH   1   7
BRANCH   3  19
HETATM   19  C   UNL     1      -7.756  -0.688 -33.811  1.00  0.00     0.087 C 
BRANCH  19  20
HETATM   20  C   UNL     1      -6.640  -0.908 -34.835  1.00  0.00     0.048 C 
BRANCH  20  21
HETATM   21  C   UNL     1      -5.923  -2.205 -34.619  1.00  0.00    -0.030 A 
HETATM   22  C   UNL     1      -4.874  -2.439 -33.672  1.00  0.00    -0.002 A 
HETATM   23  C   UNL     1      -4.485  -3.773 -33.799  1.00  0.00     0.042 A 
HETATM   24  C   UNL     1      -4.218  -1.633 -32.719  1.00  0.00     0.014 A 
HETATM   25  C   UNL     1      -3.470  -4.342 -33.021  1.00  0.00     0.030 A 
HETATM   26  N   UNL     1      -5.273  -4.330 -34.779  1.00  0.00    -0.365 N 
HETATM   27  C   UNL     1      -2.833  -3.521 -32.085  1.00  0.00     0.002 A 
HETATM   28  C   UNL     1      -3.199  -2.186 -31.933  1.00  0.00     0.001 A 
HETATM   29  H   UNL     1      -5.215  -5.292 -35.080  1.00  0.00     0.165 HD
HETATM   30  C   UNL     1      -6.140  -3.396 -35.282  1.00  0.00     0.096 A 
ENDBRANCH  20  21
ENDBRANCH  19  20
ENDBRANCH   3  19
TORSDOF 6
ENDMDL
MODEL 7
REMARK VINA RESULT:      -7.9      6.971     10.688
REMARK  6 active torsions:
REMARK  status: ('A' for Active; 'I' for Inactive)
REMARK    1  A    between atoms: O_2  and  C_3 
REMARK    2  A    between atoms: C_6  and  C_7 
REMARK       I    between atoms: C_7  and  N_8 
REMARK    3  A    between atoms: N_8  and  C_9 
REMARK    4  A    between atoms: C_11  and  C_12 
REMARK    5  A    between atoms: C_12  and  C_13 
REMARK    6  A    between atoms: C_13  and  C_14 
ROOT
HETATM    1  C   UNL     1      -4.868   2.992 -31.501  1.00  0.00     0.725 A 
HETATM    2  N   UNL     1      -4.293   4.097 -31.899  1.00  0.00    -0.046 NA
HETATM    3  C   UNL     1      -4.577   5.002 -30.913  1.00  0.00     0.166 A 
HETATM    4  N   UNL     1      -5.301   4.508 -29.899  1.00  0.00    -0.144 NA
HETATM    5  N   UNL     1      -5.468   3.234 -30.295  1.00  0.00    -0.106 N 
HETATM    6  H   UNL     1      -5.995   2.602 -29.707  1.00  0.00     0.208 HD
ENDROOT
BRANCH   1   7
HETATM    7  N   UNL     1      -4.889   1.758 -32.107  1.00  0.00    -0.152 N 
HETATM    8  C   UNL     1      -6.085   1.148 -32.440  1.00  0.00     0.270 C 
HETATM    9  O   UNL     1      -7.217   1.516 -32.154  1.00  0.00    -0.267 OA
HETATM   10  H   UNL     1      -4.023   1.265 -32.256  1.00  0.00     0.187 HD
BRANCH   8  11
HETATM   11  C   UNL     1      -5.940  -0.131 -33.186  1.00  0.00     0.033 A 
HETATM   12  C   UNL     1      -4.754  -0.860 -33.040  1.00  0.00     0.020 A 
HETATM   13  C   UNL     1      -4.588  -2.080 -33.703  1.00  0.00     0.038 A 
HETATM   14  C   UNL     1      -5.612  -2.583 -34.505  1.00  0.00     0.068 A 
HETATM   15  C   UNL     1      -6.799  -1.856 -34.643  1.00  0.00     0.038 A 
HETATM   16  C   UNL     1      -6.971  -0.636 -33.984  1.00  0.00     0.020 A 
BRANCH  14  17
HETATM   17  O   UNL     1      -5.584  -3.763 -35.197  1.00  0.00    -0.356 OA
HETATM   18  C   UNL     1      -5.142  -4.913 -34.486  1.00  0.00     0.210 C 
ENDBRANCH  14  17
ENDBRANCH   8  11
ENDBRANCH   1   7
BRANCH   3  19
HETATM   19  C   UNL     1      -4.057   6.390 -30.955  1.00  0.00     0.087 C 
BRANCH  19  20
HETATM   20  C   UNL     1      -2.700   6.477 -31.656  1.00  0.00     0.048 C 
BRANCH  20  21
HETATM   21  C   UNL     1      -1.573   6.075 -30.756  1.00  0.00    -0.030 A 
HETATM   22  C   UNL     1      -0.978   6.887 -29.736  1.00  0.00    -0.002 A 
HETATM   23  C   UNL     1       0.035   6.136 -29.140  1.00  0.00     0.042 A 
HETATM   24  C   UNL     1      -1.211   8.197 -29.269  1.00  0.00     0.014 A 
HETATM   25  C   UNL     1       0.830   6.631 -28.100  1.00  0.00     0.030 A 
HETATM   26  N   UNL     1       0.050   4.912 -29.767  1.00  0.00    -0.365 N 
HETATM   27  C   UNL     1       0.582   7.934 -27.657  1.00  0.00     0.002 A 
HETATM   28  C   UNL     1      -0.424   8.708 -28.231  1.00  0.00     0.001 A 
HETATM   29  H   UNL     1       0.683   4.160 -29.535  1.00  0.00     0.165 HD
HETATM   30  C   UNL     1      -0.911   4.864 -30.742  1.00  0.00     0.096 A 
ENDBRANCH  20  21
ENDBRANCH  19  20
ENDBRANCH   3  19
TORSDOF 6
ENDMDL
MODEL 8
REMARK VINA RESULT:      -7.9      7.913     11.642
REMARK  6 active torsions:
REMARK  status: ('A' for Active; 'I' for Inactive)
REMARK    1  A    between atoms: O_2  and  C_3 
REMARK    2  A    between atoms: C_6  and  C_7 
REMARK       I    between atoms: C_7  and  N_8 
REMARK    3  A    between atoms: N_8  and  C_9 
REMARK    4  A    between atoms: C_11  and  C_12 
REMARK    5  A    between atoms: C_12  and  C_13 
REMARK    6  A    between atoms: C_13  and  C_14 
ROOT
HETATM    1  C   UNL     1      -3.475   3.423 -32.432  1.00  0.00     0.725 A 
HETATM    2  N   UNL     1      -2.424   4.091 -32.832  1.00  0.00    -0.046 NA
HETATM    3  C   UNL     1      -2.320   5.125 -31.943  1.00  0.00     0.166 A 
HETATM    4  N   UNL     1      -3.260   5.132 -30.987  1.00  0.00    -0.144 NA
HETATM    5  N   UNL     1      -3.975   4.042 -31.318  1.00  0.00    -0.106 N 
HETATM    6  H   UNL     1      -4.776   3.790 -30.754  1.00  0.00     0.208 HD
ENDROOT
BRANCH   1   7
HETATM    7  N   UNL     1      -4.029   2.280 -32.958  1.00  0.00    -0.152 N 
HETATM    8  C   UNL     1      -3.790   1.044 -32.385  1.00  0.00     0.270 C 
HETATM    9  O   UNL     1      -3.011   0.778 -31.480  1.00  0.00    -0.267 OA
HETATM   10  H   UNL     1      -4.567   2.337 -33.808  1.00  0.00     0.187 HD
BRANCH   8  11
HETATM   11  C   UNL     1      -4.545  -0.080 -33.002  1.00  0.00     0.033 A 
HETATM   12  C   UNL     1      -5.842   0.163 -33.471  1.00  0.00     0.020 A 
HETATM   13  C   UNL     1      -6.576  -0.860 -34.079  1.00  0.00     0.038 A 
HETATM   14  C   UNL     1      -6.012  -2.127 -34.235  1.00  0.00     0.068 A 
HETATM   15  C   UNL     1      -4.714  -2.363 -33.772  1.00  0.00     0.038 A 
HETATM   16  C   UNL     1      -3.976  -1.347 -33.162  1.00  0.00     0.020 A 
BRANCH  14  17
HETATM   17  O   UNL     1      -6.615  -3.207 -34.820  1.00  0.00    -0.356 OA
HETATM   18  C   UNL     1      -5.830  -4.386 -34.950  1.00  0.00     0.210 C 
ENDBRANCH  14  17
ENDBRANCH   8  11
ENDBRANCH   1   7
BRANCH   3  19
HETATM   19  C   UNL     1      -1.210   6.106 -32.014  1.00  0.00     0.087 C 
BRANCH  19  20
HETATM   20  C   UNL     1      -1.259   7.116 -30.864  1.00  0.00     0.048 C 
BRANCH  20  21
HETATM   21  C   UNL     1      -0.390   6.706 -29.716  1.00  0.00    -0.030 A 
HETATM   22  C   UNL     1       0.001   7.537 -28.616  1.00  0.00    -0.002 A 
HETATM   23  C   UNL     1       0.809   6.771 -27.778  1.00  0.00     0.042 A 
HETATM   24  C   UNL     1      -0.261   8.877 -28.261  1.00  0.00     0.014 A 
HETATM   25  C   UNL     1       1.373   7.278 -26.601  1.00  0.00     0.030 A 
HETATM   26  N   UNL     1       0.900   5.519 -28.340  1.00  0.00    -0.365 N 
HETATM   27  C   UNL     1       1.101   8.609 -26.273  1.00  0.00     0.002 A 
HETATM   28  C   UNL     1       0.296   9.400 -27.088  1.00  0.00     0.001 A 
HETATM   29  H   UNL     1       1.422   4.751 -27.943  1.00  0.00     0.165 HD
HETATM   30  C   UNL     1       0.185   5.469 -29.508  1.00  0.00     0.096 A 
ENDBRANCH  20  21
ENDBRANCH  19  20
ENDBRANCH   3  19
TORSDOF 6
ENDMDL
MODEL 9
REMARK VINA RESULT:      -7.9      3.254      9.589
REMARK  6 active torsions:
REMARK  status: ('A' for Active; 'I' for Inactive)
REMARK    1  A    between atoms: O_2  and  C_3 
REMARK    2  A    between atoms: C_6  and  C_7 
REMARK       I    between atoms: C_7  and  N_8 
REMARK    3  A    between atoms: N_8  and  C_9 
REMARK    4  A    between atoms: C_11  and  C_12 
REMARK    5  A    between atoms: C_12  and  C_13 
REMARK    6  A    between atoms: C_13  and  C_14 
ROOT
HETATM    1  C   UNL     1      -8.129   2.237 -31.858  1.00  0.00     0.725 A 
HETATM    2  N   UNL     1      -9.296   2.396 -31.291  1.00  0.00    -0.046 NA
HETATM    3  C   UNL     1      -9.424   3.751 -31.153  1.00  0.00     0.166 A 
HETATM    4  N   UNL     1      -8.386   4.457 -31.622  1.00  0.00    -0.144 NA
HETATM    5  N   UNL     1      -7.582   3.475 -32.066  1.00  0.00    -0.106 N 
HETATM    6  H   UNL     1      -6.694   3.717 -32.485  1.00  0.00     0.208 HD
ENDROOT
BRANCH   1   7
HETATM    7  N   UNL     1      -7.501   1.074 -32.240  1.00  0.00    -0.152 N 
HETATM    8  C   UNL     1      -7.134   0.861 -33.556  1.00  0.00     0.270 C 
HETATM    9  O   UNL     1      -7.405   1.553 -34.529  1.00  0.00    -0.267 OA
HETATM   10  H   UNL     1      -7.360   0.343 -31.561  1.00  0.00     0.187 HD
BRANCH   8  11
HETATM   11  C   UNL     1      -6.368  -0.393 -33.790  1.00  0.00     0.033 A 
HETATM   12  C   UNL     1      -5.003  -0.410 -33.481  1.00  0.00     0.020 A 
HETATM   13  C   UNL     1      -4.252  -1.576 -33.663  1.00  0.00     0.038 A 
HETATM   14  C   UNL     1      -4.866  -2.734 -34.140  1.00  0.00     0.068 A 
HETATM   15  C   UNL     1      -6.231  -2.715 -34.439  1.00  0.00     0.038 A 
HETATM   16  C   UNL     1      -6.987  -1.554 -34.262  1.00  0.00     0.020 A 
BRANCH  14  17
HETATM   17  O   UNL     1      -4.252  -3.938 -34.351  1.00  0.00    -0.356 OA
HETATM   18  C   UNL     1      -5.097  -5.047 -34.634  1.00  0.00     0.210 C 
ENDBRANCH  14  17
ENDBRANCH   8  11
ENDBRANCH   1   7
BRANCH   3  19
HETATM   19  C   UNL     1     -10.650   4.366 -30.589  1.00  0.00     0.087 C 
BRANCH  19  20
HETATM   20  C   UNL     1     -11.637   4.791 -31.679  1.00  0.00     0.048 C 
BRANCH  20  21
HETATM   21  C   UNL     1     -12.716   3.775 -31.892  1.00  0.00    -0.030 A 
HETATM   22  C   UNL     1     -12.788   2.838 -32.974  1.00  0.00    -0.002 A 
HETATM   23  C   UNL     1     -13.947   2.082 -32.796  1.00  0.00     0.042 A 
HETATM   24  C   UNL     1     -11.971   2.568 -34.091  1.00  0.00     0.014 A 
HETATM   25  C   UNL     1     -14.332   1.069 -33.683  1.00  0.00     0.030 A 
HETATM   26  N   UNL     1     -14.551   2.535 -31.647  1.00  0.00    -0.365 N 
HETATM   27  C   UNL     1     -13.506   0.823 -34.784  1.00  0.00     0.002 A 
HETATM   28  C   UNL     1     -12.342   1.559 -34.988  1.00  0.00     0.001 A 
HETATM   29  H   UNL     1     -15.411   2.164 -31.270  1.00  0.00     0.165 HD
HETATM   30  C   UNL     1     -13.821   3.555 -31.095  1.00  0.00     0.096 A 
ENDBRANCH  20  21
ENDBRANCH  19  20
ENDBRANCH   3  19
TORSDOF 6
ENDMDL
MODEL 10
REMARK VINA RESULT:      -7.9      3.757      4.320
REMARK  6 active torsions:
REMARK  status: ('A' for Active; 'I' for Inactive)
REMARK    1  A    between atoms: O_2  and  C_3 
REMARK    2  A    between atoms: C_6  and  C_7 
REMARK       I    between atoms: C_7  and  N_8 
REMARK    3  A    between atoms: N_8  and  C_9 
REMARK    4  A    between atoms: C_11  and  C_12 
REMARK    5  A    between atoms: C_12  and  C_13 
REMARK    6  A    between atoms: C_13  and  C_14 
ROOT
HETATM    1  C   UNL     1     -10.034   2.764 -33.334  1.00  0.00     0.725 A 
HETATM    2  N   UNL     1      -9.343   1.810 -33.902  1.00  0.00    -0.046 NA
HETATM    3  C   UNL     1      -8.880   1.059 -32.856  1.00  0.00     0.166 A 
HETATM    4  N   UNL     1      -9.260   1.495 -31.648  1.00  0.00    -0.144 NA
HETATM    5  N   UNL     1      -9.993   2.574 -31.979  1.00  0.00    -0.106 N 
HETATM    6  H   UNL     1     -10.421   3.121 -31.245  1.00  0.00     0.208 HD
ENDROOT
BRANCH   1   7
HETATM    7  N   UNL     1     -10.733   3.795 -33.918  1.00  0.00    -0.152 N 
HETATM    8  C   UNL     1     -10.076   4.826 -34.564  1.00  0.00     0.270 C 
HETATM    9  O   UNL     1      -8.870   5.037 -34.600  1.00  0.00    -0.267 OA
HETATM   10  H   UNL     1     -11.736   3.829 -33.822  1.00  0.00     0.187 HD
BRANCH   8  11
HETATM   11  C   UNL     1     -10.971   5.805 -35.237  1.00  0.00     0.033 A 
HETATM   12  C   UNL     1     -12.322   5.476 -35.397  1.00  0.00     0.020 A 
HETATM   13  C   UNL     1     -13.202   6.378 -36.002  1.00  0.00     0.038 A 
HETATM   14  C   UNL     1     -12.739   7.621 -36.436  1.00  0.00     0.068 A 
HETATM   15  C   UNL     1     -11.391   7.949 -36.266  1.00  0.00     0.038 A 
HETATM   16  C   UNL     1     -10.505   7.052 -35.665  1.00  0.00     0.020 A 
BRANCH  14  17
HETATM   17  O   UNL     1     -13.493   8.595 -37.030  1.00  0.00    -0.356 OA
HETATM   18  C   UNL     1     -12.932   9.234 -38.170  1.00  0.00     0.210 C 
ENDBRANCH  14  17
ENDBRANCH   8  11
ENDBRANCH   1   7
BRANCH   3  19
HETATM   19  C   UNL     1      -8.079  -0.170 -33.074  1.00  0.00     0.087 C 
BRANCH  19  20
HETATM   20  C   UNL     1      -7.014   0.018 -34.157  1.00  0.00     0.048 C 
BRANCH  20  21
HETATM   21  C   UNL     1      -5.845  -0.896 -33.964  1.00  0.00    -0.030 A 
HETATM   22  C   UNL     1      -5.806  -2.293 -34.281  1.00  0.00    -0.002 A 
HETATM   23  C   UNL     1      -4.538  -2.764 -33.945  1.00  0.00     0.042 A 
HETATM   24  C   UNL     1      -6.741  -3.199 -34.823  1.00  0.00     0.014 A 
HETATM   25  C   UNL     1      -4.156  -4.100 -34.120  1.00  0.00     0.030 A 
HETATM   26  N   UNL     1      -3.829  -1.694 -33.450  1.00  0.00    -0.365 N 
HETATM   27  C   UNL     1      -5.102  -4.979 -34.657  1.00  0.00     0.002 A 
HETATM   28  C   UNL     1      -6.376  -4.539 -35.005  1.00  0.00     0.001 A 
HETATM   29  H   UNL     1      -2.872  -1.742 -33.130  1.00  0.00     0.165 HD
HETATM   30  C   UNL     1      -4.605  -0.566 -33.454  1.00  0.00     0.096 A 
ENDBRANCH  20  21
ENDBRANCH  19  20
ENDBRANCH   3  19
TORSDOF 6
ENDMDL
