MODEL 1
REMARK VINA RESULT:      -7.8      0.000      0.000
REMARK  6 active torsions:
REMARK  status: ('A' for Active; 'I' for Inactive)
REMARK       I    between atoms: C_2  and  N_3 
REMARK    1  A    between atoms: N_3  and  C_4 
REMARK    2  A    between atoms: C_7  and  C_8 
REMARK    3  A    between atoms: C_8  and  N_9 
REMARK    4  A    between atoms: N_9  and  C_11 
REMARK    5  A    between atoms: C_11  and  C_12 
REMARK    6  A    between atoms: C_14  and  C_15 
ROOT
HETATM    1  N   UNL     1      -7.355   3.363 -32.843  1.00  0.00    -0.063 N 
HETATM    2  H   UNL     1      -8.017   2.612 -32.590  1.00  0.00     0.280 HD
HETATM    3  C   UNL     1      -6.942   4.086 -31.609  1.00  0.00     0.270 C 
ENDROOT
BRANCH   1   4
HETATM    4  C   UNL     1      -8.165   4.233 -33.789  1.00  0.00     0.294 C 
BRANCH   4   5
HETATM    5  C   UNL     1      -9.632   4.024 -33.584  1.00  0.00     0.069 A 
HETATM    6  C   UNL     1     -10.647   4.962 -33.564  1.00  0.00     0.082 A 
HETATM    7  S   UNL     1     -12.154   4.179 -33.282  1.00  0.00    -0.062 SA
HETATM    8  C   UNL     1     -11.348   2.680 -33.243  1.00  0.00     0.173 A 
HETATM    9  N   UNL     1     -10.048   2.717 -33.378  1.00  0.00    -0.227 NA
BRANCH   8  10
HETATM   10  N   UNL     1     -12.141   1.581 -33.082  1.00  0.00    -0.306 N 
HETATM   11  C   UNL     1     -12.741   0.976 -34.166  1.00  0.00     0.219 C 
HETATM   12  C   UNL     1     -13.522  -0.251 -33.773  1.00  0.00     0.117 C 
HETATM   13  O   UNL     1     -12.705   1.372 -35.330  1.00  0.00    -0.274 OA
HETATM   14  H   UNL     1     -12.319   1.264 -32.139  1.00  0.00     0.171 HD
ENDBRANCH   8  10
ENDBRANCH   4   5
ENDBRANCH   1   4
BRANCH   1  15
HETATM   15  C   UNL     1      -6.214   2.614 -33.505  1.00  0.00     0.312 C 
BRANCH  15  16
HETATM   16  C   UNL     1      -6.542   1.233 -33.971  1.00  0.00     0.130 A 
HETATM   17  N   UNL     1      -5.878   0.128 -33.694  1.00  0.00    -0.232 NA
HETATM   18  C   UNL     1      -6.478  -0.873 -34.428  1.00  0.00     0.084 A 
HETATM   19  C   UNL     1      -7.556  -0.367 -35.117  1.00  0.00     0.122 A 
HETATM   20  N   UNL     1      -7.597   0.966 -34.811  1.00  0.00    -0.351 N 
HETATM   21  H   UNL     1      -8.271   1.633 -35.170  1.00  0.00     0.166 HD
BRANCH  18  22
HETATM   22  C   UNL     1      -5.994  -2.243 -34.452  1.00  0.00    -0.006 A 
HETATM   23  C   UNL     1      -4.655  -2.510 -34.134  1.00  0.00     0.014 A 
HETATM   24  C   UNL     1      -4.159  -3.816 -34.171  1.00  0.00     0.001 A 
HETATM   25  C   UNL     1      -4.996  -4.868 -34.535  1.00  0.00     0.000 A 
HETATM   26  C   UNL     1      -6.329  -4.617 -34.857  1.00  0.00     0.001 A 
HETATM   27  C   UNL     1      -6.826  -3.312 -34.815  1.00  0.00     0.014 A 
ENDBRANCH  18  22
ENDBRANCH  15  16
ENDBRANCH   1  15
TORSDOF 6
ENDMDL
MODEL 2
REMARK VINA RESULT:      -7.8      5.072      7.339
REMARK  6 active torsions:
REMARK  status: ('A' for Active; 'I' for Inactive)
REMARK       I    between atoms: C_2  and  N_3 
REMARK    1  A    between atoms: N_3  and  C_4 
REMARK    2  A    between atoms: C_7  and  C_8 
REMARK    3  A    between atoms: C_8  and  N_9 
REMARK    4  A    between atoms: N_9  and  C_11 
REMARK    5  A    between atoms: C_11  and  C_12 
REMARK    6  A    between atoms: C_14  and  C_15 
ROOT
HETATM    1  N   UNL     1      -5.264   2.722 -32.324  1.00  0.00    -0.063 N 
HETATM    2  H   UNL     1      -5.172   3.737 -32.162  1.00  0.00     0.280 HD
HETATM    3  C   UNL     1      -5.752   2.072 -31.076  1.00  0.00     0.270 C 
ENDROOT
BRANCH   1   4
HETATM    4  C   UNL     1      -3.849   2.301 -32.687  1.00  0.00     0.294 C 
BRANCH   4   5
HETATM    5  C   UNL     1      -2.896   3.445 -32.540  1.00  0.00     0.069 A 
HETATM    6  C   UNL     1      -2.374   4.269 -33.519  1.00  0.00     0.082 A 
HETATM    7  S   UNL     1      -1.318   5.424 -32.800  1.00  0.00    -0.062 SA
HETATM    8  C   UNL     1      -1.665   4.764 -31.270  1.00  0.00     0.173 A 
HETATM    9  N   UNL     1      -2.464   3.730 -31.253  1.00  0.00    -0.227 NA
BRANCH   8  10
HETATM   10  N   UNL     1      -1.078   5.385 -30.206  1.00  0.00    -0.306 N 
HETATM   11  C   UNL     1       0.230   5.114 -29.863  1.00  0.00     0.219 C 
HETATM   12  C   UNL     1       0.696   5.949 -28.698  1.00  0.00     0.117 C 
HETATM   13  O   UNL     1       0.960   4.276 -30.389  1.00  0.00    -0.274 OA
HETATM   14  H   UNL     1      -1.651   6.001 -29.646  1.00  0.00     0.171 HD
ENDBRANCH   8  10
ENDBRANCH   4   5
ENDBRANCH   1   4
BRANCH   1  15
HETATM   15  C   UNL     1      -6.254   2.637 -33.468  1.00  0.00     0.312 C 
BRANCH  15  16
HETATM   16  C   UNL     1      -6.534   1.257 -33.968  1.00  0.00     0.130 A 
HETATM   17  N   UNL     1      -5.861   0.160 -33.678  1.00  0.00    -0.232 NA
HETATM   18  C   UNL     1      -6.409  -0.841 -34.452  1.00  0.00     0.084 A 
HETATM   19  C   UNL     1      -7.465  -0.344 -35.181  1.00  0.00     0.122 A 
HETATM   20  N   UNL     1      -7.546   0.983 -34.857  1.00  0.00    -0.351 N 
HETATM   21  H   UNL     1      -8.216   1.642 -35.236  1.00  0.00     0.166 HD
BRANCH  18  22
HETATM   22  C   UNL     1      -5.898  -2.201 -34.475  1.00  0.00    -0.006 A 
HETATM   23  C   UNL     1      -6.752  -3.255 -34.831  1.00  0.00     0.014 A 
HETATM   24  C   UNL     1      -6.291  -4.575 -34.839  1.00  0.00     0.001 A 
HETATM   25  C   UNL     1      -4.974  -4.854 -34.484  1.00  0.00     0.000 A 
HETATM   26  C   UNL     1      -4.116  -3.817 -34.124  1.00  0.00     0.001 A 
HETATM   27  C   UNL     1      -4.574  -2.496 -34.121  1.00  0.00     0.014 A 
ENDBRANCH  18  22
ENDBRANCH  15  16
ENDBRANCH   1  15
TORSDOF 6
ENDMDL
MODEL 3
REMARK VINA RESULT:      -7.6      4.769      6.902
REMARK  6 active torsions:
REMARK  status: ('A' for Active; 'I' for Inactive)
REMARK       I    between atoms: C_2  and  N_3 
REMARK    1  A    between atoms: N_3  and  C_4 
REMARK    2  A    between atoms: C_7  and  C_8 
REMARK    3  A    between atoms: C_8  and  N_9 
REMARK    4  A    between atoms: N_9  and  C_11 
REMARK    5  A    between atoms: C_11  and  C_12 
REMARK    6  A    between atoms: C_14  and  C_15 
ROOT
HETATM    1  N   UNL     1      -6.344   4.207 -33.441  1.00  0.00    -0.063 N 
HETATM    2  H   UNL     1      -5.827   3.707 -34.181  1.00  0.00     0.280 HD
HETATM    3  C   UNL     1      -7.803   4.122 -33.722  1.00  0.00     0.270 C 
ENDROOT
BRANCH   1   4
HETATM    4  C   UNL     1      -5.810   5.626 -33.544  1.00  0.00     0.294 C 
BRANCH   4   5
HETATM    5  C   UNL     1      -4.337   5.626 -33.806  1.00  0.00     0.069 A 
HETATM    6  C   UNL     1      -3.656   5.195 -34.929  1.00  0.00     0.082 A 
HETATM    7  S   UNL     1      -1.964   5.416 -34.700  1.00  0.00    -0.062 SA
HETATM    8  C   UNL     1      -2.276   6.086 -33.167  1.00  0.00     0.173 A 
HETATM    9  N   UNL     1      -3.528   6.118 -32.793  1.00  0.00    -0.227 NA
BRANCH   8  10
HETATM   10  N   UNL     1      -1.186   6.532 -32.478  1.00  0.00    -0.306 N 
HETATM   11  C   UNL     1      -0.514   5.702 -31.604  1.00  0.00     0.219 C 
HETATM   12  C   UNL     1       0.690   6.374 -30.995  1.00  0.00     0.117 C 
HETATM   13  O   UNL     1      -0.839   4.557 -31.296  1.00  0.00    -0.274 OA
HETATM   14  H   UNL     1      -0.926   7.502 -32.584  1.00  0.00     0.171 HD
ENDBRANCH   8  10
ENDBRANCH   4   5
ENDBRANCH   1   4
BRANCH   1  15
HETATM   15  C   UNL     1      -5.935   3.477 -32.176  1.00  0.00     0.312 C 
BRANCH  15  16
HETATM   16  C   UNL     1      -6.167   2.002 -32.188  1.00  0.00     0.130 A 
HETATM   17  N   UNL     1      -5.666   1.131 -33.044  1.00  0.00    -0.232 NA
HETATM   18  C   UNL     1      -6.242  -0.083 -32.735  1.00  0.00     0.084 A 
HETATM   19  C   UNL     1      -7.063   0.053 -31.640  1.00  0.00     0.122 A 
HETATM   20  N   UNL     1      -6.999   1.375 -31.292  1.00  0.00    -0.351 N 
HETATM   21  H   UNL     1      -7.503   1.808 -30.526  1.00  0.00     0.166 HD
BRANCH  18  22
HETATM   22  C   UNL     1      -6.000  -1.297 -33.497  1.00  0.00    -0.006 A 
HETATM   23  C   UNL     1      -4.682  -1.723 -33.719  1.00  0.00     0.014 A 
HETATM   24  C   UNL     1      -4.422  -2.875 -34.467  1.00  0.00     0.001 A 
HETATM   25  C   UNL     1      -5.476  -3.607 -35.007  1.00  0.00     0.000 A 
HETATM   26  C   UNL     1      -6.790  -3.193 -34.797  1.00  0.00     0.001 A 
HETATM   27  C   UNL     1      -7.051  -2.044 -34.045  1.00  0.00     0.014 A 
ENDBRANCH  18  22
ENDBRANCH  15  16
ENDBRANCH   1  15
TORSDOF 6
ENDMDL
MODEL 4
REMARK VINA RESULT:      -7.5      2.043      2.779
REMARK  6 active torsions:
REMARK  status: ('A' for Active; 'I' for Inactive)
REMARK       I    between atoms: C_2  and  N_3 
REMARK    1  A    between atoms: N_3  and  C_4 
REMARK    2  A    between atoms: C_7  and  C_8 
REMARK    3  A    between atoms: C_8  and  N_9 
REMARK    4  A    between atoms: N_9  and  C_11 
REMARK    5  A    between atoms: C_11  and  C_12 
REMARK    6  A    between atoms: C_14  and  C_15 
ROOT
HETATM    1  N   UNL     1      -6.111   2.568 -31.093  1.00  0.00    -0.063 N 
HETATM    2  H   UNL     1      -6.238   1.578 -30.830  1.00  0.00     0.280 HD
HETATM    3  C   UNL     1      -5.250   3.236 -30.078  1.00  0.00     0.270 C 
ENDROOT
BRANCH   1   4
HETATM    4  C   UNL     1      -7.531   3.109 -31.103  1.00  0.00     0.294 C 
BRANCH   4   5
HETATM    5  C   UNL     1      -8.423   2.255 -31.947  1.00  0.00     0.069 A 
HETATM    6  C   UNL     1      -8.784   0.934 -31.764  1.00  0.00     0.082 A 
HETATM    7  S   UNL     1      -9.831   0.438 -33.039  1.00  0.00    -0.062 SA
HETATM    8  C   UNL     1      -9.743   2.006 -33.697  1.00  0.00     0.173 A 
HETATM    9  N   UNL     1      -8.967   2.853 -33.074  1.00  0.00    -0.227 NA
BRANCH   8  10
HETATM   10  N   UNL     1     -10.500   2.228 -34.811  1.00  0.00    -0.306 N 
HETATM   11  C   UNL     1     -11.684   2.931 -34.733  1.00  0.00     0.219 C 
HETATM   12  C   UNL     1     -12.328   3.111 -36.083  1.00  0.00     0.117 C 
HETATM   13  O   UNL     1     -12.212   3.350 -33.705  1.00  0.00    -0.274 OA
HETATM   14  H   UNL     1     -10.194   1.810 -35.679  1.00  0.00     0.171 HD
ENDBRANCH   8  10
ENDBRANCH   4   5
ENDBRANCH   1   4
BRANCH   1  15
HETATM   15  C   UNL     1      -5.465   2.485 -32.462  1.00  0.00     0.312 C 
BRANCH  15  16
HETATM   16  C   UNL     1      -4.933   1.140 -32.836  1.00  0.00     0.130 A 
HETATM   17  N   UNL     1      -5.599   0.163 -33.421  1.00  0.00    -0.232 NA
HETATM   18  C   UNL     1      -4.739  -0.914 -33.462  1.00  0.00     0.084 A 
HETATM   19  C   UNL     1      -3.517  -0.559 -32.939  1.00  0.00     0.122 A 
HETATM   20  N   UNL     1      -3.646   0.750 -32.557  1.00  0.00    -0.351 N 
HETATM   21  H   UNL     1      -2.922   1.309 -32.120  1.00  0.00     0.166 HD
BRANCH  18  22
HETATM   22  C   UNL     1      -5.120  -2.219 -33.975  1.00  0.00    -0.006 A 
HETATM   23  C   UNL     1      -6.412  -2.412 -34.487  1.00  0.00     0.014 A 
HETATM   24  C   UNL     1      -6.810  -3.663 -34.966  1.00  0.00     0.001 A 
HETATM   25  C   UNL     1      -5.924  -4.736 -34.931  1.00  0.00     0.000 A 
HETATM   26  C   UNL     1      -4.638  -4.561 -34.421  1.00  0.00     0.001 A 
HETATM   27  C   UNL     1      -4.237  -3.308 -33.947  1.00  0.00     0.014 A 
ENDBRANCH  18  22
ENDBRANCH  15  16
ENDBRANCH   1  15
TORSDOF 6
ENDMDL
MODEL 5
REMARK VINA RESULT:      -7.5      1.674      2.202
REMARK  6 active torsions:
REMARK  status: ('A' for Active; 'I' for Inactive)
REMARK       I    between atoms: C_2  and  N_3 
REMARK    1  A    between atoms: N_3  and  C_4 
REMARK    2  A    between atoms: C_7  and  C_8 
REMARK    3  A    between atoms: C_8  and  N_9 
REMARK    4  A    between atoms: N_9  and  C_11 
REMARK    5  A    between atoms: C_11  and  C_12 
REMARK    6  A    between atoms: C_14  and  C_15 
ROOT
HETATM    1  N   UNL     1      -5.027   2.411 -31.610  1.00  0.00    -0.063 N 
HETATM    2  H   UNL     1      -4.437   1.564 -31.632  1.00  0.00     0.280 HD
HETATM    3  C   UNL     1      -4.184   3.582 -31.241  1.00  0.00     0.270 C 
ENDROOT
BRANCH   1   4
HETATM    4  C   UNL     1      -6.066   2.081 -30.551  1.00  0.00     0.294 C 
BRANCH   4   5
HETATM    5  C   UNL     1      -7.390   2.688 -30.893  1.00  0.00     0.069 A 
HETATM    6  C   UNL     1      -7.797   4.003 -30.777  1.00  0.00     0.082 A 
HETATM    7  S   UNL     1      -9.428   4.154 -31.308  1.00  0.00    -0.062 SA
HETATM    8  C   UNL     1      -9.444   2.491 -31.674  1.00  0.00     0.173 A 
HETATM    9  N   UNL     1      -8.355   1.826 -31.392  1.00  0.00    -0.227 NA
BRANCH   8  10
HETATM   10  N   UNL     1     -10.595   2.015 -32.232  1.00  0.00    -0.306 N 
HETATM   11  C   UNL     1     -10.685   1.801 -33.592  1.00  0.00     0.219 C 
HETATM   12  C   UNL     1     -12.017   1.220 -33.989  1.00  0.00     0.117 C 
HETATM   13  O   UNL     1      -9.823   2.069 -34.427  1.00  0.00    -0.274 OA
HETATM   14  H   UNL     1     -11.392   1.883 -31.626  1.00  0.00     0.171 HD
ENDBRANCH   8  10
ENDBRANCH   4   5
ENDBRANCH   1   4
BRANCH   1  15
HETATM   15  C   UNL     1      -5.577   2.492 -33.021  1.00  0.00     0.312 C 
BRANCH  15  16
HETATM   16  C   UNL     1      -6.012   1.190 -33.611  1.00  0.00     0.130 A 
HETATM   17  N   UNL     1      -5.482   0.004 -33.384  1.00  0.00    -0.232 NA
HETATM   18  C   UNL     1      -6.132  -0.873 -34.227  1.00  0.00     0.084 A 
HETATM   19  C   UNL     1      -7.106  -0.207 -34.935  1.00  0.00     0.122 A 
HETATM   20  N   UNL     1      -7.032   1.097 -34.527  1.00  0.00    -0.351 N 
HETATM   21  H   UNL     1      -7.611   1.855 -34.871  1.00  0.00     0.166 HD
BRANCH  18  22
HETATM   22  C   UNL     1      -5.788  -2.281 -34.331  1.00  0.00    -0.006 A 
HETATM   23  C   UNL     1      -4.492  -2.703 -34.001  1.00  0.00     0.014 A 
HETATM   24  C   UNL     1      -4.130  -4.049 -34.114  1.00  0.00     0.001 A 
HETATM   25  C   UNL     1      -5.058  -4.984 -34.565  1.00  0.00     0.000 A 
HETATM   26  C   UNL     1      -6.348  -4.578 -34.900  1.00  0.00     0.001 A 
HETATM   27  C   UNL     1      -6.713  -3.233 -34.783  1.00  0.00     0.014 A 
ENDBRANCH  18  22
ENDBRANCH  15  16
ENDBRANCH   1  15
TORSDOF 6
ENDMDL
MODEL 6
REMARK VINA RESULT:      -7.4      4.532      6.690
REMARK  6 active torsions:
REMARK  status: ('A' for Active; 'I' for Inactive)
REMARK       I    between atoms: C_2  and  N_3 
REMARK    1  A    between atoms: N_3  and  C_4 
REMARK    2  A    between atoms: C_7  and  C_8 
REMARK    3  A    between atoms: C_8  and  N_9 
REMARK    4  A    between atoms: N_9  and  C_11 
REMARK    5  A    between atoms: C_11  and  C_12 
REMARK    6  A    between atoms: C_14  and  C_15 
ROOT
HETATM    1  N   UNL     1      -6.228   3.803 -33.725  1.00  0.00    -0.063 N 
HETATM    2  H   UNL     1      -6.729   3.425 -34.545  1.00  0.00     0.280 HD
HETATM    3  C   UNL     1      -7.194   4.529 -32.855  1.00  0.00     0.270 C 
ENDROOT
BRANCH   1   4
HETATM    4  C   UNL     1      -5.194   4.726 -34.347  1.00  0.00     0.294 C 
BRANCH   4   5
HETATM    5  C   UNL     1      -4.114   5.058 -33.367  1.00  0.00     0.069 A 
HETATM    6  C   UNL     1      -2.961   4.353 -33.076  1.00  0.00     0.082 A 
HETATM    7  S   UNL     1      -2.067   5.182 -31.860  1.00  0.00    -0.062 SA
HETATM    8  C   UNL     1      -3.251   6.405 -31.847  1.00  0.00     0.173 A 
HETATM    9  N   UNL     1      -4.277   6.227 -32.638  1.00  0.00    -0.227 NA
BRANCH   8  10
HETATM   10  N   UNL     1      -3.010   7.459 -31.015  1.00  0.00    -0.306 N 
HETATM   11  C   UNL     1      -2.344   8.579 -31.466  1.00  0.00     0.219 C 
HETATM   12  C   UNL     1      -2.237   9.643 -30.405  1.00  0.00     0.117 C 
HETATM   13  O   UNL     1      -1.846   8.727 -32.581  1.00  0.00    -0.274 OA
HETATM   14  H   UNL     1      -3.283   7.366 -30.046  1.00  0.00     0.171 HD
ENDBRANCH   8  10
ENDBRANCH   4   5
ENDBRANCH   1   4
BRANCH   1  15
HETATM   15  C   UNL     1      -5.647   2.566 -33.069  1.00  0.00     0.312 C 
BRANCH  15  16
HETATM   16  C   UNL     1      -6.019   1.269 -33.711  1.00  0.00     0.130 A 
HETATM   17  N   UNL     1      -5.523   0.079 -33.432  1.00  0.00    -0.232 NA
HETATM   18  C   UNL     1      -6.078  -0.790 -34.347  1.00  0.00     0.084 A 
HETATM   19  C   UNL     1      -6.963  -0.116 -35.157  1.00  0.00     0.122 A 
HETATM   20  N   UNL     1      -6.929   1.186 -34.738  1.00  0.00    -0.351 N 
HETATM   21  H   UNL     1      -7.462   1.949 -35.141  1.00  0.00     0.166 HD
BRANCH  18  22
HETATM   22  C   UNL     1      -5.731  -2.200 -34.419  1.00  0.00    -0.006 A 
HETATM   23  C   UNL     1      -6.696  -3.129 -34.834  1.00  0.00     0.014 A 
HETATM   24  C   UNL     1      -6.395  -4.493 -34.890  1.00  0.00     0.001 A 
HETATM   25  C   UNL     1      -5.128  -4.942 -34.525  1.00  0.00     0.000 A 
HETATM   26  C   UNL     1      -4.161  -4.030 -34.107  1.00  0.00     0.001 A 
HETATM   27  C   UNL     1      -4.460  -2.665 -34.056  1.00  0.00     0.014 A 
ENDBRANCH  18  22
ENDBRANCH  15  16
ENDBRANCH   1  15
TORSDOF 6
ENDMDL
MODEL 7
REMARK VINA RESULT:      -7.3      3.901      6.137
REMARK  6 active torsions:
REMARK  status: ('A' for Active; 'I' for Inactive)
REMARK       I    between atoms: C_2  and  N_3 
REMARK    1  A    between atoms: N_3  and  C_4 
REMARK    2  A    between atoms: C_7  and  C_8 
REMARK    3  A    between atoms: C_8  and  N_9 
REMARK    4  A    between atoms: N_9  and  C_11 
REMARK    5  A    between atoms: C_11  and  C_12 
REMARK    6  A    between atoms: C_14  and  C_15 
ROOT
HETATM    1  N   UNL     1      -7.509   2.991 -32.318  1.00  0.00    -0.063 N 
HETATM    2  H   UNL     1      -7.942   3.897 -32.558  1.00  0.00     0.280 HD
HETATM    3  C   UNL     1      -8.572   1.954 -32.218  1.00  0.00     0.270 C 
ENDROOT
BRANCH   1   4
HETATM    4  C   UNL     1      -6.839   3.272 -30.983  1.00  0.00     0.294 C 
BRANCH   4   5
HETATM    5  C   UNL     1      -5.851   4.388 -31.105  1.00  0.00     0.069 A 
HETATM    6  C   UNL     1      -6.079   5.719 -31.398  1.00  0.00     0.082 A 
HETATM    7  S   UNL     1      -4.583   6.572 -31.420  1.00  0.00    -0.062 SA
HETATM    8  C   UNL     1      -3.775   5.131 -31.010  1.00  0.00     0.173 A 
HETATM    9  N   UNL     1      -4.518   4.060 -30.903  1.00  0.00    -0.227 NA
BRANCH   8  10
HETATM   10  N   UNL     1      -2.427   5.234 -30.827  1.00  0.00    -0.306 N 
HETATM   11  C   UNL     1      -1.555   5.073 -31.884  1.00  0.00     0.219 C 
HETATM   12  C   UNL     1      -0.121   5.286 -31.475  1.00  0.00     0.117 C 
HETATM   13  O   UNL     1      -1.858   4.758 -33.033  1.00  0.00    -0.274 OA
HETATM   14  H   UNL     1      -2.089   5.373 -29.885  1.00  0.00     0.171 HD
ENDBRANCH   8  10
ENDBRANCH   4   5
ENDBRANCH   1   4
BRANCH   1  15
HETATM   15  C   UNL     1      -6.545   2.750 -33.463  1.00  0.00     0.312 C 
BRANCH  15  16
HETATM   16  C   UNL     1      -5.837   1.435 -33.434  1.00  0.00     0.130 A 
HETATM   17  N   UNL     1      -6.202   0.328 -34.052  1.00  0.00    -0.232 NA
HETATM   18  C   UNL     1      -5.316  -0.647 -33.645  1.00  0.00     0.084 A 
HETATM   19  C   UNL     1      -4.371  -0.101 -32.808  1.00  0.00     0.122 A 
HETATM   20  N   UNL     1      -4.701   1.222 -32.691  1.00  0.00    -0.351 N 
HETATM   21  H   UNL     1      -4.206   1.905 -32.129  1.00  0.00     0.166 HD
BRANCH  18  22
HETATM   22  C   UNL     1      -5.420  -2.038 -34.053  1.00  0.00    -0.006 A 
HETATM   23  C   UNL     1      -6.636  -2.524 -34.554  1.00  0.00     0.014 A 
HETATM   24  C   UNL     1      -6.768  -3.863 -34.932  1.00  0.00     0.001 A 
HETATM   25  C   UNL     1      -5.686  -4.731 -34.807  1.00  0.00     0.000 A 
HETATM   26  C   UNL     1      -4.472  -4.263 -34.308  1.00  0.00     0.001 A 
HETATM   27  C   UNL     1      -4.338  -2.922 -33.934  1.00  0.00     0.014 A 
ENDBRANCH  18  22
ENDBRANCH  15  16
ENDBRANCH   1  15
TORSDOF 6
ENDMDL
MODEL 8
REMARK VINA RESULT:      -7.1      4.714      7.095
REMARK  6 active torsions:
REMARK  status: ('A' for Active; 'I' for Inactive)
REMARK       I    between atoms: C_2  and  N_3 
REMARK    1  A    between atoms: N_3  and  C_4 
REMARK    2  A    between atoms: C_7  and  C_8 
REMARK    3  A    between atoms: C_8  and  N_9 
REMARK    4  A    between atoms: N_9  and  C_11 
REMARK    5  A    between atoms: C_11  and  C_12 
REMARK    6  A    between atoms: C_14  and  C_15 
ROOT
HETATM    1  N   UNL     1      -7.317   4.527 -30.800  1.00  0.00    -0.063 N 
HETATM    2  H   UNL     1      -7.004   4.105 -31.689  1.00  0.00     0.280 HD
HETATM    3  C   UNL     1      -8.012   5.812 -31.089  1.00  0.00     0.270 C 
ENDROOT
BRANCH   1   4
HETATM    4  C   UNL     1      -6.019   4.723 -30.034  1.00  0.00     0.294 C 
BRANCH   4   5
HETATM    5  C   UNL     1      -4.850   4.769 -30.965  1.00  0.00     0.069 A 
HETATM    6  C   UNL     1      -4.663   4.094 -32.156  1.00  0.00     0.082 A 
HETATM    7  S   UNL     1      -3.130   4.508 -32.823  1.00  0.00    -0.062 SA
HETATM    8  C   UNL     1      -2.863   5.558 -31.510  1.00  0.00     0.173 A 
HETATM    9  N   UNL     1      -3.797   5.593 -30.596  1.00  0.00    -0.227 NA
BRANCH   8  10
HETATM   10  N   UNL     1      -1.698   6.269 -31.543  1.00  0.00    -0.306 N 
HETATM   11  C   UNL     1      -0.527   5.731 -31.053  1.00  0.00     0.219 C 
HETATM   12  C   UNL     1       0.646   6.657 -31.240  1.00  0.00     0.117 C 
HETATM   13  O   UNL     1      -0.408   4.645 -30.489  1.00  0.00    -0.274 OA
HETATM   14  H   UNL     1      -1.737   7.220 -31.883  1.00  0.00     0.171 HD
ENDBRANCH   8  10
ENDBRANCH   4   5
ENDBRANCH   1   4
BRANCH   1  15
HETATM   15  C   UNL     1      -8.235   3.471 -30.216  1.00  0.00     0.312 C 
BRANCH  15  16
HETATM   16  C   UNL     1      -8.238   2.161 -30.935  1.00  0.00     0.130 A 
HETATM   17  N   UNL     1      -7.194   1.540 -31.449  1.00  0.00    -0.232 NA
HETATM   18  C   UNL     1      -7.691   0.435 -32.106  1.00  0.00     0.084 A 
HETATM   19  C   UNL     1      -9.055   0.365 -31.938  1.00  0.00     0.122 A 
HETATM   20  N   UNL     1      -9.391   1.456 -31.182  1.00  0.00    -0.351 N 
HETATM   21  H   UNL     1     -10.329   1.704 -30.891  1.00  0.00     0.166 HD
BRANCH  18  22
HETATM   22  C   UNL     1      -6.860  -0.481 -32.868  1.00  0.00    -0.006 A 
HETATM   23  C   UNL     1      -7.427  -1.224 -33.913  1.00  0.00     0.014 A 
HETATM   24  C   UNL     1      -6.653  -2.128 -34.647  1.00  0.00     0.001 A 
HETATM   25  C   UNL     1      -5.307  -2.304 -34.337  1.00  0.00     0.000 A 
HETATM   26  C   UNL     1      -4.731  -1.575 -33.298  1.00  0.00     0.001 A 
HETATM   27  C   UNL     1      -5.503  -0.667 -32.568  1.00  0.00     0.014 A 
ENDBRANCH  18  22
ENDBRANCH  15  16
ENDBRANCH   1  15
TORSDOF 6
ENDMDL
MODEL 9
REMARK VINA RESULT:      -6.9      4.499      6.793
REMARK  6 active torsions:
REMARK  status: ('A' for Active; 'I' for Inactive)
REMARK       I    between atoms: C_2  and  N_3 
REMARK    1  A    between atoms: N_3  and  C_4 
REMARK    2  A    between atoms: C_7  and  C_8 
REMARK    3  A    between atoms: C_8  and  N_9 
REMARK    4  A    between atoms: N_9  and  C_11 
REMARK    5  A    between atoms: C_11  and  C_12 
REMARK    6  A    between atoms: C_14  and  C_15 
ROOT
HETATM    1  N   UNL     1      -6.614   4.815 -30.462  1.00  0.00    -0.063 N 
HETATM    2  H   UNL     1      -5.916   4.384 -31.089  1.00  0.00     0.280 HD
HETATM    3  C   UNL     1      -7.503   5.705 -31.259  1.00  0.00     0.270 C 
ENDROOT
BRANCH   1   4
HETATM    4  C   UNL     1      -5.759   5.582 -29.468  1.00  0.00     0.294 C 
BRANCH   4   5
HETATM    5  C   UNL     1      -4.430   5.929 -30.061  1.00  0.00     0.069 A 
HETATM    6  C   UNL     1      -3.492   6.839 -29.613  1.00  0.00     0.082 A 
HETATM    7  S   UNL     1      -2.139   6.849 -30.678  1.00  0.00    -0.062 SA
HETATM    8  C   UNL     1      -2.888   5.638 -31.612  1.00  0.00     0.173 A 
HETATM    9  N   UNL     1      -4.077   5.260 -31.223  1.00  0.00    -0.227 NA
BRANCH   8  10
HETATM   10  N   UNL     1      -2.168   5.174 -32.674  1.00  0.00    -0.306 N 
HETATM   11  C   UNL     1      -2.336   5.715 -33.932  1.00  0.00     0.219 C 
HETATM   12  C   UNL     1      -1.405   5.099 -34.944  1.00  0.00     0.117 C 
HETATM   13  O   UNL     1      -3.157   6.573 -34.249  1.00  0.00    -0.274 OA
HETATM   14  H   UNL     1      -1.556   4.385 -32.520  1.00  0.00     0.171 HD
ENDBRANCH   8  10
ENDBRANCH   4   5
ENDBRANCH   1   4
BRANCH   1  15
HETATM   15  C   UNL     1      -7.338   3.621 -29.872  1.00  0.00     0.312 C 
BRANCH  15  16
HETATM   16  C   UNL     1      -6.804   2.286 -30.279  1.00  0.00     0.130 A 
HETATM   17  N   UNL     1      -6.726   1.808 -31.506  1.00  0.00    -0.232 NA
HETATM   18  C   UNL     1      -6.278   0.509 -31.382  1.00  0.00     0.084 A 
HETATM   19  C   UNL     1      -6.034   0.222 -30.059  1.00  0.00     0.122 A 
HETATM   20  N   UNL     1      -6.357   1.359 -29.369  1.00  0.00    -0.351 N 
HETATM   21  H   UNL     1      -6.302   1.473 -28.363  1.00  0.00     0.166 HD
BRANCH  18  22
HETATM   22  C   UNL     1      -6.122  -0.391 -32.512  1.00  0.00    -0.006 A 
HETATM   23  C   UNL     1      -7.218  -0.648 -33.349  1.00  0.00     0.014 A 
HETATM   24  C   UNL     1      -7.099  -1.527 -34.429  1.00  0.00     0.001 A 
HETATM   25  C   UNL     1      -5.886  -2.164 -34.679  1.00  0.00     0.000 A 
HETATM   26  C   UNL     1      -4.790  -1.920 -33.854  1.00  0.00     0.001 A 
HETATM   27  C   UNL     1      -4.906  -1.037 -32.776  1.00  0.00     0.014 A 
ENDBRANCH  18  22
ENDBRANCH  15  16
ENDBRANCH   1  15
TORSDOF 6
ENDMDL
MODEL 10
REMARK VINA RESULT:      -6.8      2.211      2.583
REMARK  6 active torsions:
REMARK  status: ('A' for Active; 'I' for Inactive)
REMARK       I    between atoms: C_2  and  N_3 
REMARK    1  A    between atoms: N_3  and  C_4 
REMARK    2  A    between atoms: C_7  and  C_8 
REMARK    3  A    between atoms: C_8  and  N_9 
REMARK    4  A    between atoms: N_9  and  C_11 
REMARK    5  A    between atoms: C_11  and  C_12 
REMARK    6  A    between atoms: C_14  and  C_15 
ROOT
HETATM    1  N   UNL     1      -8.490   2.587 -32.021  1.00  0.00    -0.063 N 
HETATM    2  H   UNL     1      -8.577   1.568 -32.162  1.00  0.00     0.280 HD
HETATM    3  C   UNL     1      -9.131   2.957 -30.729  1.00  0.00     0.270 C 
ENDROOT
BRANCH   1   4
HETATM    4  C   UNL     1      -9.218   3.166 -33.222  1.00  0.00     0.294 C 
BRANCH   4   5
HETATM    5  C   UNL     1     -10.559   2.525 -33.395  1.00  0.00     0.069 A 
HETATM    6  C   UNL     1     -10.859   1.210 -33.694  1.00  0.00     0.082 A 
HETATM    7  S   UNL     1     -12.567   1.012 -33.784  1.00  0.00    -0.062 SA
HETATM    8  C   UNL     1     -12.761   2.657 -33.390  1.00  0.00     0.173 A 
HETATM    9  N   UNL     1     -11.663   3.350 -33.242  1.00  0.00    -0.227 NA
BRANCH   8  10
HETATM   10  N   UNL     1     -14.048   3.091 -33.261  1.00  0.00    -0.306 N 
HETATM   11  C   UNL     1     -14.556   3.443 -32.027  1.00  0.00     0.219 C 
HETATM   12  C   UNL     1     -15.972   3.948 -32.118  1.00  0.00     0.117 C 
HETATM   13  O   UNL     1     -13.975   3.341 -30.948  1.00  0.00    -0.274 OA
HETATM   14  H   UNL     1     -14.631   3.089 -34.087  1.00  0.00     0.171 HD
ENDBRANCH   8  10
ENDBRANCH   4   5
ENDBRANCH   1   4
BRANCH   1  15
HETATM   15  C   UNL     1      -6.991   2.813 -32.030  1.00  0.00     0.312 C 
BRANCH  15  16
HETATM   16  C   UNL     1      -6.175   1.663 -32.523  1.00  0.00     0.130 A 
HETATM   17  N   UNL     1      -6.627   0.553 -33.075  1.00  0.00    -0.232 NA
HETATM   18  C   UNL     1      -5.527  -0.257 -33.262  1.00  0.00     0.084 A 
HETATM   19  C   UNL     1      -4.387   0.402 -32.862  1.00  0.00     0.122 A 
HETATM   20  N   UNL     1      -4.806   1.624 -32.409  1.00  0.00    -0.351 N 
HETATM   21  H   UNL     1      -4.207   2.348 -32.030  1.00  0.00     0.166 HD
BRANCH  18  22
HETATM   22  C   UNL     1      -5.612  -1.608 -33.789  1.00  0.00    -0.006 A 
HETATM   23  C   UNL     1      -4.453  -2.393 -33.871  1.00  0.00     0.014 A 
HETATM   24  C   UNL     1      -4.505  -3.689 -34.394  1.00  0.00     0.001 A 
HETATM   25  C   UNL     1      -5.715  -4.209 -34.847  1.00  0.00     0.000 A 
HETATM   26  C   UNL     1      -6.874  -3.438 -34.775  1.00  0.00     0.001 A 
HETATM   27  C   UNL     1      -6.824  -2.144 -34.247  1.00  0.00     0.014 A 
ENDBRANCH  18  22
ENDBRANCH  15  16
ENDBRANCH   1  15
TORSDOF 6
ENDMDL
