MODEL 1
REMARK VINA RESULT:      -9.2      0.000      0.000
REMARK  9 active torsions:
REMARK  status: ('A' for Active; 'I' for Inactive)
REMARK    1  A    between atoms: C_2  and  C_3 
REMARK    2  A    between atoms: C_3  and  C_4 
REMARK    3  A    between atoms: C_4  and  O_5 
REMARK    4  A    between atoms: O_5  and  C_6 
REMARK    5  A    between atoms: C_8  and  C_9 
REMARK       I    between atoms: C_9  and  N_10 
REMARK    6  A    between atoms: N_10  and  C_11 
REMARK    7  A    between atoms: N_12  and  C_13 
REMARK    8  A    between atoms: C_15  and  C_16 
REMARK    9  A    between atoms: C_25  and  O_26 
ROOT
HETATM    1  C   UNL     1      -5.844   4.959 -28.982  1.00  0.00     0.179 C 
HETATM    2  N   UNL     1      -6.754   3.966 -28.837  1.00  0.00    -0.333 N 
HETATM    3  S   UNL     1      -5.818   6.212 -27.875  1.00  0.00    -0.040 SA
HETATM    4  H   UNL     1      -7.116   3.871 -27.894  1.00  0.00     0.168 HD
ENDROOT
BRANCH   2   5
HETATM    5  C   UNL     1      -7.387   3.165 -29.809  1.00  0.00     0.035 A 
HETATM    6  C   UNL     1      -6.752   2.092 -30.450  1.00  0.00     0.046 A 
HETATM    7  C   UNL     1      -7.424   1.322 -31.418  1.00  0.00     0.035 A 
HETATM    8  C   UNL     1      -8.759   1.654 -31.711  1.00  0.00     0.078 A 
HETATM    9  C   UNL     1      -9.380   2.749 -31.117  1.00  0.00     0.040 A 
HETATM   10  C   UNL     1      -8.688   3.512 -30.179  1.00  0.00     0.032 A 
BRANCH   7  11
HETATM   11  C   UNL     1      -6.773   0.202 -32.123  1.00  0.00     0.112 A 
HETATM   12  S   UNL     1      -5.117  -0.192 -31.875  1.00  0.00    -0.067 SA
HETATM   13  C   UNL     1      -5.210  -1.404 -33.093  1.00  0.00     0.035 A 
HETATM   14  C   UNL     1      -6.510  -1.441 -33.595  1.00  0.00     0.075 A 
HETATM   15  C   UNL     1      -4.204  -2.258 -33.573  1.00  0.00     0.021 A 
HETATM   16  N   UNL     1      -7.382  -0.510 -33.055  1.00  0.00    -0.239 NA
HETATM   17  C   UNL     1      -6.826  -2.384 -34.595  1.00  0.00     0.033 A 
HETATM   18  C   UNL     1      -5.834  -3.245 -35.075  1.00  0.00     0.002 A 
HETATM   19  C   UNL     1      -4.538  -3.177 -34.573  1.00  0.00     0.002 A 
ENDBRANCH   7  11
BRANCH   8  20
HETATM   20  O   UNL     1      -9.522   0.940 -32.600  1.00  0.00    -0.360 OA
HETATM   21  H   UNL     1      -8.919   0.352 -33.104  1.00  0.00     0.217 HD
ENDBRANCH   8  20
ENDBRANCH   2   5
BRANCH   1  22
HETATM   22  N   UNL     1      -4.914   4.958 -29.979  1.00  0.00    -0.299 N 
HETATM   23  C   UNL     1      -5.072   5.331 -31.311  1.00  0.00     0.257 C 
HETATM   24  O   UNL     1      -6.138   5.612 -31.847  1.00  0.00    -0.267 OA
HETATM   25  H   UNL     1      -4.151   4.318 -29.799  1.00  0.00     0.171 HD
BRANCH  23  26
HETATM   26  C   UNL     1      -3.832   5.282 -32.141  1.00  0.00     0.035 A 
HETATM   27  C   UNL     1      -2.606   5.063 -31.492  1.00  0.00     0.053 A 
HETATM   28  C   UNL     1      -1.423   5.017 -32.228  1.00  0.00     0.069 A 
HETATM   29  C   UNL     1      -1.468   5.196 -33.613  1.00  0.00     0.037 A 
HETATM   30  C   UNL     1      -2.685   5.386 -34.268  1.00  0.00     0.004 A 
HETATM   31  C   UNL     1      -3.870   5.421 -33.535  1.00  0.00     0.017 A 
BRANCH  28  32
HETATM   32  O   UNL     1      -0.169   4.833 -31.715  1.00  0.00    -0.351 OA
BRANCH  32  33
HETATM   33  C   UNL     1       0.060   5.312 -30.388  1.00  0.00     0.175 C 
BRANCH  33  34
HETATM   34  C   UNL     1       0.441   6.788 -30.496  1.00  0.00     0.026 C 
BRANCH  34  35
HETATM   35  C   UNL     1       0.569   7.448 -29.127  1.00  0.00    -0.002 C 
HETATM   36  C   UNL     1       0.508   6.418 -28.009  1.00  0.00     0.005 C 
ENDBRANCH  34  35
ENDBRANCH  33  34
ENDBRANCH  32  33
ENDBRANCH  28  32
ENDBRANCH  23  26
ENDBRANCH   1  22
TORSDOF 9
ENDMDL
MODEL 2
REMARK VINA RESULT:      -8.9      3.214      9.325
REMARK  9 active torsions:
REMARK  status: ('A' for Active; 'I' for Inactive)
REMARK    1  A    between atoms: C_2  and  C_3 
REMARK    2  A    between atoms: C_3  and  C_4 
REMARK    3  A    between atoms: C_4  and  O_5 
REMARK    4  A    between atoms: O_5  and  C_6 
REMARK    5  A    between atoms: C_8  and  C_9 
REMARK       I    between atoms: C_9  and  N_10 
REMARK    6  A    between atoms: N_10  and  C_11 
REMARK    7  A    between atoms: N_12  and  C_13 
REMARK    8  A    between atoms: C_15  and  C_16 
REMARK    9  A    between atoms: C_25  and  O_26 
ROOT
HETATM    1  C   UNL     1      -7.042  -0.926 -33.663  1.00  0.00     0.179 C 
HETATM    2  N   UNL     1      -6.334  -0.807 -32.514  1.00  0.00    -0.333 N 
HETATM    3  S   UNL     1      -6.676  -2.165 -34.724  1.00  0.00    -0.040 SA
HETATM    4  H   UNL     1      -5.877  -1.662 -32.219  1.00  0.00     0.168 HD
ENDROOT
BRANCH   2   5
HETATM    5  C   UNL     1      -6.005   0.341 -31.765  1.00  0.00     0.035 A 
HETATM    6  C   UNL     1      -5.238   1.398 -32.277  1.00  0.00     0.046 A 
HETATM    7  C   UNL     1      -4.931   2.523 -31.489  1.00  0.00     0.035 A 
HETATM    8  C   UNL     1      -5.431   2.561 -30.175  1.00  0.00     0.078 A 
HETATM    9  C   UNL     1      -6.150   1.494 -29.643  1.00  0.00     0.040 A 
HETATM   10  C   UNL     1      -6.421   0.379 -30.433  1.00  0.00     0.032 A 
BRANCH   7  11
HETATM   11  C   UNL     1      -4.109   3.638 -31.996  1.00  0.00     0.112 A 
HETATM   12  S   UNL     1      -4.482   4.451 -33.465  1.00  0.00    -0.067 SA
HETATM   13  C   UNL     1      -3.049   5.393 -33.322  1.00  0.00     0.035 A 
HETATM   14  C   UNL     1      -2.390   5.037 -32.145  1.00  0.00     0.075 A 
HETATM   15  C   UNL     1      -2.542   6.374 -34.189  1.00  0.00     0.021 A 
HETATM   16  N   UNL     1      -2.988   4.024 -31.414  1.00  0.00    -0.239 NA
HETATM   17  C   UNL     1      -1.195   5.703 -31.808  1.00  0.00     0.033 A 
HETATM   18  C   UNL     1      -0.684   6.688 -32.660  1.00  0.00     0.002 A 
HETATM   19  C   UNL     1      -1.348   7.014 -33.839  1.00  0.00     0.002 A 
ENDBRANCH   7  11
BRANCH   8  20
HETATM   20  O   UNL     1      -5.235   3.630 -29.339  1.00  0.00    -0.360 OA
HETATM   21  H   UNL     1      -4.701   3.318 -28.577  1.00  0.00     0.217 HD
ENDBRANCH   8  20
ENDBRANCH   2   5
BRANCH   1  22
HETATM   22  N   UNL     1      -8.077  -0.094 -33.973  1.00  0.00    -0.299 N 
HETATM   23  C   UNL     1      -9.157   0.279 -33.177  1.00  0.00     0.257 C 
HETATM   24  O   UNL     1      -9.424  -0.193 -32.078  1.00  0.00    -0.267 OA
HETATM   25  H   UNL     1      -8.232  -0.021 -34.971  1.00  0.00     0.171 HD
BRANCH  23  26
HETATM   26  C   UNL     1     -10.092   1.268 -33.790  1.00  0.00     0.035 A 
HETATM   27  C   UNL     1     -11.416   0.869 -34.036  1.00  0.00     0.053 A 
HETATM   28  C   UNL     1     -12.319   1.759 -34.615  1.00  0.00     0.069 A 
HETATM   29  C   UNL     1     -11.895   3.046 -34.953  1.00  0.00     0.037 A 
HETATM   30  C   UNL     1     -10.589   3.460 -34.686  1.00  0.00     0.004 A 
HETATM   31  C   UNL     1      -9.687   2.575 -34.097  1.00  0.00     0.017 A 
BRANCH  28  32
HETATM   32  O   UNL     1     -13.623   1.487 -34.923  1.00  0.00    -0.351 OA
BRANCH  32  33
HETATM   33  C   UNL     1     -14.365   0.726 -33.967  1.00  0.00     0.175 C 
BRANCH  33  34
HETATM   34  C   UNL     1     -15.474   1.628 -33.429  1.00  0.00     0.026 C 
BRANCH  34  35
HETATM   35  C   UNL     1     -15.238   2.020 -31.973  1.00  0.00    -0.002 C 
HETATM   36  C   UNL     1     -14.253   3.172 -31.863  1.00  0.00     0.005 C 
ENDBRANCH  34  35
ENDBRANCH  33  34
ENDBRANCH  32  33
ENDBRANCH  28  32
ENDBRANCH  23  26
ENDBRANCH   1  22
TORSDOF 9
ENDMDL
MODEL 3
REMARK VINA RESULT:      -8.8      2.687      9.246
REMARK  9 active torsions:
REMARK  status: ('A' for Active; 'I' for Inactive)
REMARK    1  A    between atoms: C_2  and  C_3 
REMARK    2  A    between atoms: C_3  and  C_4 
REMARK    3  A    between atoms: C_4  and  O_5 
REMARK    4  A    between atoms: O_5  and  C_6 
REMARK    5  A    between atoms: C_8  and  C_9 
REMARK       I    between atoms: C_9  and  N_10 
REMARK    6  A    between atoms: N_10  and  C_11 
REMARK    7  A    between atoms: N_12  and  C_13 
REMARK    8  A    between atoms: C_15  and  C_16 
REMARK    9  A    between atoms: C_25  and  O_26 
ROOT
HETATM    1  C   UNL     1      -7.005   5.153 -33.474  1.00  0.00     0.179 C 
HETATM    2  N   UNL     1      -5.940   5.986 -33.408  1.00  0.00    -0.333 N 
HETATM    3  S   UNL     1      -8.538   5.760 -33.196  1.00  0.00    -0.040 SA
HETATM    4  H   UNL     1      -6.172   6.965 -33.536  1.00  0.00     0.168 HD
ENDROOT
BRANCH   2   5
HETATM    5  C   UNL     1      -4.606   5.727 -33.032  1.00  0.00     0.035 A 
HETATM    6  C   UNL     1      -4.001   6.300 -31.904  1.00  0.00     0.046 A 
HETATM    7  C   UNL     1      -2.664   6.015 -31.570  1.00  0.00     0.035 A 
HETATM    8  C   UNL     1      -1.957   5.123 -32.397  1.00  0.00     0.078 A 
HETATM    9  C   UNL     1      -2.534   4.589 -33.546  1.00  0.00     0.040 A 
HETATM   10  C   UNL     1      -3.851   4.905 -33.871  1.00  0.00     0.032 A 
BRANCH   7  11
HETATM   11  C   UNL     1      -1.998   6.621 -30.402  1.00  0.00     0.112 A 
HETATM   12  S   UNL     1      -2.886   7.223 -29.058  1.00  0.00    -0.067 SA
HETATM   13  C   UNL     1      -1.432   7.802 -28.342  1.00  0.00     0.035 A 
HETATM   14  C   UNL     1      -0.359   7.476 -29.171  1.00  0.00     0.075 A 
HETATM   15  C   UNL     1      -1.253   8.498 -27.135  1.00  0.00     0.021 A 
HETATM   16  N   UNL     1      -0.695   6.828 -30.348  1.00  0.00    -0.239 NA
HETATM   17  C   UNL     1       0.943   7.834 -28.769  1.00  0.00     0.033 A 
HETATM   18  C   UNL     1       1.135   8.521 -27.565  1.00  0.00     0.002 A 
HETATM   19  C   UNL     1       0.047   8.853 -26.763  1.00  0.00     0.002 A 
ENDBRANCH   7  11
BRANCH   8  20
HETATM   20  O   UNL     1      -0.667   4.737 -32.136  1.00  0.00    -0.360 OA
HETATM   21  H   UNL     1      -0.589   3.786 -32.368  1.00  0.00     0.217 HD
ENDBRANCH   8  20
ENDBRANCH   2   5
BRANCH   1  22
HETATM   22  N   UNL     1      -6.883   3.834 -33.802  1.00  0.00    -0.299 N 
HETATM   23  C   UNL     1      -6.613   2.755 -32.964  1.00  0.00     0.257 C 
HETATM   24  O   UNL     1      -6.310   2.836 -31.779  1.00  0.00    -0.267 OA
HETATM   25  H   UNL     1      -6.639   3.696 -34.774  1.00  0.00     0.171 HD
BRANCH  23  26
HETATM   26  C   UNL     1      -6.611   1.417 -33.625  1.00  0.00     0.035 A 
HETATM   27  C   UNL     1      -5.673   0.464 -33.197  1.00  0.00     0.053 A 
HETATM   28  C   UNL     1      -5.632  -0.795 -33.793  1.00  0.00     0.069 A 
HETATM   29  C   UNL     1      -6.527  -1.097 -34.822  1.00  0.00     0.037 A 
HETATM   30  C   UNL     1      -7.481  -0.166 -35.234  1.00  0.00     0.004 A 
HETATM   31  C   UNL     1      -7.531   1.090 -34.631  1.00  0.00     0.017 A 
BRANCH  28  32
HETATM   32  O   UNL     1      -4.757  -1.798 -33.483  1.00  0.00    -0.351 OA
BRANCH  32  33
HETATM   33  C   UNL     1      -4.382  -2.678 -34.545  1.00  0.00     0.175 C 
BRANCH  33  34
HETATM   34  C   UNL     1      -4.113  -4.049 -33.928  1.00  0.00     0.026 C 
BRANCH  34  35
HETATM   35  C   UNL     1      -4.984  -5.137 -34.548  1.00  0.00    -0.002 C 
HETATM   36  C   UNL     1      -6.367  -4.609 -34.894  1.00  0.00     0.005 C 
ENDBRANCH  34  35
ENDBRANCH  33  34
ENDBRANCH  32  33
ENDBRANCH  28  32
ENDBRANCH  23  26
ENDBRANCH   1  22
TORSDOF 9
ENDMDL
MODEL 4
REMARK VINA RESULT:      -8.5      3.430      8.071
REMARK  9 active torsions:
REMARK  status: ('A' for Active; 'I' for Inactive)
REMARK    1  A    between atoms: C_2  and  C_3 
REMARK    2  A    between atoms: C_3  and  C_4 
REMARK    3  A    between atoms: C_4  and  O_5 
REMARK    4  A    between atoms: O_5  and  C_6 
REMARK    5  A    between atoms: C_8  and  C_9 
REMARK       I    between atoms: C_9  and  N_10 
REMARK    6  A    between atoms: N_10  and  C_11 
REMARK    7  A    between atoms: N_12  and  C_13 
REMARK    8  A    between atoms: C_15  and  C_16 
REMARK    9  A    between atoms: C_25  and  O_26 
ROOT
HETATM    1  C   UNL     1      -6.869   4.798 -32.570  1.00  0.00     0.179 C 
HETATM    2  N   UNL     1      -5.551   4.505 -32.675  1.00  0.00    -0.333 N 
HETATM    3  S   UNL     1      -7.331   6.360 -32.193  1.00  0.00    -0.040 SA
HETATM    4  H   UNL     1      -4.961   5.309 -32.858  1.00  0.00     0.168 HD
ENDROOT
BRANCH   2   5
HETATM    5  C   UNL     1      -4.864   3.302 -32.411  1.00  0.00     0.035 A 
HETATM    6  C   UNL     1      -5.204   2.078 -33.005  1.00  0.00     0.046 A 
HETATM    7  C   UNL     1      -4.491   0.902 -32.707  1.00  0.00     0.035 A 
HETATM    8  C   UNL     1      -3.416   0.996 -31.805  1.00  0.00     0.078 A 
HETATM    9  C   UNL     1      -3.104   2.197 -31.173  1.00  0.00     0.040 A 
HETATM   10  C   UNL     1      -3.838   3.344 -31.464  1.00  0.00     0.032 A 
BRANCH   7  11
HETATM   11  C   UNL     1      -4.841  -0.402 -33.301  1.00  0.00     0.112 A 
HETATM   12  S   UNL     1      -6.373  -0.690 -34.029  1.00  0.00    -0.067 SA
HETATM   13  C   UNL     1      -5.957  -2.341 -34.279  1.00  0.00     0.035 A 
HETATM   14  C   UNL     1      -4.663  -2.557 -33.807  1.00  0.00     0.075 A 
HETATM   15  C   UNL     1      -6.722  -3.372 -34.848  1.00  0.00     0.021 A 
HETATM   16  N   UNL     1      -4.048  -1.456 -33.233  1.00  0.00    -0.239 NA
HETATM   17  C   UNL     1      -4.101  -3.844 -33.932  1.00  0.00     0.033 A 
HETATM   18  C   UNL     1      -4.850  -4.877 -34.505  1.00  0.00     0.002 A 
HETATM   19  C   UNL     1      -6.147  -4.643 -34.951  1.00  0.00     0.002 A 
ENDBRANCH   7  11
BRANCH   8  20
HETATM   20  O   UNL     1      -2.623  -0.076 -31.484  1.00  0.00    -0.360 OA
HETATM   21  H   UNL     1      -2.291  -0.463 -32.322  1.00  0.00     0.217 HD
ENDBRANCH   8  20
ENDBRANCH   2   5
BRANCH   1  22
HETATM   22  N   UNL     1      -7.845   3.873 -32.801  1.00  0.00    -0.299 N 
HETATM   23  C   UNL     1      -8.611   3.173 -31.873  1.00  0.00     0.257 C 
HETATM   24  O   UNL     1      -8.440   3.184 -30.660  1.00  0.00    -0.267 OA
HETATM   25  H   UNL     1      -7.755   3.432 -33.707  1.00  0.00     0.171 HD
BRANCH  23  26
HETATM   26  C   UNL     1      -9.653   2.275 -32.453  1.00  0.00     0.035 A 
HETATM   27  C   UNL     1     -10.813   2.859 -32.986  1.00  0.00     0.053 A 
HETATM   28  C   UNL     1     -11.815   2.056 -33.529  1.00  0.00     0.069 A 
HETATM   29  C   UNL     1     -11.656   0.668 -33.534  1.00  0.00     0.037 A 
HETATM   30  C   UNL     1     -10.494   0.082 -33.032  1.00  0.00     0.004 A 
HETATM   31  C   UNL     1      -9.486   0.884 -32.498  1.00  0.00     0.017 A 
BRANCH  28  32
HETATM   32  O   UNL     1     -12.995   2.499 -34.057  1.00  0.00    -0.351 OA
BRANCH  32  33
HETATM   33  C   UNL     1     -13.961   3.009 -33.136  1.00  0.00     0.175 C 
BRANCH  33  34
HETATM   34  C   UNL     1     -14.984   1.901 -32.889  1.00  0.00     0.026 C 
BRANCH  34  35
HETATM   35  C   UNL     1     -15.980   2.275 -31.795  1.00  0.00    -0.002 C 
HETATM   36  C   UNL     1     -17.309   2.720 -32.385  1.00  0.00     0.005 C 
ENDBRANCH  34  35
ENDBRANCH  33  34
ENDBRANCH  32  33
ENDBRANCH  28  32
ENDBRANCH  23  26
ENDBRANCH   1  22
TORSDOF 9
ENDMDL
MODEL 5
REMARK VINA RESULT:      -8.5      2.641      4.576
REMARK  9 active torsions:
REMARK  status: ('A' for Active; 'I' for Inactive)
REMARK    1  A    between atoms: C_2  and  C_3 
REMARK    2  A    between atoms: C_3  and  C_4 
REMARK    3  A    between atoms: C_4  and  O_5 
REMARK    4  A    between atoms: O_5  and  C_6 
REMARK    5  A    between atoms: C_8  and  C_9 
REMARK       I    between atoms: C_9  and  N_10 
REMARK    6  A    between atoms: N_10  and  C_11 
REMARK    7  A    between atoms: N_12  and  C_13 
REMARK    8  A    between atoms: C_15  and  C_16 
REMARK    9  A    between atoms: C_25  and  O_26 
ROOT
HETATM    1  C   UNL     1      -2.677   6.146 -32.674  1.00  0.00     0.179 C 
HETATM    2  N   UNL     1      -3.800   5.423 -32.897  1.00  0.00    -0.333 N 
HETATM    3  S   UNL     1      -1.902   6.872 -33.966  1.00  0.00    -0.040 SA
HETATM    4  H   UNL     1      -4.278   5.656 -33.760  1.00  0.00     0.168 HD
ENDROOT
BRANCH   2   5
HETATM    5  C   UNL     1      -4.311   4.303 -32.209  1.00  0.00     0.035 A 
HETATM    6  C   UNL     1      -4.412   3.029 -32.785  1.00  0.00     0.046 A 
HETATM    7  C   UNL     1      -4.933   1.941 -32.060  1.00  0.00     0.035 A 
HETATM    8  C   UNL     1      -5.335   2.170 -30.732  1.00  0.00     0.078 A 
HETATM    9  C   UNL     1      -5.285   3.442 -30.168  1.00  0.00     0.040 A 
HETATM   10  C   UNL     1      -4.788   4.510 -30.913  1.00  0.00     0.032 A 
BRANCH   7  11
HETATM   11  C   UNL     1      -5.071   0.596 -32.649  1.00  0.00     0.112 A 
HETATM   12  S   UNL     1      -3.705  -0.386 -33.008  1.00  0.00    -0.067 SA
HETATM   13  C   UNL     1      -4.730  -1.573 -33.717  1.00  0.00     0.035 A 
HETATM   14  C   UNL     1      -6.053  -1.147 -33.613  1.00  0.00     0.075 A 
HETATM   15  C   UNL     1      -4.387  -2.792 -34.325  1.00  0.00     0.021 A 
HETATM   16  N   UNL     1      -6.233   0.095 -33.027  1.00  0.00    -0.239 NA
HETATM   17  C   UNL     1      -7.076  -1.981 -34.109  1.00  0.00     0.033 A 
HETATM   18  C   UNL     1      -6.747  -3.201 -34.710  1.00  0.00     0.002 A 
HETATM   19  C   UNL     1      -5.418  -3.596 -34.821  1.00  0.00     0.002 A 
ENDBRANCH   7  11
BRANCH   8  20
HETATM   20  O   UNL     1      -5.809   1.171 -29.919  1.00  0.00    -0.360 OA
HETATM   21  H   UNL     1      -5.633   0.316 -30.366  1.00  0.00     0.217 HD
ENDBRANCH   8  20
ENDBRANCH   2   5
BRANCH   1  22
HETATM   22  N   UNL     1      -2.169   6.342 -31.423  1.00  0.00    -0.299 N 
HETATM   23  C   UNL     1      -1.039   5.767 -30.847  1.00  0.00     0.257 C 
HETATM   24  O   UNL     1      -0.368   4.870 -31.345  1.00  0.00    -0.267 OA
HETATM   25  H   UNL     1      -2.866   6.672 -30.768  1.00  0.00     0.171 HD
BRANCH  23  26
HETATM   26  C   UNL     1      -0.709   6.245 -29.472  1.00  0.00     0.035 A 
HETATM   27  C   UNL     1      -1.673   6.994 -28.779  1.00  0.00     0.053 A 
HETATM   28  C   UNL     1      -1.402   7.467 -27.495  1.00  0.00     0.069 A 
HETATM   29  C   UNL     1      -0.163   7.194 -26.910  1.00  0.00     0.037 A 
HETATM   30  C   UNL     1       0.789   6.426 -27.581  1.00  0.00     0.004 A 
HETATM   31  C   UNL     1       0.516   5.944 -28.860  1.00  0.00     0.017 A 
BRANCH  28  32
HETATM   32  O   UNL     1      -2.244   8.221 -26.727  1.00  0.00    -0.351 OA
BRANCH  32  33
HETATM   33  C   UNL     1      -3.132   7.513 -25.859  1.00  0.00     0.175 C 
BRANCH  33  34
HETATM   34  C   UNL     1      -4.519   7.548 -26.499  1.00  0.00     0.026 C 
BRANCH  34  35
HETATM   35  C   UNL     1      -4.920   6.192 -27.072  1.00  0.00    -0.002 C 
HETATM   36  C   UNL     1      -6.223   6.284 -27.850  1.00  0.00     0.005 C 
ENDBRANCH  34  35
ENDBRANCH  33  34
ENDBRANCH  32  33
ENDBRANCH  28  32
ENDBRANCH  23  26
ENDBRANCH   1  22
TORSDOF 9
ENDMDL
MODEL 6
REMARK VINA RESULT:      -8.5      2.491      8.128
REMARK  9 active torsions:
REMARK  status: ('A' for Active; 'I' for Inactive)
REMARK    1  A    between atoms: C_2  and  C_3 
REMARK    2  A    between atoms: C_3  and  C_4 
REMARK    3  A    between atoms: C_4  and  O_5 
REMARK    4  A    between atoms: O_5  and  C_6 
REMARK    5  A    between atoms: C_8  and  C_9 
REMARK       I    between atoms: C_9  and  N_10 
REMARK    6  A    between atoms: N_10  and  C_11 
REMARK    7  A    between atoms: N_12  and  C_13 
REMARK    8  A    between atoms: C_15  and  C_16 
REMARK    9  A    between atoms: C_25  and  O_26 
ROOT
HETATM    1  C   UNL     1      -8.743   1.764 -32.694  1.00  0.00     0.179 C 
HETATM    2  N   UNL     1      -8.665   3.069 -32.340  1.00  0.00    -0.333 N 
HETATM    3  S   UNL     1     -10.197   1.152 -33.250  1.00  0.00    -0.040 SA
HETATM    4  H   UNL     1      -9.381   3.654 -32.757  1.00  0.00     0.168 HD
ENDROOT
BRANCH   2   5
HETATM    5  C   UNL     1      -7.859   3.701 -31.372  1.00  0.00     0.035 A 
HETATM    6  C   UNL     1      -6.535   4.093 -31.613  1.00  0.00     0.046 A 
HETATM    7  C   UNL     1      -5.767   4.719 -30.613  1.00  0.00     0.035 A 
HETATM    8  C   UNL     1      -6.376   4.951 -29.367  1.00  0.00     0.078 A 
HETATM    9  C   UNL     1      -7.673   4.520 -29.103  1.00  0.00     0.040 A 
HETATM   10  C   UNL     1      -8.407   3.881 -30.100  1.00  0.00     0.032 A 
BRANCH   7  11
HETATM   11  C   UNL     1      -4.365   5.121 -30.833  1.00  0.00     0.112 A 
HETATM   12  S   UNL     1      -3.261   4.136 -31.711  1.00  0.00    -0.067 SA
HETATM   13  C   UNL     1      -1.984   5.234 -31.360  1.00  0.00     0.035 A 
HETATM   14  C   UNL     1      -2.493   6.295 -30.611  1.00  0.00     0.075 A 
HETATM   15  C   UNL     1      -0.628   5.161 -31.719  1.00  0.00     0.021 A 
HETATM   16  N   UNL     1      -3.839   6.208 -30.298  1.00  0.00    -0.239 NA
HETATM   17  C   UNL     1      -1.622   7.335 -30.229  1.00  0.00     0.033 A 
HETATM   18  C   UNL     1      -0.271   7.278 -30.587  1.00  0.00     0.002 A 
HETATM   19  C   UNL     1       0.219   6.200 -31.317  1.00  0.00     0.002 A 
ENDBRANCH   7  11
BRANCH   8  20
HETATM   20  O   UNL     1      -5.737   5.598 -28.339  1.00  0.00    -0.360 OA
HETATM   21  H   UNL     1      -5.159   6.285 -28.734  1.00  0.00     0.217 HD
ENDBRANCH   8  20
ENDBRANCH   2   5
BRANCH   1  22
HETATM   22  N   UNL     1      -7.664   0.930 -32.654  1.00  0.00    -0.299 N 
HETATM   23  C   UNL     1      -6.494   0.991 -33.407  1.00  0.00     0.257 C 
HETATM   24  O   UNL     1      -6.293   1.755 -34.344  1.00  0.00    -0.267 OA
HETATM   25  H   UNL     1      -7.893   0.016 -32.286  1.00  0.00     0.171 HD
BRANCH  23  26
HETATM   26  C   UNL     1      -5.466  -0.039 -33.074  1.00  0.00     0.035 A 
HETATM   27  C   UNL     1      -5.195  -1.039 -34.022  1.00  0.00     0.053 A 
HETATM   28  C   UNL     1      -4.247  -2.024 -33.747  1.00  0.00     0.069 A 
HETATM   29  C   UNL     1      -3.576  -2.010 -32.523  1.00  0.00     0.037 A 
HETATM   30  C   UNL     1      -3.819  -1.003 -31.588  1.00  0.00     0.004 A 
HETATM   31  C   UNL     1      -4.758  -0.011 -31.865  1.00  0.00     0.017 A 
BRANCH  28  32
HETATM   32  O   UNL     1      -3.909  -3.060 -34.573  1.00  0.00    -0.351 OA
BRANCH  32  33
HETATM   33  C   UNL     1      -3.616  -4.312 -33.949  1.00  0.00     0.175 C 
BRANCH  33  34
HETATM   34  C   UNL     1      -4.841  -5.208 -34.129  1.00  0.00     0.026 C 
BRANCH  34  35
HETATM   35  C   UNL     1      -5.748  -4.719 -35.254  1.00  0.00    -0.002 C 
HETATM   36  C   UNL     1      -7.111  -4.303 -34.724  1.00  0.00     0.005 C 
ENDBRANCH  34  35
ENDBRANCH  33  34
ENDBRANCH  32  33
ENDBRANCH  28  32
ENDBRANCH  23  26
ENDBRANCH   1  22
TORSDOF 9
ENDMDL
MODEL 7
REMARK VINA RESULT:      -8.3      2.597      9.634
REMARK  9 active torsions:
REMARK  status: ('A' for Active; 'I' for Inactive)
REMARK    1  A    between atoms: C_2  and  C_3 
REMARK    2  A    between atoms: C_3  and  C_4 
REMARK    3  A    between atoms: C_4  and  O_5 
REMARK    4  A    between atoms: O_5  and  C_6 
REMARK    5  A    between atoms: C_8  and  C_9 
REMARK       I    between atoms: C_9  and  N_10 
REMARK    6  A    between atoms: N_10  and  C_11 
REMARK    7  A    between atoms: N_12  and  C_13 
REMARK    8  A    between atoms: C_15  and  C_16 
REMARK    9  A    between atoms: C_25  and  O_26 
ROOT
HETATM    1  C   UNL     1      -6.058   5.779 -32.285  1.00  0.00     0.179 C 
HETATM    2  N   UNL     1      -4.951   6.515 -32.540  1.00  0.00    -0.333 N 
HETATM    3  S   UNL     1      -7.539   6.545 -32.161  1.00  0.00    -0.040 SA
HETATM    4  H   UNL     1      -5.140   7.411 -32.975  1.00  0.00     0.168 HD
ENDROOT
BRANCH   2   5
HETATM    5  C   UNL     1      -3.611   6.305 -32.153  1.00  0.00     0.035 A 
HETATM    6  C   UNL     1      -3.065   6.817 -30.968  1.00  0.00     0.046 A 
HETATM    7  C   UNL     1      -1.719   6.584 -30.626  1.00  0.00     0.035 A 
HETATM    8  C   UNL     1      -0.944   5.808 -31.505  1.00  0.00     0.078 A 
HETATM    9  C   UNL     1      -1.463   5.339 -32.709  1.00  0.00     0.040 A 
HETATM   10  C   UNL     1      -2.791   5.602 -33.039  1.00  0.00     0.032 A 
BRANCH   7  11
HETATM   11  C   UNL     1      -1.115   7.129 -29.396  1.00  0.00     0.112 A 
HETATM   12  S   UNL     1      -2.042   7.422 -27.977  1.00  0.00    -0.067 SA
HETATM   13  C   UNL     1      -0.666   8.111 -27.207  1.00  0.00     0.035 A 
HETATM   14  C   UNL     1       0.418   8.052 -28.081  1.00  0.00     0.075 A 
HETATM   15  C   UNL     1      -0.556   8.669 -25.922  1.00  0.00     0.021 A 
HETATM   16  N   UNL     1       0.147   7.515 -29.328  1.00  0.00    -0.239 NA
HETATM   17  C   UNL     1       1.667   8.542 -27.648  1.00  0.00     0.033 A 
HETATM   18  C   UNL     1       1.792   9.092 -26.367  1.00  0.00     0.002 A 
HETATM   19  C   UNL     1       0.691   9.159 -25.519  1.00  0.00     0.002 A 
ENDBRANCH   7  11
BRANCH   8  20
HETATM   20  O   UNL     1       0.362   5.478 -31.246  1.00  0.00    -0.360 OA
HETATM   21  H   UNL     1       0.364   4.817 -30.520  1.00  0.00     0.217 HD
ENDBRANCH   8  20
ENDBRANCH   2   5
BRANCH   1  22
HETATM   22  N   UNL     1      -6.021   4.420 -32.163  1.00  0.00    -0.299 N 
HETATM   23  C   UNL     1      -5.644   3.660 -31.059  1.00  0.00     0.257 C 
HETATM   24  O   UNL     1      -5.152   4.102 -30.028  1.00  0.00    -0.267 OA
HETATM   25  H   UNL     1      -5.941   3.952 -33.057  1.00  0.00     0.171 HD
BRANCH  23  26
HETATM   26  C   UNL     1      -5.781   2.183 -31.225  1.00  0.00     0.035 A 
HETATM   27  C   UNL     1      -5.352   1.605 -32.431  1.00  0.00     0.053 A 
HETATM   28  C   UNL     1      -5.470   0.230 -32.629  1.00  0.00     0.069 A 
HETATM   29  C   UNL     1      -6.022  -0.564 -31.622  1.00  0.00     0.037 A 
HETATM   30  C   UNL     1      -6.424  -0.002 -30.410  1.00  0.00     0.004 A 
HETATM   31  C   UNL     1      -6.297   1.371 -30.205  1.00  0.00     0.017 A 
BRANCH  28  32
HETATM   32  O   UNL     1      -5.111  -0.447 -33.760  1.00  0.00    -0.351 OA
BRANCH  32  33
HETATM   33  C   UNL     1      -6.172  -0.919 -34.593  1.00  0.00     0.175 C 
BRANCH  33  34
HETATM   34  C   UNL     1      -5.786  -2.315 -35.077  1.00  0.00     0.026 C 
BRANCH  34  35
HETATM   35  C   UNL     1      -6.798  -3.371 -34.646  1.00  0.00    -0.002 C 
HETATM   36  C   UNL     1      -6.607  -4.669 -35.416  1.00  0.00     0.005 C 
ENDBRANCH  34  35
ENDBRANCH  33  34
ENDBRANCH  32  33
ENDBRANCH  28  32
ENDBRANCH  23  26
ENDBRANCH   1  22
TORSDOF 9
ENDMDL
MODEL 8
REMARK VINA RESULT:      -8.2      3.184      7.304
REMARK  9 active torsions:
REMARK  status: ('A' for Active; 'I' for Inactive)
REMARK    1  A    between atoms: C_2  and  C_3 
REMARK    2  A    between atoms: C_3  and  C_4 
REMARK    3  A    between atoms: C_4  and  O_5 
REMARK    4  A    between atoms: O_5  and  C_6 
REMARK    5  A    between atoms: C_8  and  C_9 
REMARK       I    between atoms: C_9  and  N_10 
REMARK    6  A    between atoms: N_10  and  C_11 
REMARK    7  A    between atoms: N_12  and  C_13 
REMARK    8  A    between atoms: C_15  and  C_16 
REMARK    9  A    between atoms: C_25  and  O_26 
ROOT
HETATM    1  C   UNL     1     -10.482   2.925 -34.572  1.00  0.00     0.179 C 
HETATM    2  N   UNL     1     -10.267   4.247 -34.376  1.00  0.00    -0.333 N 
HETATM    3  S   UNL     1     -12.015   2.397 -34.981  1.00  0.00    -0.040 SA
HETATM    4  H   UNL     1     -10.951   4.848 -34.822  1.00  0.00     0.168 HD
ENDROOT
BRANCH   2   5
HETATM    5  C   UNL     1      -9.351   4.903 -33.528  1.00  0.00     0.035 A 
HETATM    6  C   UNL     1      -7.989   5.041 -33.830  1.00  0.00     0.046 A 
HETATM    7  C   UNL     1      -7.111   5.701 -32.950  1.00  0.00     0.035 A 
HETATM    8  C   UNL     1      -7.648   6.232 -31.764  1.00  0.00     0.078 A 
HETATM    9  C   UNL     1      -8.988   6.056 -31.432  1.00  0.00     0.040 A 
HETATM   10  C   UNL     1      -9.834   5.378 -32.307  1.00  0.00     0.032 A 
BRANCH   7  11
HETATM   11  C   UNL     1      -5.671   5.840 -33.233  1.00  0.00     0.112 A 
HETATM   12  S   UNL     1      -4.868   4.847 -34.385  1.00  0.00    -0.067 SA
HETATM   13  C   UNL     1      -3.359   5.562 -33.969  1.00  0.00     0.035 A 
HETATM   14  C   UNL     1      -3.574   6.530 -32.989  1.00  0.00     0.075 A 
HETATM   15  C   UNL     1      -2.077   5.283 -34.471  1.00  0.00     0.021 A 
HETATM   16  N   UNL     1      -4.885   6.663 -32.562  1.00  0.00    -0.239 NA
HETATM   17  C   UNL     1      -2.472   7.268 -32.511  1.00  0.00     0.033 A 
HETATM   18  C   UNL     1      -1.191   7.005 -33.009  1.00  0.00     0.002 A 
HETATM   19  C   UNL     1      -0.998   6.020 -33.972  1.00  0.00     0.002 A 
ENDBRANCH   7  11
BRANCH   8  20
HETATM   20  O   UNL     1      -6.893   6.937 -30.861  1.00  0.00    -0.360 OA
HETATM   21  H   UNL     1      -7.448   7.093 -30.067  1.00  0.00     0.217 HD
ENDBRANCH   8  20
ENDBRANCH   2   5
BRANCH   1  22
HETATM   22  N   UNL     1      -9.481   2.001 -34.489  1.00  0.00    -0.299 N 
HETATM   23  C   UNL     1      -9.116   1.217 -33.397  1.00  0.00     0.257 C 
HETATM   24  O   UNL     1      -9.569   1.324 -32.264  1.00  0.00    -0.267 OA
HETATM   25  H   UNL     1      -8.752   2.156 -35.172  1.00  0.00     0.171 HD
BRANCH  23  26
HETATM   26  C   UNL     1      -8.012   0.244 -33.651  1.00  0.00     0.035 A 
HETATM   27  C   UNL     1      -7.096  -0.007 -32.617  1.00  0.00     0.053 A 
HETATM   28  C   UNL     1      -6.045  -0.902 -32.814  1.00  0.00     0.069 A 
HETATM   29  C   UNL     1      -5.911  -1.541 -34.049  1.00  0.00     0.037 A 
HETATM   30  C   UNL     1      -6.833  -1.319 -35.072  1.00  0.00     0.004 A 
HETATM   31  C   UNL     1      -7.891  -0.432 -34.872  1.00  0.00     0.017 A 
BRANCH  28  32
HETATM   32  O   UNL     1      -5.080  -1.215 -31.899  1.00  0.00    -0.351 OA
BRANCH  32  33
HETATM   33  C   UNL     1      -3.762  -1.441 -32.405  1.00  0.00     0.175 C 
BRANCH  33  34
HETATM   34  C   UNL     1      -3.100  -0.075 -32.580  1.00  0.00     0.026 C 
BRANCH  34  35
HETATM   35  C   UNL     1      -3.249   0.796 -31.338  1.00  0.00    -0.002 C 
HETATM   36  C   UNL     1      -3.629   2.223 -31.704  1.00  0.00     0.005 C 
ENDBRANCH  34  35
ENDBRANCH  33  34
ENDBRANCH  32  33
ENDBRANCH  28  32
ENDBRANCH  23  26
ENDBRANCH   1  22
TORSDOF 9
ENDMDL
MODEL 9
REMARK VINA RESULT:      -8.2      2.990      4.417
REMARK  9 active torsions:
REMARK  status: ('A' for Active; 'I' for Inactive)
REMARK    1  A    between atoms: C_2  and  C_3 
REMARK    2  A    between atoms: C_3  and  C_4 
REMARK    3  A    between atoms: C_4  and  O_5 
REMARK    4  A    between atoms: O_5  and  C_6 
REMARK    5  A    between atoms: C_8  and  C_9 
REMARK       I    between atoms: C_9  and  N_10 
REMARK    6  A    between atoms: N_10  and  C_11 
REMARK    7  A    between atoms: N_12  and  C_13 
REMARK    8  A    between atoms: C_15  and  C_16 
REMARK    9  A    between atoms: C_25  and  O_26 
ROOT
HETATM    1  C   UNL     1      -2.615   6.283 -32.644  1.00  0.00     0.179 C 
HETATM    2  N   UNL     1      -3.825   5.685 -32.760  1.00  0.00    -0.333 N 
HETATM    3  S   UNL     1      -1.934   7.016 -33.984  1.00  0.00    -0.040 SA
HETATM    4  H   UNL     1      -4.378   6.018 -33.541  1.00  0.00     0.168 HD
ENDROOT
BRANCH   2   5
HETATM    5  C   UNL     1      -4.359   4.575 -32.073  1.00  0.00     0.035 A 
HETATM    6  C   UNL     1      -4.452   3.295 -32.638  1.00  0.00     0.046 A 
HETATM    7  C   UNL     1      -4.997   2.218 -31.915  1.00  0.00     0.035 A 
HETATM    8  C   UNL     1      -5.431   2.463 -30.600  1.00  0.00     0.078 A 
HETATM    9  C   UNL     1      -5.389   3.741 -30.049  1.00  0.00     0.040 A 
HETATM   10  C   UNL     1      -4.868   4.798 -30.792  1.00  0.00     0.032 A 
BRANCH   7  11
HETATM   11  C   UNL     1      -5.127   0.868 -32.493  1.00  0.00     0.112 A 
HETATM   12  S   UNL     1      -3.762  -0.145 -32.759  1.00  0.00    -0.067 SA
HETATM   13  C   UNL     1      -4.767  -1.323 -33.509  1.00  0.00     0.035 A 
HETATM   14  C   UNL     1      -6.087  -0.871 -33.487  1.00  0.00     0.075 A 
HETATM   15  C   UNL     1      -4.414  -2.557 -34.080  1.00  0.00     0.021 A 
HETATM   16  N   UNL     1      -6.275   0.383 -32.930  1.00  0.00    -0.239 NA
HETATM   17  C   UNL     1      -7.095  -1.693 -34.031  1.00  0.00     0.033 A 
HETATM   18  C   UNL     1      -6.756  -2.927 -34.595  1.00  0.00     0.002 A 
HETATM   19  C   UNL     1      -5.431  -3.349 -34.624  1.00  0.00     0.002 A 
ENDBRANCH   7  11
BRANCH   8  20
HETATM   20  O   UNL     1      -5.931   1.476 -29.789  1.00  0.00    -0.360 OA
HETATM   21  H   UNL     1      -5.172   1.051 -29.336  1.00  0.00     0.217 HD
ENDBRANCH   8  20
ENDBRANCH   2   5
BRANCH   1  22
HETATM   22  N   UNL     1      -1.942   6.348 -31.460  1.00  0.00    -0.299 N 
HETATM   23  C   UNL     1      -2.076   7.284 -30.438  1.00  0.00     0.257 C 
HETATM   24  O   UNL     1      -2.755   8.303 -30.494  1.00  0.00    -0.267 OA
HETATM   25  H   UNL     1      -1.050   5.871 -31.493  1.00  0.00     0.171 HD
BRANCH  23  26
HETATM   26  C   UNL     1      -1.235   7.036 -29.230  1.00  0.00     0.035 A 
HETATM   27  C   UNL     1      -1.579   7.687 -28.034  1.00  0.00     0.053 A 
HETATM   28  C   UNL     1      -0.815   7.489 -26.885  1.00  0.00     0.069 A 
HETATM   29  C   UNL     1       0.296   6.646 -26.935  1.00  0.00     0.037 A 
HETATM   30  C   UNL     1       0.629   5.974 -28.112  1.00  0.00     0.004 A 
HETATM   31  C   UNL     1      -0.140   6.161 -29.260  1.00  0.00     0.017 A 
BRANCH  28  32
HETATM   32  O   UNL     1      -1.033   8.078 -25.670  1.00  0.00    -0.351 OA
BRANCH  32  33
HETATM   33  C   UNL     1      -0.900   9.499 -25.610  1.00  0.00     0.175 C 
BRANCH  33  34
HETATM   34  C   UNL     1       0.290   9.808 -24.702  1.00  0.00     0.026 C 
BRANCH  34  35
HETATM   35  C   UNL     1       1.590   9.945 -25.487  1.00  0.00    -0.002 C 
HETATM   36  C   UNL     1       2.569   8.836 -25.134  1.00  0.00     0.005 C 
ENDBRANCH  34  35
ENDBRANCH  33  34
ENDBRANCH  32  33
ENDBRANCH  28  32
ENDBRANCH  23  26
ENDBRANCH   1  22
TORSDOF 9
ENDMDL
MODEL 10
REMARK VINA RESULT:      -8.2      3.471      7.322
REMARK  9 active torsions:
REMARK  status: ('A' for Active; 'I' for Inactive)
REMARK    1  A    between atoms: C_2  and  C_3 
REMARK    2  A    between atoms: C_3  and  C_4 
REMARK    3  A    between atoms: C_4  and  O_5 
REMARK    4  A    between atoms: O_5  and  C_6 
REMARK    5  A    between atoms: C_8  and  C_9 
REMARK       I    between atoms: C_9  and  N_10 
REMARK    6  A    between atoms: N_10  and  C_11 
REMARK    7  A    between atoms: N_12  and  C_13 
REMARK    8  A    between atoms: C_15  and  C_16 
REMARK    9  A    between atoms: C_25  and  O_26 
ROOT
HETATM    1  C   UNL     1      -4.173   3.541 -31.573  1.00  0.00     0.179 C 
HETATM    2  N   UNL     1      -4.836   4.128 -30.549  1.00  0.00    -0.333 N 
HETATM    3  S   UNL     1      -2.575   3.947 -31.852  1.00  0.00    -0.040 SA
HETATM    4  H   UNL     1      -4.233   4.501 -29.825  1.00  0.00     0.168 HD
ENDROOT
BRANCH   2   5
HETATM    5  C   UNL     1      -6.204   4.441 -30.413  1.00  0.00     0.035 A 
HETATM    6  C   UNL     1      -7.175   4.064 -31.351  1.00  0.00     0.046 A 
HETATM    7  C   UNL     1      -8.530   4.403 -31.175  1.00  0.00     0.035 A 
HETATM    8  C   UNL     1      -8.881   5.121 -30.017  1.00  0.00     0.078 A 
HETATM    9  C   UNL     1      -7.917   5.544 -29.106  1.00  0.00     0.040 A 
HETATM   10  C   UNL     1      -6.579   5.217 -29.313  1.00  0.00     0.032 A 
BRANCH   7  11
HETATM   11  C   UNL     1      -9.567   4.037 -32.157  1.00  0.00     0.112 A 
HETATM   12  S   UNL     1      -9.911   2.399 -32.552  1.00  0.00    -0.067 SA
HETATM   13  C   UNL     1     -11.032   2.911 -33.752  1.00  0.00     0.035 A 
HETATM   14  C   UNL     1     -11.085   4.304 -33.757  1.00  0.00     0.075 A 
HETATM   15  C   UNL     1     -11.807   2.136 -34.631  1.00  0.00     0.021 A 
HETATM   16  N   UNL     1     -10.232   4.933 -32.864  1.00  0.00    -0.239 NA
HETATM   17  C   UNL     1     -11.963   4.948 -34.651  1.00  0.00     0.033 A 
HETATM   18  C   UNL     1     -12.746   4.187 -35.526  1.00  0.00     0.002 A 
HETATM   19  C   UNL     1     -12.663   2.798 -35.518  1.00  0.00     0.002 A 
ENDBRANCH   7  11
BRANCH   8  20
HETATM   20  O   UNL     1     -10.177   5.459 -29.721  1.00  0.00    -0.360 OA
HETATM   21  H   UNL     1     -10.215   6.435 -29.622  1.00  0.00     0.217 HD
ENDBRANCH   8  20
ENDBRANCH   2   5
BRANCH   1  22
HETATM   22  N   UNL     1      -4.748   2.594 -32.370  1.00  0.00    -0.299 N 
HETATM   23  C   UNL     1      -5.125   1.296 -32.037  1.00  0.00     0.257 C 
HETATM   24  O   UNL     1      -4.880   0.737 -30.974  1.00  0.00    -0.267 OA
HETATM   25  H   UNL     1      -4.569   2.753 -33.353  1.00  0.00     0.171 HD
BRANCH  23  26
HETATM   26  C   UNL     1      -5.797   0.527 -33.125  1.00  0.00     0.035 A 
HETATM   27  C   UNL     1      -5.718  -0.875 -33.096  1.00  0.00     0.053 A 
HETATM   28  C   UNL     1      -6.325  -1.631 -34.098  1.00  0.00     0.069 A 
HETATM   29  C   UNL     1      -7.006  -0.983 -35.131  1.00  0.00     0.037 A 
HETATM   30  C   UNL     1      -7.113   0.408 -35.152  1.00  0.00     0.004 A 
HETATM   31  C   UNL     1      -6.516   1.166 -34.145  1.00  0.00     0.017 A 
BRANCH  28  32
HETATM   32  O   UNL     1      -6.303  -2.994 -34.194  1.00  0.00    -0.351 OA
BRANCH  32  33
HETATM   33  C   UNL     1      -5.241  -3.569 -34.958  1.00  0.00     0.175 C 
BRANCH  33  34
HETATM   34  C   UNL     1      -4.777  -4.825 -34.221  1.00  0.00     0.026 C 
BRANCH  34  35
HETATM   35  C   UNL     1      -3.370  -4.669 -33.653  1.00  0.00    -0.002 C 
HETATM   36  C   UNL     1      -3.368  -3.788 -32.413  1.00  0.00     0.005 C 
ENDBRANCH  34  35
ENDBRANCH  33  34
ENDBRANCH  32  33
ENDBRANCH  28  32
ENDBRANCH  23  26
ENDBRANCH   1  22
TORSDOF 9
ENDMDL
