MODEL 1
REMARK VINA RESULT:      -8.5      0.000      0.000
REMARK  6 active torsions:
REMARK  status: ('A' for Active; 'I' for Inactive)
REMARK    1  A    between atoms: C_2  and  C_3 
REMARK    2  A    between atoms: C_3  and  C_4 
REMARK    3  A    between atoms: C_5  and  O_6 
REMARK    4  A    between atoms: C_7  and  C_8 
REMARK    5  A    between atoms: N_9  and  N_10 
REMARK       I    between atoms: N_10  and  C_11 
REMARK    6  A    between atoms: C_11  and  C_12 
ROOT
HETATM    1  N   UNL     1      -3.726   2.146 -32.722  1.00  0.00    -0.243 N 
HETATM    2  C   UNL     1      -3.561   0.908 -32.117  1.00  0.00     0.274 C 
HETATM    3  O   UNL     1      -2.945   0.732 -31.065  1.00  0.00    -0.266 OA
HETATM    4  H   UNL     1      -4.234   2.263 -33.586  1.00  0.00     0.192 HD
ENDROOT
BRANCH   1   5
HETATM    5  N   UNL     1      -3.166   3.251 -32.148  1.00  0.00    -0.183 NA
HETATM    6  C   UNL     1      -2.578   4.072 -32.959  1.00  0.00     0.153 C 
BRANCH   6   7
HETATM    7  C   UNL     1      -1.921   5.304 -32.470  1.00  0.00     0.017 A 
HETATM    8  C   UNL     1      -1.145   5.278 -31.301  1.00  0.00     0.084 A 
HETATM    9  C   UNL     1      -0.513   6.447 -30.840  1.00  0.00    -0.021 A 
HETATM   10  C   UNL     1      -0.703   7.641 -31.561  1.00  0.00     0.010 A 
HETATM   11  C   UNL     1      -1.484   7.668 -32.717  1.00  0.00     0.002 A 
HETATM   12  C   UNL     1      -2.089   6.501 -33.175  1.00  0.00     0.016 A 
BRANCH   8  13
HETATM   13  O   UNL     1      -1.020   4.090 -30.630  1.00  0.00    -0.359 OA
HETATM   14  H   UNL     1      -0.086   3.951 -30.405  1.00  0.00     0.218 HD
ENDBRANCH   8  13
BRANCH   9  15
HETATM   15  C   UNL     1       0.376   6.478 -29.616  1.00  0.00     0.067 C 
BRANCH  15  16
HETATM   16  C   UNL     1       0.341   7.804 -28.906  1.00  0.00    -0.032 C 
HETATM   17  C   UNL     1       1.289   8.234 -28.061  1.00  0.00     0.007 C 
ENDBRANCH  15  16
ENDBRANCH   9  15
ENDBRANCH   6   7
ENDBRANCH   1   5
BRANCH   2  18
HETATM   18  C   UNL     1      -4.170  -0.276 -32.803  1.00  0.00     0.061 A 
HETATM   19  C   UNL     1      -3.663  -1.562 -32.521  1.00  0.00     0.058 A 
HETATM   20  C   UNL     1      -4.154  -2.727 -33.109  1.00  0.00    -0.007 A 
HETATM   21  N   UNL     1      -2.646  -1.944 -31.668  1.00  0.00    -0.364 N 
HETATM   22  C   UNL     1      -3.401  -3.815 -32.585  1.00  0.00     0.030 A 
HETATM   23  C   UNL     1      -5.210  -2.626 -34.032  1.00  0.00     0.014 A 
HETATM   24  C   UNL     1      -2.480  -3.301 -31.700  1.00  0.00     0.089 A 
HETATM   25  C   UNL     1      -5.738  -1.366 -34.331  1.00  0.00     0.002 A 
HETATM   26  C   UNL     1      -5.228  -0.212 -33.728  1.00  0.00     0.019 A 
HETATM   27  H   UNL     1      -2.118  -1.279 -31.111  1.00  0.00     0.165 HD
ENDBRANCH   2  18
TORSDOF 6
ENDMDL
MODEL 2
REMARK VINA RESULT:      -8.5      1.446      2.624
REMARK  6 active torsions:
REMARK  status: ('A' for Active; 'I' for Inactive)
REMARK    1  A    between atoms: C_2  and  C_3 
REMARK    2  A    between atoms: C_3  and  C_4 
REMARK    3  A    between atoms: C_5  and  O_6 
REMARK    4  A    between atoms: C_7  and  C_8 
REMARK    5  A    between atoms: N_9  and  N_10 
REMARK       I    between atoms: N_10  and  C_11 
REMARK    6  A    between atoms: C_11  and  C_12 
ROOT
HETATM    1  N   UNL     1      -3.179   2.175 -32.460  1.00  0.00    -0.243 N 
HETATM    2  C   UNL     1      -4.375   1.556 -32.125  1.00  0.00     0.274 C 
HETATM    3  O   UNL     1      -5.137   1.958 -31.245  1.00  0.00    -0.266 OA
HETATM    4  H   UNL     1      -2.571   1.823 -33.184  1.00  0.00     0.192 HD
ENDROOT
BRANCH   1   5
HETATM    5  N   UNL     1      -2.789   3.289 -31.773  1.00  0.00    -0.183 NA
HETATM    6  C   UNL     1      -2.221   4.216 -32.477  1.00  0.00     0.153 C 
BRANCH   6   7
HETATM    7  C   UNL     1      -1.741   5.471 -31.859  1.00  0.00     0.017 A 
HETATM    8  C   UNL     1      -0.896   5.432 -30.740  1.00  0.00     0.084 A 
HETATM    9  C   UNL     1      -0.431   6.625 -30.155  1.00  0.00    -0.021 A 
HETATM   10  C   UNL     1      -0.859   7.849 -30.702  1.00  0.00     0.010 A 
HETATM   11  C   UNL     1      -1.709   7.887 -31.808  1.00  0.00     0.002 A 
HETATM   12  C   UNL     1      -2.146   6.700 -32.390  1.00  0.00     0.016 A 
BRANCH   8  13
HETATM   13  O   UNL     1      -0.536   4.208 -30.238  1.00  0.00    -0.359 OA
HETATM   14  H   UNL     1      -1.298   3.608 -30.295  1.00  0.00     0.218 HD
ENDBRANCH   8  13
BRANCH   9  15
HETATM   15  C   UNL     1       0.519   6.654 -28.979  1.00  0.00     0.067 C 
BRANCH  15  16
HETATM   16  C   UNL     1       0.777   8.048 -28.474  1.00  0.00    -0.032 C 
HETATM   17  C   UNL     1       1.554   8.338 -27.422  1.00  0.00     0.007 C 
ENDBRANCH  15  16
ENDBRANCH   9  15
ENDBRANCH   6   7
ENDBRANCH   1   5
BRANCH   2  18
HETATM   18  C   UNL     1      -4.743   0.320 -32.888  1.00  0.00     0.061 A 
HETATM   19  C   UNL     1      -5.901   0.336 -33.693  1.00  0.00     0.058 A 
HETATM   20  C   UNL     1      -6.334  -0.761 -34.437  1.00  0.00    -0.007 A 
HETATM   21  N   UNL     1      -6.808   1.353 -33.919  1.00  0.00    -0.364 N 
HETATM   22  C   UNL     1      -7.525  -0.371 -35.112  1.00  0.00     0.030 A 
HETATM   23  C   UNL     1      -5.584  -1.949 -34.391  1.00  0.00     0.014 A 
HETATM   24  C   UNL     1      -7.792   0.937 -34.773  1.00  0.00     0.089 A 
HETATM   25  C   UNL     1      -4.428  -1.997 -33.605  1.00  0.00     0.002 A 
HETATM   26  C   UNL     1      -4.014  -0.884 -32.868  1.00  0.00     0.019 A 
HETATM   27  H   UNL     1      -6.720   2.270 -33.491  1.00  0.00     0.165 HD
ENDBRANCH   2  18
TORSDOF 6
ENDMDL
MODEL 3
REMARK VINA RESULT:      -8.4      1.463      2.012
REMARK  6 active torsions:
REMARK  status: ('A' for Active; 'I' for Inactive)
REMARK    1  A    between atoms: C_2  and  C_3 
REMARK    2  A    between atoms: C_3  and  C_4 
REMARK    3  A    between atoms: C_5  and  O_6 
REMARK    4  A    between atoms: C_7  and  C_8 
REMARK    5  A    between atoms: N_9  and  N_10 
REMARK       I    between atoms: N_10  and  C_11 
REMARK    6  A    between atoms: C_11  and  C_12 
ROOT
HETATM    1  N   UNL     1      -4.837   3.109 -33.172  1.00  0.00    -0.243 N 
HETATM    2  C   UNL     1      -4.954   1.773 -32.815  1.00  0.00     0.274 C 
HETATM    3  O   UNL     1      -4.307   1.242 -31.912  1.00  0.00    -0.266 OA
HETATM    4  H   UNL     1      -5.378   3.520 -33.919  1.00  0.00     0.192 HD
ENDROOT
BRANCH   1   5
HETATM    5  N   UNL     1      -3.943   3.901 -32.512  1.00  0.00    -0.183 NA
HETATM    6  C   UNL     1      -2.974   4.377 -33.228  1.00  0.00     0.153 C 
BRANCH   6   7
HETATM    7  C   UNL     1      -1.929   5.242 -32.637  1.00  0.00     0.017 A 
HETATM    8  C   UNL     1      -1.299   4.876 -31.439  1.00  0.00     0.084 A 
HETATM    9  C   UNL     1      -0.300   5.694 -30.880  1.00  0.00    -0.021 A 
HETATM   10  C   UNL     1       0.027   6.896 -31.537  1.00  0.00     0.010 A 
HETATM   11  C   UNL     1      -0.608   7.264 -32.723  1.00  0.00     0.002 A 
HETATM   12  C   UNL     1      -1.582   6.438 -33.276  1.00  0.00     0.016 A 
BRANCH   8  13
HETATM   13  O   UNL     1      -1.680   3.707 -30.834  1.00  0.00    -0.359 OA
HETATM   14  H   UNL     1      -1.008   3.028 -31.008  1.00  0.00     0.218 HD
ENDBRANCH   8  13
BRANCH   9  15
HETATM   15  C   UNL     1       0.453   5.335 -29.618  1.00  0.00     0.067 C 
BRANCH  15  16
HETATM   16  C   UNL     1       0.093   6.219 -28.455  1.00  0.00    -0.032 C 
HETATM   17  C   UNL     1       0.886   7.181 -27.964  1.00  0.00     0.007 C 
ENDBRANCH  15  16
ENDBRANCH   9  15
ENDBRANCH   6   7
ENDBRANCH   1   5
BRANCH   2  18
HETATM   18  C   UNL     1      -5.928   0.941 -33.591  1.00  0.00     0.061 A 
HETATM   19  C   UNL     1      -5.590  -0.394 -33.898  1.00  0.00     0.058 A 
HETATM   20  C   UNL     1      -6.421  -1.251 -34.619  1.00  0.00    -0.007 A 
HETATM   21  N   UNL     1      -4.452  -1.112 -33.586  1.00  0.00    -0.364 N 
HETATM   22  C   UNL     1      -5.747  -2.499 -34.730  1.00  0.00     0.030 A 
HETATM   23  C   UNL     1      -7.664  -0.769 -35.067  1.00  0.00     0.014 A 
HETATM   24  C   UNL     1      -4.537  -2.383 -34.084  1.00  0.00     0.089 A 
HETATM   25  C   UNL     1      -8.031   0.548 -34.776  1.00  0.00     0.002 A 
HETATM   26  C   UNL     1      -7.181   1.387 -34.051  1.00  0.00     0.019 A 
HETATM   27  H   UNL     1      -3.681  -0.715 -33.058  1.00  0.00     0.165 HD
ENDBRANCH   2  18
TORSDOF 6
ENDMDL
MODEL 4
REMARK VINA RESULT:      -8.2      1.760      9.114
REMARK  6 active torsions:
REMARK  status: ('A' for Active; 'I' for Inactive)
REMARK    1  A    between atoms: C_2  and  C_3 
REMARK    2  A    between atoms: C_3  and  C_4 
REMARK    3  A    between atoms: C_5  and  O_6 
REMARK    4  A    between atoms: C_7  and  C_8 
REMARK    5  A    between atoms: N_9  and  N_10 
REMARK       I    between atoms: N_10  and  C_11 
REMARK    6  A    between atoms: C_11  and  C_12 
ROOT
HETATM    1  N   UNL     1      -2.944   3.999 -31.285  1.00  0.00    -0.243 N 
HETATM    2  C   UNL     1      -1.921   4.873 -31.626  1.00  0.00     0.274 C 
HETATM    3  O   UNL     1      -1.090   4.651 -32.507  1.00  0.00    -0.266 OA
HETATM    4  H   UNL     1      -3.611   4.204 -30.556  1.00  0.00     0.192 HD
ENDROOT
BRANCH   1   5
HETATM    5  N   UNL     1      -3.046   2.804 -31.936  1.00  0.00    -0.183 NA
HETATM    6  C   UNL     1      -3.581   1.836 -31.261  1.00  0.00     0.153 C 
BRANCH   6   7
HETATM    7  C   UNL     1      -3.744   0.486 -31.842  1.00  0.00     0.017 A 
HETATM    8  C   UNL     1      -4.783   0.224 -32.747  1.00  0.00     0.084 A 
HETATM    9  C   UNL     1      -4.935  -1.057 -33.308  1.00  0.00    -0.021 A 
HETATM   10  C   UNL     1      -4.039  -2.070 -32.915  1.00  0.00     0.010 A 
HETATM   11  C   UNL     1      -3.013  -1.812 -32.006  1.00  0.00     0.002 A 
HETATM   12  C   UNL     1      -2.861  -0.535 -31.473  1.00  0.00     0.016 A 
BRANCH   8  13
HETATM   13  O   UNL     1      -5.638   1.246 -33.069  1.00  0.00    -0.359 OA
HETATM   14  H   UNL     1      -5.133   2.074 -33.124  1.00  0.00     0.218 HD
ENDBRANCH   8  13
BRANCH   9  15
HETATM   15  C   UNL     1      -6.002  -1.395 -34.325  1.00  0.00     0.067 C 
BRANCH  15  16
HETATM   16  C   UNL     1      -5.846  -2.778 -34.895  1.00  0.00    -0.032 C 
HETATM   17  C   UNL     1      -6.781  -3.735 -34.823  1.00  0.00     0.007 C 
ENDBRANCH  15  16
ENDBRANCH   9  15
ENDBRANCH   6   7
ENDBRANCH   1   5
BRANCH   2  18
HETATM   18  C   UNL     1      -1.836   6.158 -30.860  1.00  0.00     0.061 A 
HETATM   19  C   UNL     1      -0.905   6.261 -29.805  1.00  0.00     0.058 A 
HETATM   20  C   UNL     1      -0.749   7.408 -29.027  1.00  0.00    -0.007 A 
HETATM   21  N   UNL     1      -0.001   5.331 -29.329  1.00  0.00    -0.364 N 
HETATM   22  C   UNL     1       0.271   7.137 -28.073  1.00  0.00     0.030 A 
HETATM   23  C   UNL     1      -1.557   8.526 -29.301  1.00  0.00     0.014 A 
HETATM   24  C   UNL     1       0.713   5.850 -28.283  1.00  0.00     0.089 A 
HETATM   25  C   UNL     1      -2.487   8.457 -30.342  1.00  0.00     0.002 A 
HETATM   26  C   UNL     1      -2.624   7.296 -31.108  1.00  0.00     0.019 A 
HETATM   27  H   UNL     1       0.091   4.402 -29.727  1.00  0.00     0.165 HD
ENDBRANCH   2  18
TORSDOF 6
ENDMDL
MODEL 5
REMARK VINA RESULT:      -8.2      2.014      9.251
REMARK  6 active torsions:
REMARK  status: ('A' for Active; 'I' for Inactive)
REMARK    1  A    between atoms: C_2  and  C_3 
REMARK    2  A    between atoms: C_3  and  C_4 
REMARK    3  A    between atoms: C_5  and  O_6 
REMARK    4  A    between atoms: C_7  and  C_8 
REMARK    5  A    between atoms: N_9  and  N_10 
REMARK       I    between atoms: N_10  and  C_11 
REMARK    6  A    between atoms: C_11  and  C_12 
ROOT
HETATM    1  N   UNL     1      -2.876   3.419 -31.853  1.00  0.00    -0.243 N 
HETATM    2  C   UNL     1      -2.109   4.458 -32.360  1.00  0.00     0.274 C 
HETATM    3  O   UNL     1      -1.949   4.673 -33.562  1.00  0.00    -0.266 OA
HETATM    4  H   UNL     1      -2.989   3.263 -30.862  1.00  0.00     0.192 HD
ENDROOT
BRANCH   1   5
HETATM    5  N   UNL     1      -3.485   2.555 -32.716  1.00  0.00    -0.183 NA
HETATM    6  C   UNL     1      -4.706   2.233 -32.426  1.00  0.00     0.153 C 
BRANCH   6   7
HETATM    7  C   UNL     1      -5.480   1.298 -33.272  1.00  0.00     0.017 A 
HETATM    8  C   UNL     1      -5.106  -0.050 -33.364  1.00  0.00     0.084 A 
HETATM    9  C   UNL     1      -5.847  -0.943 -34.161  1.00  0.00    -0.021 A 
HETATM   10  C   UNL     1      -6.947  -0.442 -34.881  1.00  0.00     0.010 A 
HETATM   11  C   UNL     1      -7.312   0.902 -34.798  1.00  0.00     0.002 A 
HETATM   12  C   UNL     1      -6.583   1.772 -33.991  1.00  0.00     0.016 A 
BRANCH   8  13
HETATM   13  O   UNL     1      -4.009  -0.470 -32.658  1.00  0.00    -0.359 OA
HETATM   14  H   UNL     1      -4.298  -1.078 -31.958  1.00  0.00     0.218 HD
ENDBRANCH   8  13
BRANCH   9  15
HETATM   15  C   UNL     1      -5.527  -2.418 -34.267  1.00  0.00     0.067 C 
BRANCH  15  16
HETATM   16  C   UNL     1      -6.710  -3.239 -34.701  1.00  0.00    -0.032 C 
HETATM   17  C   UNL     1      -6.623  -4.459 -35.249  1.00  0.00     0.007 C 
ENDBRANCH  15  16
ENDBRANCH   9  15
ENDBRANCH   6   7
ENDBRANCH   1   5
BRANCH   2  18
HETATM   18  C   UNL     1      -1.438   5.360 -31.370  1.00  0.00     0.061 A 
HETATM   19  C   UNL     1      -1.947   6.661 -31.180  1.00  0.00     0.058 A 
HETATM   20  C   UNL     1      -1.393   7.580 -30.289  1.00  0.00    -0.007 A 
HETATM   21  N   UNL     1      -3.023   7.287 -31.778  1.00  0.00    -0.364 N 
HETATM   22  C   UNL     1      -2.168   8.771 -30.373  1.00  0.00     0.030 A 
HETATM   23  C   UNL     1      -0.269   7.199 -29.535  1.00  0.00     0.014 A 
HETATM   24  C   UNL     1      -3.165   8.560 -31.299  1.00  0.00     0.089 A 
HETATM   25  C   UNL     1       0.259   5.915 -29.698  1.00  0.00     0.002 A 
HETATM   26  C   UNL     1      -0.315   5.011 -30.597  1.00  0.00     0.019 A 
HETATM   27  H   UNL     1      -3.605   6.829 -32.474  1.00  0.00     0.165 HD
ENDBRANCH   2  18
TORSDOF 6
ENDMDL
MODEL 6
REMARK VINA RESULT:      -8.0      6.065      9.087
REMARK  6 active torsions:
REMARK  status: ('A' for Active; 'I' for Inactive)
REMARK    1  A    between atoms: C_2  and  C_3 
REMARK    2  A    between atoms: C_3  and  C_4 
REMARK    3  A    between atoms: C_5  and  O_6 
REMARK    4  A    between atoms: C_7  and  C_8 
REMARK    5  A    between atoms: N_9  and  N_10 
REMARK       I    between atoms: N_10  and  C_11 
REMARK    6  A    between atoms: C_11  and  C_12 
ROOT
HETATM    1  N   UNL     1      -7.501  -0.166 -33.273  1.00  0.00    -0.243 N 
HETATM    2  C   UNL     1      -6.510  -0.791 -34.016  1.00  0.00     0.274 C 
HETATM    3  O   UNL     1      -6.571  -0.970 -35.233  1.00  0.00    -0.266 OA
HETATM    4  H   UNL     1      -7.428  -0.034 -32.275  1.00  0.00     0.192 HD
ENDROOT
BRANCH   1   5
HETATM    5  N   UNL     1      -8.633   0.269 -33.900  1.00  0.00    -0.183 NA
HETATM    6  C   UNL     1      -9.693   0.349 -33.160  1.00  0.00     0.153 C 
BRANCH   6   7
HETATM    7  C   UNL     1     -10.990   0.796 -33.714  1.00  0.00     0.017 A 
HETATM    8  C   UNL     1     -11.056   1.931 -34.536  1.00  0.00     0.084 A 
HETATM    9  C   UNL     1     -12.287   2.354 -35.070  1.00  0.00    -0.021 A 
HETATM   10  C   UNL     1     -13.447   1.628 -34.735  1.00  0.00     0.010 A 
HETATM   11  C   UNL     1     -13.381   0.506 -33.909  1.00  0.00     0.002 A 
HETATM   12  C   UNL     1     -12.154   0.087 -33.402  1.00  0.00     0.016 A 
BRANCH   8  13
HETATM   13  O   UNL     1      -9.895   2.609 -34.803  1.00  0.00    -0.359 OA
HETATM   14  H   UNL     1      -9.668   3.160 -34.036  1.00  0.00     0.218 HD
ENDBRANCH   8  13
BRANCH   9  15
HETATM   15  C   UNL     1     -12.423   3.538 -36.001  1.00  0.00     0.067 C 
BRANCH  15  16
HETATM   16  C   UNL     1     -12.536   4.846 -35.266  1.00  0.00    -0.032 C 
HETATM   17  C   UNL     1     -13.297   5.874 -35.666  1.00  0.00     0.007 C 
ENDBRANCH  15  16
ENDBRANCH   9  15
ENDBRANCH   6   7
ENDBRANCH   1   5
BRANCH   2  18
HETATM   18  C   UNL     1      -5.302  -1.276 -33.275  1.00  0.00     0.061 A 
HETATM   19  C   UNL     1      -4.816  -2.574 -33.541  1.00  0.00     0.058 A 
HETATM   20  C   UNL     1      -3.704  -3.123 -32.904  1.00  0.00    -0.007 A 
HETATM   21  N   UNL     1      -5.283  -3.531 -34.421  1.00  0.00    -0.364 N 
HETATM   22  C   UNL     1      -3.522  -4.435 -33.425  1.00  0.00     0.030 A 
HETATM   23  C   UNL     1      -3.024  -2.352 -31.944  1.00  0.00     0.014 A 
HETATM   24  C   UNL     1      -4.510  -4.657 -34.358  1.00  0.00     0.089 A 
HETATM   25  C   UNL     1      -3.479  -1.061 -31.660  1.00  0.00     0.002 A 
HETATM   26  C   UNL     1      -4.596  -0.532 -32.313  1.00  0.00     0.019 A 
HETATM   27  H   UNL     1      -6.093  -3.380 -35.015  1.00  0.00     0.165 HD
ENDBRANCH   2  18
TORSDOF 6
ENDMDL
MODEL 7
REMARK VINA RESULT:      -8.0      1.578      8.857
REMARK  6 active torsions:
REMARK  status: ('A' for Active; 'I' for Inactive)
REMARK    1  A    between atoms: C_2  and  C_3 
REMARK    2  A    between atoms: C_3  and  C_4 
REMARK    3  A    between atoms: C_5  and  O_6 
REMARK    4  A    between atoms: C_7  and  C_8 
REMARK    5  A    between atoms: N_9  and  N_10 
REMARK       I    between atoms: N_10  and  C_11 
REMARK    6  A    between atoms: C_11  and  C_12 
ROOT
HETATM    1  N   UNL     1      -2.730   3.810 -31.265  1.00  0.00    -0.243 N 
HETATM    2  C   UNL     1      -1.983   4.818 -31.859  1.00  0.00     0.274 C 
HETATM    3  O   UNL     1      -1.525   4.754 -33.000  1.00  0.00    -0.266 OA
HETATM    4  H   UNL     1      -3.092   3.886 -30.326  1.00  0.00     0.192 HD
ENDROOT
BRANCH   1   5
HETATM    5  N   UNL     1      -2.969   2.659 -31.958  1.00  0.00    -0.183 NA
HETATM    6  C   UNL     1      -4.028   1.999 -31.609  1.00  0.00     0.153 C 
BRANCH   6   7
HETATM    7  C   UNL     1      -4.401   0.730 -32.271  1.00  0.00     0.017 A 
HETATM    8  C   UNL     1      -3.701  -0.452 -31.984  1.00  0.00     0.084 A 
HETATM    9  C   UNL     1      -4.059  -1.662 -32.605  1.00  0.00    -0.021 A 
HETATM   10  C   UNL     1      -5.112  -1.648 -33.540  1.00  0.00     0.010 A 
HETATM   11  C   UNL     1      -5.800  -0.470 -33.833  1.00  0.00     0.002 A 
HETATM   12  C   UNL     1      -5.449   0.717 -33.197  1.00  0.00     0.016 A 
BRANCH   8  13
HETATM   13  O   UNL     1      -2.668  -0.394 -31.084  1.00  0.00    -0.359 OA
HETATM   14  H   UNL     1      -3.029  -0.459 -30.185  1.00  0.00     0.218 HD
ENDBRANCH   8  13
BRANCH   9  15
HETATM   15  C   UNL     1      -3.379  -2.979 -32.306  1.00  0.00     0.067 C 
BRANCH  15  16
HETATM   16  C   UNL     1      -3.451  -3.946 -33.456  1.00  0.00    -0.032 C 
HETATM   17  C   UNL     1      -3.941  -5.190 -33.368  1.00  0.00     0.007 C 
ENDBRANCH  15  16
ENDBRANCH   9  15
ENDBRANCH   6   7
ENDBRANCH   1   5
BRANCH   2  18
HETATM   18  C   UNL     1      -1.724   6.048 -31.045  1.00  0.00     0.061 A 
HETATM   19  C   UNL     1      -0.736   6.004 -30.039  1.00  0.00     0.058 A 
HETATM   20  C   UNL     1      -0.421   7.090 -29.223  1.00  0.00    -0.007 A 
HETATM   21  N   UNL     1       0.088   4.964 -29.654  1.00  0.00    -0.364 N 
HETATM   22  C   UNL     1       0.612   6.669 -28.339  1.00  0.00     0.030 A 
HETATM   23  C   UNL     1      -1.119   8.297 -29.404  1.00  0.00     0.014 A 
HETATM   24  C   UNL     1       0.905   5.355 -28.629  1.00  0.00     0.089 A 
HETATM   25  C   UNL     1      -2.103   8.375 -30.394  1.00  0.00     0.002 A 
HETATM   26  C   UNL     1      -2.400   7.273 -31.200  1.00  0.00     0.019 A 
HETATM   27  H   UNL     1       0.061   4.051 -30.097  1.00  0.00     0.165 HD
ENDBRANCH   2  18
TORSDOF 6
ENDMDL
MODEL 8
REMARK VINA RESULT:      -7.9      2.148      8.940
REMARK  6 active torsions:
REMARK  status: ('A' for Active; 'I' for Inactive)
REMARK    1  A    between atoms: C_2  and  C_3 
REMARK    2  A    between atoms: C_3  and  C_4 
REMARK    3  A    between atoms: C_5  and  O_6 
REMARK    4  A    between atoms: C_7  and  C_8 
REMARK    5  A    between atoms: N_9  and  N_10 
REMARK       I    between atoms: N_10  and  C_11 
REMARK    6  A    between atoms: C_11  and  C_12 
ROOT
HETATM    1  N   UNL     1      -4.717   4.074 -31.873  1.00  0.00    -0.243 N 
HETATM    2  C   UNL     1      -3.348   4.300 -31.866  1.00  0.00     0.274 C 
HETATM    3  O   UNL     1      -2.507   3.446 -32.150  1.00  0.00    -0.266 OA
HETATM    4  H   UNL     1      -5.385   4.792 -31.633  1.00  0.00     0.192 HD
ENDROOT
BRANCH   1   5
HETATM    5  N   UNL     1      -5.188   2.834 -32.191  1.00  0.00    -0.183 NA
HETATM    6  C   UNL     1      -5.671   2.701 -33.386  1.00  0.00     0.153 C 
BRANCH   6   7
HETATM    7  C   UNL     1      -6.224   1.412 -33.858  1.00  0.00     0.017 A 
HETATM    8  C   UNL     1      -5.491   0.226 -33.701  1.00  0.00     0.084 A 
HETATM    9  C   UNL     1      -6.019  -1.001 -34.141  1.00  0.00    -0.021 A 
HETATM   10  C   UNL     1      -7.280  -1.002 -34.766  1.00  0.00     0.010 A 
HETATM   11  C   UNL     1      -8.003   0.180 -34.932  1.00  0.00     0.002 A 
HETATM   12  C   UNL     1      -7.479   1.385 -34.474  1.00  0.00     0.016 A 
BRANCH   8  13
HETATM   13  O   UNL     1      -4.257   0.298 -33.108  1.00  0.00    -0.359 OA
HETATM   14  H   UNL     1      -3.917   1.203 -33.196  1.00  0.00     0.218 HD
ENDBRANCH   8  13
BRANCH   9  15
HETATM   15  C   UNL     1      -5.304  -2.322 -33.960  1.00  0.00     0.067 C 
BRANCH  15  16
HETATM   16  C   UNL     1      -5.605  -3.302 -35.060  1.00  0.00    -0.032 C 
HETATM   17  C   UNL     1      -6.172  -4.501 -34.870  1.00  0.00     0.007 C 
ENDBRANCH  15  16
ENDBRANCH   9  15
ENDBRANCH   6   7
ENDBRANCH   1   5
BRANCH   2  18
HETATM   18  C   UNL     1      -2.882   5.670 -31.481  1.00  0.00     0.061 A 
HETATM   19  C   UNL     1      -1.647   5.807 -30.814  1.00  0.00     0.058 A 
HETATM   20  C   UNL     1      -1.125   7.035 -30.407  1.00  0.00    -0.007 A 
HETATM   21  N   UNL     1      -0.734   4.842 -30.435  1.00  0.00    -0.364 N 
HETATM   22  C   UNL     1       0.123   6.775 -29.773  1.00  0.00     0.030 A 
HETATM   23  C   UNL     1      -1.860   8.204 -30.672  1.00  0.00     0.014 A 
HETATM   24  C   UNL     1       0.336   5.415 -29.806  1.00  0.00     0.089 A 
HETATM   25  C   UNL     1      -3.087   8.103 -31.334  1.00  0.00     0.002 A 
HETATM   26  C   UNL     1      -3.589   6.861 -31.733  1.00  0.00     0.019 A 
HETATM   27  H   UNL     1      -0.876   3.853 -30.617  1.00  0.00     0.165 HD
ENDBRANCH   2  18
TORSDOF 6
ENDMDL
MODEL 9
REMARK VINA RESULT:      -7.7      6.434      9.682
REMARK  6 active torsions:
REMARK  status: ('A' for Active; 'I' for Inactive)
REMARK    1  A    between atoms: C_2  and  C_3 
REMARK    2  A    between atoms: C_3  and  C_4 
REMARK    3  A    between atoms: C_5  and  O_6 
REMARK    4  A    between atoms: C_7  and  C_8 
REMARK    5  A    between atoms: N_9  and  N_10 
REMARK       I    between atoms: N_10  and  C_11 
REMARK    6  A    between atoms: C_11  and  C_12 
ROOT
HETATM    1  N   UNL     1      -8.223   0.257 -34.397  1.00  0.00    -0.243 N 
HETATM    2  C   UNL     1      -7.451  -0.197 -33.336  1.00  0.00     0.274 C 
HETATM    3  O   UNL     1      -7.577   0.195 -32.175  1.00  0.00    -0.266 OA
HETATM    4  H   UNL     1      -8.097  -0.079 -35.340  1.00  0.00     0.192 HD
ENDROOT
BRANCH   1   5
HETATM    5  N   UNL     1      -9.173   1.210 -34.172  1.00  0.00    -0.183 NA
HETATM    6  C   UNL     1     -10.342   0.772 -33.824  1.00  0.00     0.153 C 
BRANCH   6   7
HETATM    7  C   UNL     1     -11.466   1.697 -33.559  1.00  0.00     0.017 A 
HETATM    8  C   UNL     1     -12.787   1.226 -33.563  1.00  0.00     0.084 A 
HETATM    9  C   UNL     1     -13.857   2.102 -33.303  1.00  0.00    -0.021 A 
HETATM   10  C   UNL     1     -13.568   3.460 -33.070  1.00  0.00     0.010 A 
HETATM   11  C   UNL     1     -12.255   3.930 -33.078  1.00  0.00     0.002 A 
HETATM   12  C   UNL     1     -11.203   3.049 -33.317  1.00  0.00     0.016 A 
BRANCH   8  13
HETATM   13  O   UNL     1     -13.003  -0.102 -33.823  1.00  0.00    -0.359 OA
HETATM   14  H   UNL     1     -13.831  -0.377 -33.395  1.00  0.00     0.218 HD
ENDBRANCH   8  13
BRANCH   9  15
HETATM   15  C   UNL     1     -15.300   1.652 -33.244  1.00  0.00     0.067 C 
BRANCH  15  16
HETATM   16  C   UNL     1     -16.023   2.173 -32.033  1.00  0.00    -0.032 C 
HETATM   17  C   UNL     1     -17.194   2.824 -32.074  1.00  0.00     0.007 C 
ENDBRANCH  15  16
ENDBRANCH   9  15
ENDBRANCH   6   7
ENDBRANCH   1   5
BRANCH   2  18
HETATM   18  C   UNL     1      -6.402  -1.221 -33.642  1.00  0.00     0.061 A 
HETATM   19  C   UNL     1      -5.188  -1.188 -32.923  1.00  0.00     0.058 A 
HETATM   20  C   UNL     1      -4.146  -2.090 -33.134  1.00  0.00    -0.007 A 
HETATM   21  N   UNL     1      -4.775  -0.329 -31.924  1.00  0.00    -0.364 N 
HETATM   22  C   UNL     1      -3.099  -1.745 -32.234  1.00  0.00     0.030 A 
HETATM   23  C   UNL     1      -4.303  -3.089 -34.111  1.00  0.00     0.014 A 
HETATM   24  C   UNL     1      -3.516  -0.656 -31.502  1.00  0.00     0.089 A 
HETATM   25  C   UNL     1      -5.495  -3.151 -34.839  1.00  0.00     0.002 A 
HETATM   26  C   UNL     1      -6.526  -2.236 -34.609  1.00  0.00     0.019 A 
HETATM   27  H   UNL     1      -5.356   0.429 -31.577  1.00  0.00     0.165 HD
ENDBRANCH   2  18
TORSDOF 6
ENDMDL
MODEL 10
REMARK VINA RESULT:      -7.6      2.021      9.163
REMARK  6 active torsions:
REMARK  status: ('A' for Active; 'I' for Inactive)
REMARK    1  A    between atoms: C_2  and  C_3 
REMARK    2  A    between atoms: C_3  and  C_4 
REMARK    3  A    between atoms: C_5  and  O_6 
REMARK    4  A    between atoms: C_7  and  C_8 
REMARK    5  A    between atoms: N_9  and  N_10 
REMARK       I    between atoms: N_10  and  C_11 
REMARK    6  A    between atoms: C_11  and  C_12 
ROOT
HETATM    1  N   UNL     1      -2.485   3.726 -31.206  1.00  0.00    -0.243 N 
HETATM    2  C   UNL     1      -1.719   4.758 -31.728  1.00  0.00     0.274 C 
HETATM    3  O   UNL     1      -1.475   4.896 -32.928  1.00  0.00    -0.266 OA
HETATM    4  H   UNL     1      -2.668   3.633 -30.218  1.00  0.00     0.192 HD
ENDROOT
BRANCH   1   5
HETATM    5  N   UNL     1      -2.996   2.780 -32.048  1.00  0.00    -0.183 NA
HETATM    6  C   UNL     1      -3.573   1.769 -31.479  1.00  0.00     0.153 C 
BRANCH   6   7
HETATM    7  C   UNL     1      -4.161   0.668 -32.272  1.00  0.00     0.017 A 
HETATM    8  C   UNL     1      -5.210   0.922 -33.168  1.00  0.00     0.084 A 
HETATM    9  C   UNL     1      -5.765  -0.123 -33.930  1.00  0.00    -0.021 A 
HETATM   10  C   UNL     1      -5.263  -1.426 -33.746  1.00  0.00     0.010 A 
HETATM   11  C   UNL     1      -4.227  -1.678 -32.846  1.00  0.00     0.002 A 
HETATM   12  C   UNL     1      -3.673  -0.633 -32.113  1.00  0.00     0.016 A 
BRANCH   8  13
HETATM   13  O   UNL     1      -5.672   2.207 -33.282  1.00  0.00    -0.359 OA
HETATM   14  H   UNL     1      -5.052   2.718 -33.828  1.00  0.00     0.218 HD
ENDBRANCH   8  13
BRANCH   9  15
HETATM   15  C   UNL     1      -6.863   0.088 -34.949  1.00  0.00     0.067 C 
BRANCH  15  16
HETATM   16  C   UNL     1      -8.238   0.035 -34.341  1.00  0.00    -0.032 C 
HETATM   17  C   UNL     1      -9.074   1.080 -34.270  1.00  0.00     0.007 C 
ENDBRANCH  15  16
ENDBRANCH   9  15
ENDBRANCH   6   7
ENDBRANCH   1   5
BRANCH   2  18
HETATM   18  C   UNL     1      -1.156   5.751 -30.759  1.00  0.00     0.061 A 
HETATM   19  C   UNL     1      -1.742   7.032 -30.680  1.00  0.00     0.058 A 
HETATM   20  C   UNL     1      -1.292   8.030 -29.817  1.00  0.00    -0.007 A 
HETATM   21  N   UNL     1      -2.810   7.561 -31.377  1.00  0.00    -0.364 N 
HETATM   22  C   UNL     1      -2.120   9.170 -30.020  1.00  0.00     0.030 A 
HETATM   23  C   UNL     1      -0.198   7.756 -28.976  1.00  0.00     0.014 A 
HETATM   24  C   UNL     1      -3.046   8.851 -30.987  1.00  0.00     0.089 A 
HETATM   25  C   UNL     1       0.403   6.495 -29.028  1.00  0.00     0.002 A 
HETATM   26  C   UNL     1      -0.067   5.510 -29.902  1.00  0.00     0.019 A 
HETATM   27  H   UNL     1      -3.324   7.032 -32.076  1.00  0.00     0.165 HD
ENDBRANCH   2  18
TORSDOF 6
ENDMDL
