MODEL 1
REMARK VINA RESULT:      -8.5      0.000      0.000
REMARK  5 active torsions:
REMARK  status: ('A' for Active; 'I' for Inactive)
REMARK    1  A    between atoms: C_3  and  O_4 
REMARK    2  A    between atoms: O_4  and  C_5 
REMARK    3  A    between atoms: C_14  and  N_15 
REMARK       I    between atoms: N_15  and  C_16 
REMARK    4  A    between atoms: C_16  and  C_17 
REMARK    5  A    between atoms: C_17  and  C_18 
ROOT
HETATM    1  C   UNL     1      -6.118  -0.079 -32.873  1.00  0.00     0.076 A 
HETATM    2  C   UNL     1      -4.937  -0.815 -33.004  1.00  0.00     0.039 A 
HETATM    3  C   UNL     1      -4.941  -2.016 -33.718  1.00  0.00     0.025 A 
HETATM    4  C   UNL     1      -6.130  -2.494 -34.282  1.00  0.00     0.044 A 
HETATM    5  C   UNL     1      -6.133  -3.725 -35.018  1.00  0.00     0.099 C 
HETATM    6  N   UNL     1      -6.136  -4.722 -35.612  1.00  0.00    -0.191 NA
HETATM    7  C   UNL     1      -7.316  -1.770 -34.119  1.00  0.00     0.025 A 
HETATM    8  C   UNL     1      -7.311  -0.566 -33.409  1.00  0.00     0.039 A 
ENDROOT
BRANCH   1   9
HETATM    9  O   UNL     1      -6.187   1.104 -32.172  1.00  0.00    -0.311 OA
BRANCH   9  10
HETATM   10  C   UNL     1      -5.530   2.196 -32.697  1.00  0.00     0.078 A 
HETATM   11  C   UNL     1      -6.227   2.952 -33.637  1.00  0.00     0.037 A 
HETATM   12  C   UNL     1      -5.621   4.066 -34.213  1.00  0.00     0.005 A 
HETATM   13  C   UNL     1      -4.317   4.416 -33.849  1.00  0.00     0.029 A 
HETATM   14  C   UNL     1      -3.598   3.646 -32.925  1.00  0.00     0.037 A 
HETATM   15  C   UNL     1      -4.208   2.520 -32.368  1.00  0.00     0.066 A 
BRANCH  14  16
HETATM   16  N   UNL     1      -2.296   4.081 -32.596  1.00  0.00    -0.327 N 
HETATM   17  C   UNL     1      -1.941   5.023 -31.644  1.00  0.00     0.227 C 
HETATM   18  O   UNL     1      -2.704   5.586 -30.861  1.00  0.00    -0.273 OA
HETATM   19  H   UNL     1      -1.546   3.668 -33.135  1.00  0.00     0.169 HD
BRANCH  17  20
HETATM   20  C   UNL     1      -0.444   5.341 -31.633  1.00  0.00     0.159 C 
BRANCH  20  21
HETATM   21  C   UNL     1      -0.030   5.975 -30.341  1.00  0.00     0.017 A 
HETATM   22  N   UNL     1      -0.006   5.271 -29.156  1.00  0.00    -0.369 N 
HETATM   23  H   UNL     1      -0.293   4.301 -29.057  1.00  0.00     0.165 HD
HETATM   24  C   UNL     1       0.418   6.087 -28.143  1.00  0.00     0.088 A 
HETATM   25  C   UNL     1       0.685   7.326 -28.678  1.00  0.00     0.019 A 
HETATM   26  C   UNL     1       0.406   7.257 -30.064  1.00  0.00     0.027 A 
ENDBRANCH  20  21
ENDBRANCH  17  20
ENDBRANCH  14  16
ENDBRANCH   9  10
ENDBRANCH   1   9
TORSDOF 5
ENDMDL
MODEL 2
REMARK VINA RESULT:      -8.4      1.301      1.674
REMARK  5 active torsions:
REMARK  status: ('A' for Active; 'I' for Inactive)
REMARK    1  A    between atoms: C_3  and  O_4 
REMARK    2  A    between atoms: O_4  and  C_5 
REMARK    3  A    between atoms: C_14  and  N_15 
REMARK       I    between atoms: N_15  and  C_16 
REMARK    4  A    between atoms: C_16  and  C_17 
REMARK    5  A    between atoms: C_17  and  C_18 
ROOT
HETATM    1  C   UNL     1      -6.030  -0.064 -34.098  1.00  0.00     0.076 A 
HETATM    2  C   UNL     1      -4.864  -0.725 -33.700  1.00  0.00     0.039 A 
HETATM    3  C   UNL     1      -4.730  -2.098 -33.928  1.00  0.00     0.025 A 
HETATM    4  C   UNL     1      -5.770  -2.814 -34.531  1.00  0.00     0.044 A 
HETATM    5  C   UNL     1      -5.631  -4.222 -34.768  1.00  0.00     0.099 C 
HETATM    6  N   UNL     1      -5.520  -5.361 -34.958  1.00  0.00    -0.191 NA
HETATM    7  C   UNL     1      -6.948  -2.153 -34.898  1.00  0.00     0.025 A 
HETATM    8  C   UNL     1      -7.080  -0.780 -34.674  1.00  0.00     0.039 A 
ENDROOT
BRANCH   1   9
HETATM    9  O   UNL     1      -6.232   1.282 -33.893  1.00  0.00    -0.311 OA
BRANCH   9  10
HETATM   10  C   UNL     1      -5.764   1.826 -32.715  1.00  0.00     0.078 A 
HETATM   11  C   UNL     1      -6.629   1.787 -31.623  1.00  0.00     0.037 A 
HETATM   12  C   UNL     1      -6.223   2.324 -30.404  1.00  0.00     0.005 A 
HETATM   13  C   UNL     1      -4.955   2.901 -30.283  1.00  0.00     0.029 A 
HETATM   14  C   UNL     1      -4.089   2.968 -31.384  1.00  0.00     0.037 A 
HETATM   15  C   UNL     1      -4.513   2.445 -32.607  1.00  0.00     0.066 A 
BRANCH  14  16
HETATM   16  N   UNL     1      -2.819   3.546 -31.171  1.00  0.00    -0.327 N 
HETATM   17  C   UNL     1      -2.417   4.833 -31.492  1.00  0.00     0.227 C 
HETATM   18  O   UNL     1      -3.133   5.724 -31.947  1.00  0.00    -0.273 OA
HETATM   19  H   UNL     1      -2.125   2.939 -30.756  1.00  0.00     0.169 HD
BRANCH  17  20
HETATM   20  C   UNL     1      -0.931   5.088 -31.230  1.00  0.00     0.159 C 
BRANCH  20  21
HETATM   21  C   UNL     1      -0.735   6.152 -30.194  1.00  0.00     0.017 A 
HETATM   22  N   UNL     1      -1.708   6.459 -29.267  1.00  0.00    -0.369 N 
HETATM   23  H   UNL     1      -2.626   6.025 -29.232  1.00  0.00     0.165 HD
HETATM   24  C   UNL     1      -1.261   7.454 -28.441  1.00  0.00     0.088 A 
HETATM   25  C   UNL     1       0.017   7.786 -28.827  1.00  0.00     0.019 A 
HETATM   26  C   UNL     1       0.352   6.964 -29.931  1.00  0.00     0.027 A 
ENDBRANCH  20  21
ENDBRANCH  17  20
ENDBRANCH  14  16
ENDBRANCH   9  10
ENDBRANCH   1   9
TORSDOF 5
ENDMDL
MODEL 3
REMARK VINA RESULT:      -8.2      1.259      1.665
REMARK  5 active torsions:
REMARK  status: ('A' for Active; 'I' for Inactive)
REMARK    1  A    between atoms: C_3  and  O_4 
REMARK    2  A    between atoms: O_4  and  C_5 
REMARK    3  A    between atoms: C_14  and  N_15 
REMARK       I    between atoms: N_15  and  C_16 
REMARK    4  A    between atoms: C_16  and  C_17 
REMARK    5  A    between atoms: C_17  and  C_18 
ROOT
HETATM    1  C   UNL     1      -5.915   1.786 -33.378  1.00  0.00     0.076 A 
HETATM    2  C   UNL     1      -5.134   0.803 -32.762  1.00  0.00     0.039 A 
HETATM    3  C   UNL     1      -5.218  -0.523 -33.192  1.00  0.00     0.025 A 
HETATM    4  C   UNL     1      -6.100  -0.873 -34.221  1.00  0.00     0.044 A 
HETATM    5  C   UNL     1      -6.184  -2.234 -34.665  1.00  0.00     0.099 C 
HETATM    6  N   UNL     1      -6.254  -3.336 -35.022  1.00  0.00    -0.191 NA
HETATM    7  C   UNL     1      -6.904   0.109 -34.811  1.00  0.00     0.025 A 
HETATM    8  C   UNL     1      -6.815   1.437 -34.385  1.00  0.00     0.039 A 
ENDROOT
BRANCH   1   9
HETATM    9  O   UNL     1      -5.890   3.109 -32.995  1.00  0.00    -0.311 OA
BRANCH   9  10
HETATM   10  C   UNL     1      -4.794   3.859 -33.364  1.00  0.00     0.078 A 
HETATM   11  C   UNL     1      -4.865   4.505 -34.597  1.00  0.00     0.037 A 
HETATM   12  C   UNL     1      -3.791   5.275 -35.034  1.00  0.00     0.005 A 
HETATM   13  C   UNL     1      -2.648   5.393 -34.239  1.00  0.00     0.029 A 
HETATM   14  C   UNL     1      -2.556   4.726 -33.010  1.00  0.00     0.037 A 
HETATM   15  C   UNL     1      -3.631   3.940 -32.589  1.00  0.00     0.066 A 
BRANCH  14  16
HETATM   16  N   UNL     1      -1.377   4.916 -32.258  1.00  0.00    -0.327 N 
HETATM   17  C   UNL     1      -1.186   5.791 -31.201  1.00  0.00     0.227 C 
HETATM   18  O   UNL     1      -2.048   6.498 -30.681  1.00  0.00    -0.273 OA
HETATM   19  H   UNL     1      -0.580   4.362 -32.544  1.00  0.00     0.169 HD
BRANCH  17  20
HETATM   20  C   UNL     1       0.257   5.824 -30.692  1.00  0.00     0.159 C 
BRANCH  20  21
HETATM   21  C   UNL     1       0.335   6.397 -29.310  1.00  0.00     0.017 A 
HETATM   22  N   UNL     1      -0.074   5.690 -28.201  1.00  0.00    -0.369 N 
HETATM   23  H   UNL     1      -0.484   4.761 -28.231  1.00  0.00     0.165 HD
HETATM   24  C   UNL     1       0.118   6.444 -27.076  1.00  0.00     0.088 A 
HETATM   25  C   UNL     1       0.670   7.645 -27.458  1.00  0.00     0.019 A 
HETATM   26  C   UNL     1       0.810   7.616 -28.866  1.00  0.00     0.027 A 
ENDBRANCH  20  21
ENDBRANCH  17  20
ENDBRANCH  14  16
ENDBRANCH   9  10
ENDBRANCH   1   9
TORSDOF 5
ENDMDL
MODEL 4
REMARK VINA RESULT:      -7.7      5.032      8.338
REMARK  5 active torsions:
REMARK  status: ('A' for Active; 'I' for Inactive)
REMARK    1  A    between atoms: C_3  and  O_4 
REMARK    2  A    between atoms: O_4  and  C_5 
REMARK    3  A    between atoms: C_14  and  N_15 
REMARK       I    between atoms: N_15  and  C_16 
REMARK    4  A    between atoms: C_16  and  C_17 
REMARK    5  A    between atoms: C_17  and  C_18 
ROOT
HETATM    1  C   UNL     1      -5.749   0.083 -33.744  1.00  0.00     0.076 A 
HETATM    2  C   UNL     1      -6.818  -0.499 -34.434  1.00  0.00     0.039 A 
HETATM    3  C   UNL     1      -6.780  -1.859 -34.754  1.00  0.00     0.025 A 
HETATM    4  C   UNL     1      -5.666  -2.631 -34.408  1.00  0.00     0.044 A 
HETATM    5  C   UNL     1      -5.630  -4.028 -34.735  1.00  0.00     0.099 C 
HETATM    6  N   UNL     1      -5.599  -5.157 -35.001  1.00  0.00    -0.191 NA
HETATM    7  C   UNL     1      -4.585  -2.036 -33.748  1.00  0.00     0.025 A 
HETATM    8  C   UNL     1      -4.625  -0.678 -33.422  1.00  0.00     0.039 A 
ENDROOT
BRANCH   1   9
HETATM    9  O   UNL     1      -5.716   1.418 -33.408  1.00  0.00    -0.311 OA
BRANCH   9  10
HETATM   10  C   UNL     1      -6.632   1.866 -32.481  1.00  0.00     0.078 A 
HETATM   11  C   UNL     1      -6.140   2.171 -31.214  1.00  0.00     0.037 A 
HETATM   12  C   UNL     1      -7.012   2.624 -30.226  1.00  0.00     0.005 A 
HETATM   13  C   UNL     1      -8.373   2.764 -30.510  1.00  0.00     0.029 A 
HETATM   14  C   UNL     1      -8.882   2.434 -31.774  1.00  0.00     0.037 A 
HETATM   15  C   UNL     1      -8.003   1.963 -32.751  1.00  0.00     0.066 A 
BRANCH  14  16
HETATM   16  N   UNL     1     -10.264   2.627 -31.984  1.00  0.00    -0.327 N 
HETATM   17  C   UNL     1     -10.877   3.691 -32.625  1.00  0.00     0.227 C 
HETATM   18  O   UNL     1     -10.305   4.618 -33.197  1.00  0.00    -0.273 OA
HETATM   19  H   UNL     1     -10.870   1.912 -31.601  1.00  0.00     0.169 HD
BRANCH  17  20
HETATM   20  C   UNL     1     -12.405   3.637 -32.568  1.00  0.00     0.159 C 
BRANCH  20  21
HETATM   21  C   UNL     1     -12.933   2.413 -33.251  1.00  0.00     0.017 A 
HETATM   22  N   UNL     1     -13.839   1.570 -32.644  1.00  0.00    -0.369 N 
HETATM   23  H   UNL     1     -14.187   1.687 -31.696  1.00  0.00     0.165 HD
HETATM   24  C   UNL     1     -14.156   0.545 -33.493  1.00  0.00     0.088 A 
HETATM   25  C   UNL     1     -13.461   0.733 -34.665  1.00  0.00     0.019 A 
HETATM   26  C   UNL     1     -12.691   1.911 -34.516  1.00  0.00     0.027 A 
ENDBRANCH  20  21
ENDBRANCH  17  20
ENDBRANCH  14  16
ENDBRANCH   9  10
ENDBRANCH   1   9
TORSDOF 5
ENDMDL
MODEL 5
REMARK VINA RESULT:      -7.7      5.431      8.760
REMARK  5 active torsions:
REMARK  status: ('A' for Active; 'I' for Inactive)
REMARK    1  A    between atoms: C_3  and  O_4 
REMARK    2  A    between atoms: O_4  and  C_5 
REMARK    3  A    between atoms: C_14  and  N_15 
REMARK       I    between atoms: N_15  and  C_16 
REMARK    4  A    between atoms: C_16  and  C_17 
REMARK    5  A    between atoms: C_17  and  C_18 
ROOT
HETATM    1  C   UNL     1      -5.505  -0.142 -33.535  1.00  0.00     0.076 A 
HETATM    2  C   UNL     1      -4.506  -0.908 -32.925  1.00  0.00     0.039 A 
HETATM    3  C   UNL     1      -4.356  -2.254 -33.266  1.00  0.00     0.025 A 
HETATM    4  C   UNL     1      -5.218  -2.843 -34.198  1.00  0.00     0.044 A 
HETATM    5  C   UNL     1      -5.061  -4.225 -34.551  1.00  0.00     0.099 C 
HETATM    6  N   UNL     1      -4.936  -5.343 -34.835  1.00  0.00    -0.191 NA
HETATM    7  C   UNL     1      -6.237  -2.081 -34.781  1.00  0.00     0.025 A 
HETATM    8  C   UNL     1      -6.384  -0.733 -34.444  1.00  0.00     0.039 A 
ENDROOT
BRANCH   1   9
HETATM    9  O   UNL     1      -5.716   1.185 -33.236  1.00  0.00    -0.311 OA
BRANCH   9  10
HETATM   10  C   UNL     1      -6.908   1.521 -32.631  1.00  0.00     0.078 A 
HETATM   11  C   UNL     1      -6.835   2.403 -31.555  1.00  0.00     0.037 A 
HETATM   12  C   UNL     1      -8.000   2.781 -30.893  1.00  0.00     0.005 A 
HETATM   13  C   UNL     1      -9.234   2.271 -31.307  1.00  0.00     0.029 A 
HETATM   14  C   UNL     1      -9.315   1.362 -32.372  1.00  0.00     0.037 A 
HETATM   15  C   UNL     1      -8.138   0.975 -33.016  1.00  0.00     0.066 A 
BRANCH  14  16
HETATM   16  N   UNL     1     -10.601   0.913 -32.741  1.00  0.00    -0.327 N 
HETATM   17  C   UNL     1     -11.428   1.444 -33.718  1.00  0.00     0.227 C 
HETATM   18  O   UNL     1     -11.142   2.356 -34.492  1.00  0.00    -0.273 OA
HETATM   19  H   UNL     1     -10.959   0.127 -32.214  1.00  0.00     0.169 HD
BRANCH  17  20
HETATM   20  C   UNL     1     -12.806   0.782 -33.772  1.00  0.00     0.159 C 
BRANCH  20  21
HETATM   21  C   UNL     1     -13.837   1.611 -33.069  1.00  0.00     0.017 A 
HETATM   22  N   UNL     1     -13.499   2.708 -32.307  1.00  0.00    -0.369 N 
HETATM   23  H   UNL     1     -12.546   3.016 -32.135  1.00  0.00     0.165 HD
HETATM   24  C   UNL     1     -14.630   3.280 -31.793  1.00  0.00     0.088 A 
HETATM   25  C   UNL     1     -15.712   2.557 -32.238  1.00  0.00     0.019 A 
HETATM   26  C   UNL     1     -15.215   1.505 -33.044  1.00  0.00     0.027 A 
ENDBRANCH  20  21
ENDBRANCH  17  20
ENDBRANCH  14  16
ENDBRANCH   9  10
ENDBRANCH   1   9
TORSDOF 5
ENDMDL
MODEL 6
REMARK VINA RESULT:      -7.7      4.574      9.576
REMARK  5 active torsions:
REMARK  status: ('A' for Active; 'I' for Inactive)
REMARK    1  A    between atoms: C_3  and  O_4 
REMARK    2  A    between atoms: O_4  and  C_5 
REMARK    3  A    between atoms: C_14  and  N_15 
REMARK       I    between atoms: N_15  and  C_16 
REMARK    4  A    between atoms: C_16  and  C_17 
REMARK    5  A    between atoms: C_17  and  C_18 
ROOT
HETATM    1  C   UNL     1      -4.767   3.326 -32.559  1.00  0.00     0.076 A 
HETATM    2  C   UNL     1      -5.334   4.571 -32.850  1.00  0.00     0.039 A 
HETATM    3  C   UNL     1      -4.518   5.627 -33.263  1.00  0.00     0.025 A 
HETATM    4  C   UNL     1      -3.133   5.447 -33.361  1.00  0.00     0.044 A 
HETATM    5  C   UNL     1      -2.296   6.531 -33.789  1.00  0.00     0.099 C 
HETATM    6  N   UNL     1      -1.618   7.408 -34.132  1.00  0.00    -0.191 NA
HETATM    7  C   UNL     1      -2.568   4.210 -33.036  1.00  0.00     0.025 A 
HETATM    8  C   UNL     1      -3.385   3.151 -32.628  1.00  0.00     0.039 A 
ENDROOT
BRANCH   1   9
HETATM    9  O   UNL     1      -5.511   2.248 -32.135  1.00  0.00    -0.311 OA
BRANCH   9  10
HETATM   10  C   UNL     1      -6.315   1.621 -33.064  1.00  0.00     0.078 A 
HETATM   11  C   UNL     1      -5.756   0.541 -33.744  1.00  0.00     0.037 A 
HETATM   12  C   UNL     1      -6.510  -0.134 -34.701  1.00  0.00     0.005 A 
HETATM   13  C   UNL     1      -7.817   0.277 -34.977  1.00  0.00     0.029 A 
HETATM   14  C   UNL     1      -8.378   1.380 -34.317  1.00  0.00     0.037 A 
HETATM   15  C   UNL     1      -7.607   2.062 -33.373  1.00  0.00     0.066 A 
BRANCH  14  16
HETATM   16  N   UNL     1      -9.710   1.715 -34.638  1.00  0.00    -0.327 N 
HETATM   17  C   UNL     1     -10.866   1.180 -34.091  1.00  0.00     0.227 C 
HETATM   18  O   UNL     1     -10.923   0.372 -33.165  1.00  0.00    -0.273 OA
HETATM   19  H   UNL     1      -9.826   2.410 -35.364  1.00  0.00     0.169 HD
BRANCH  17  20
HETATM   20  C   UNL     1     -12.146   1.690 -34.758  1.00  0.00     0.159 C 
BRANCH  20  21
HETATM   21  C   UNL     1     -13.038   2.378 -33.771  1.00  0.00     0.017 A 
HETATM   22  N   UNL     1     -13.726   1.684 -32.799  1.00  0.00    -0.369 N 
HETATM   23  H   UNL     1     -13.712   0.673 -32.696  1.00  0.00     0.165 HD
HETATM   24  C   UNL     1     -14.451   2.557 -32.034  1.00  0.00     0.088 A 
HETATM   25  C   UNL     1     -14.220   3.828 -32.506  1.00  0.00     0.019 A 
HETATM   26  C   UNL     1     -13.328   3.718 -33.600  1.00  0.00     0.027 A 
ENDBRANCH  20  21
ENDBRANCH  17  20
ENDBRANCH  14  16
ENDBRANCH   9  10
ENDBRANCH   1   9
TORSDOF 5
ENDMDL
MODEL 7
REMARK VINA RESULT:      -7.5      3.313      4.823
REMARK  5 active torsions:
REMARK  status: ('A' for Active; 'I' for Inactive)
REMARK    1  A    between atoms: C_3  and  O_4 
REMARK    2  A    between atoms: O_4  and  C_5 
REMARK    3  A    between atoms: C_14  and  N_15 
REMARK       I    between atoms: N_15  and  C_16 
REMARK    4  A    between atoms: C_16  and  C_17 
REMARK    5  A    between atoms: C_17  and  C_18 
ROOT
HETATM    1  C   UNL     1      -7.380  -0.521 -33.864  1.00  0.00     0.076 A 
HETATM    2  C   UNL     1      -8.069  -0.515 -32.648  1.00  0.00     0.039 A 
HETATM    3  C   UNL     1      -9.256   0.212 -32.525  1.00  0.00     0.025 A 
HETATM    4  C   UNL     1      -9.742   0.952 -33.609  1.00  0.00     0.044 A 
HETATM    5  C   UNL     1     -10.963   1.695 -33.482  1.00  0.00     0.099 C 
HETATM    6  N   UNL     1     -11.949   2.298 -33.380  1.00  0.00    -0.191 NA
HETATM    7  C   UNL     1      -9.031   0.969 -34.813  1.00  0.00     0.025 A 
HETATM    8  C   UNL     1      -7.846   0.238 -34.938  1.00  0.00     0.039 A 
ENDROOT
BRANCH   1   9
HETATM    9  O   UNL     1      -6.199  -1.204 -34.050  1.00  0.00    -0.311 OA
BRANCH   9  10
HETATM   10  C   UNL     1      -5.119  -0.835 -33.276  1.00  0.00     0.078 A 
HETATM   11  C   UNL     1      -4.413  -1.866 -32.659  1.00  0.00     0.037 A 
HETATM   12  C   UNL     1      -3.315  -1.565 -31.858  1.00  0.00     0.005 A 
HETATM   13  C   UNL     1      -2.931  -0.233 -31.672  1.00  0.00     0.029 A 
HETATM   14  C   UNL     1      -3.652   0.812 -32.267  1.00  0.00     0.037 A 
HETATM   15  C   UNL     1      -4.763   0.500 -33.053  1.00  0.00     0.066 A 
BRANCH  14  16
HETATM   16  N   UNL     1      -3.185   2.125 -32.047  1.00  0.00    -0.327 N 
HETATM   17  C   UNL     1      -3.817   3.136 -31.342  1.00  0.00     0.227 C 
HETATM   18  O   UNL     1      -4.869   3.031 -30.712  1.00  0.00    -0.273 OA
HETATM   19  H   UNL     1      -2.295   2.351 -32.474  1.00  0.00     0.169 HD
BRANCH  17  20
HETATM   20  C   UNL     1      -3.079   4.475 -31.405  1.00  0.00     0.159 C 
BRANCH  20  21
HETATM   21  C   UNL     1      -2.754   4.853 -32.817  1.00  0.00     0.017 A 
HETATM   22  N   UNL     1      -3.735   5.075 -33.759  1.00  0.00    -0.369 N 
HETATM   23  H   UNL     1      -4.731   4.969 -33.588  1.00  0.00     0.165 HD
HETATM   24  C   UNL     1      -3.160   5.414 -34.954  1.00  0.00     0.088 A 
HETATM   25  C   UNL     1      -1.795   5.426 -34.781  1.00  0.00     0.019 A 
HETATM   26  C   UNL     1      -1.537   5.075 -33.434  1.00  0.00     0.027 A 
ENDBRANCH  20  21
ENDBRANCH  17  20
ENDBRANCH  14  16
ENDBRANCH   9  10
ENDBRANCH   1   9
TORSDOF 5
ENDMDL
MODEL 8
REMARK VINA RESULT:      -7.4      2.245      2.895
REMARK  5 active torsions:
REMARK  status: ('A' for Active; 'I' for Inactive)
REMARK    1  A    between atoms: C_3  and  O_4 
REMARK    2  A    between atoms: O_4  and  C_5 
REMARK    3  A    between atoms: C_14  and  N_15 
REMARK       I    between atoms: N_15  and  C_16 
REMARK    4  A    between atoms: C_16  and  C_17 
REMARK    5  A    between atoms: C_17  and  C_18 
ROOT
HETATM    1  C   UNL     1      -7.092   0.343 -33.627  1.00  0.00     0.076 A 
HETATM    2  C   UNL     1      -7.093  -0.370 -34.830  1.00  0.00     0.039 A 
HETATM    3  C   UNL     1      -6.274  -1.494 -34.974  1.00  0.00     0.025 A 
HETATM    4  C   UNL     1      -5.437  -1.890 -33.925  1.00  0.00     0.044 A 
HETATM    5  C   UNL     1      -4.600  -3.046 -34.071  1.00  0.00     0.099 C 
HETATM    6  N   UNL     1      -3.920  -3.979 -34.190  1.00  0.00    -0.191 NA
HETATM    7  C   UNL     1      -5.415  -1.154 -32.736  1.00  0.00     0.025 A 
HETATM    8  C   UNL     1      -6.238  -0.033 -32.590  1.00  0.00     0.039 A 
ENDROOT
BRANCH   1   9
HETATM    9  O   UNL     1      -7.863   1.465 -33.424  1.00  0.00    -0.311 OA
BRANCH   9  10
HETATM   10  C   UNL     1      -7.213   2.635 -33.095  1.00  0.00     0.078 A 
HETATM   11  C   UNL     1      -7.942   3.569 -32.361  1.00  0.00     0.037 A 
HETATM   12  C   UNL     1      -7.349   4.776 -31.999  1.00  0.00     0.005 A 
HETATM   13  C   UNL     1      -6.030   5.046 -32.377  1.00  0.00     0.029 A 
HETATM   14  C   UNL     1      -5.298   4.124 -33.139  1.00  0.00     0.037 A 
HETATM   15  C   UNL     1      -5.909   2.925 -33.513  1.00  0.00     0.066 A 
BRANCH  14  16
HETATM   16  N   UNL     1      -3.967   4.464 -33.460  1.00  0.00    -0.327 N 
HETATM   17  C   UNL     1      -3.498   4.997 -34.650  1.00  0.00     0.227 C 
HETATM   18  O   UNL     1      -4.186   5.343 -35.609  1.00  0.00    -0.273 OA
HETATM   19  H   UNL     1      -3.281   4.275 -32.740  1.00  0.00     0.169 HD
BRANCH  17  20
HETATM   20  C   UNL     1      -1.975   5.133 -34.697  1.00  0.00     0.159 C 
BRANCH  20  21
HETATM   21  C   UNL     1      -1.466   5.971 -33.564  1.00  0.00     0.017 A 
HETATM   22  N   UNL     1      -1.760   7.313 -33.458  1.00  0.00    -0.369 N 
HETATM   23  H   UNL     1      -2.301   7.839 -34.139  1.00  0.00     0.165 HD
HETATM   24  C   UNL     1      -1.179   7.825 -32.330  1.00  0.00     0.088 A 
HETATM   25  C   UNL     1      -0.516   6.803 -31.691  1.00  0.00     0.019 A 
HETATM   26  C   UNL     1      -0.698   5.632 -32.467  1.00  0.00     0.027 A 
ENDBRANCH  20  21
ENDBRANCH  17  20
ENDBRANCH  14  16
ENDBRANCH   9  10
ENDBRANCH   1   9
TORSDOF 5
ENDMDL
MODEL 9
REMARK VINA RESULT:      -7.4      2.495      9.009
REMARK  5 active torsions:
REMARK  status: ('A' for Active; 'I' for Inactive)
REMARK    1  A    between atoms: C_3  and  O_4 
REMARK    2  A    between atoms: O_4  and  C_5 
REMARK    3  A    between atoms: C_14  and  N_15 
REMARK       I    between atoms: N_15  and  C_16 
REMARK    4  A    between atoms: C_16  and  C_17 
REMARK    5  A    between atoms: C_17  and  C_18 
ROOT
HETATM    1  C   UNL     1      -0.399   5.694 -31.546  1.00  0.00     0.076 A 
HETATM    2  C   UNL     1      -0.808   6.942 -31.064  1.00  0.00     0.039 A 
HETATM    3  C   UNL     1      -0.413   7.359 -29.790  1.00  0.00     0.025 A 
HETATM    4  C   UNL     1       0.369   6.520 -28.988  1.00  0.00     0.044 A 
HETATM    5  C   UNL     1       0.777   6.951 -27.682  1.00  0.00     0.099 C 
HETATM    6  N   UNL     1       1.105   7.298 -26.624  1.00  0.00    -0.191 NA
HETATM    7  C   UNL     1       0.747   5.259 -29.462  1.00  0.00     0.025 A 
HETATM    8  C   UNL     1       0.356   4.844 -30.738  1.00  0.00     0.039 A 
ENDROOT
BRANCH   1   9
HETATM    9  O   UNL     1      -0.763   5.216 -32.785  1.00  0.00    -0.311 OA
BRANCH   9  10
HETATM   10  C   UNL     1      -2.076   4.835 -32.962  1.00  0.00     0.078 A 
HETATM   11  C   UNL     1      -2.802   5.529 -33.928  1.00  0.00     0.037 A 
HETATM   12  C   UNL     1      -4.136   5.200 -34.155  1.00  0.00     0.005 A 
HETATM   13  C   UNL     1      -4.739   4.182 -33.412  1.00  0.00     0.029 A 
HETATM   14  C   UNL     1      -4.025   3.496 -32.419  1.00  0.00     0.037 A 
HETATM   15  C   UNL     1      -2.693   3.847 -32.186  1.00  0.00     0.066 A 
BRANCH  14  16
HETATM   16  N   UNL     1      -4.701   2.467 -31.730  1.00  0.00    -0.327 N 
HETATM   17  C   UNL     1      -4.571   1.101 -31.922  1.00  0.00     0.227 C 
HETATM   18  O   UNL     1      -3.772   0.548 -32.677  1.00  0.00    -0.273 OA
HETATM   19  H   UNL     1      -5.370   2.771 -31.035  1.00  0.00     0.169 HD
BRANCH  17  20
HETATM   20  C   UNL     1      -5.546   0.274 -31.082  1.00  0.00     0.159 C 
BRANCH  20  21
HETATM   21  C   UNL     1      -6.900   0.214 -31.721  1.00  0.00     0.017 A 
HETATM   22  N   UNL     1      -8.030   0.681 -31.085  1.00  0.00    -0.369 N 
HETATM   23  H   UNL     1      -8.044   1.062 -30.143  1.00  0.00     0.165 HD
HETATM   24  C   UNL     1      -9.119   0.513 -31.897  1.00  0.00     0.088 A 
HETATM   25  C   UNL     1      -8.689  -0.055 -33.073  1.00  0.00     0.019 A 
HETATM   26  C   UNL     1      -7.290  -0.242 -32.966  1.00  0.00     0.027 A 
ENDBRANCH  20  21
ENDBRANCH  17  20
ENDBRANCH  14  16
ENDBRANCH   9  10
ENDBRANCH   1   9
TORSDOF 5
ENDMDL
MODEL 10
REMARK VINA RESULT:      -7.3      2.140      9.296
REMARK  5 active torsions:
REMARK  status: ('A' for Active; 'I' for Inactive)
REMARK    1  A    between atoms: C_3  and  O_4 
REMARK    2  A    between atoms: O_4  and  C_5 
REMARK    3  A    between atoms: C_14  and  N_15 
REMARK       I    between atoms: N_15  and  C_16 
REMARK    4  A    between atoms: C_16  and  C_17 
REMARK    5  A    between atoms: C_17  and  C_18 
ROOT
HETATM    1  C   UNL     1      -0.065   6.209 -30.386  1.00  0.00     0.076 A 
HETATM    2  C   UNL     1      -0.744   7.429 -30.299  1.00  0.00     0.039 A 
HETATM    3  C   UNL     1      -0.881   8.061 -29.061  1.00  0.00     0.025 A 
HETATM    4  C   UNL     1      -0.362   7.464 -27.906  1.00  0.00     0.044 A 
HETATM    5  C   UNL     1      -0.500   8.116 -26.636  1.00  0.00     0.099 C 
HETATM    6  N   UNL     1      -0.613   8.642 -25.607  1.00  0.00    -0.191 NA
HETATM    7  C   UNL     1       0.287   6.228 -27.994  1.00  0.00     0.025 A 
HETATM    8  C   UNL     1       0.429   5.598 -29.233  1.00  0.00     0.039 A 
ENDROOT
BRANCH   1   9
HETATM    9  O   UNL     1       0.095   5.526 -31.571  1.00  0.00    -0.311 OA
BRANCH   9  10
HETATM   10  C   UNL     1      -1.043   5.197 -32.277  1.00  0.00     0.078 A 
HETATM   11  C   UNL     1      -1.207   5.810 -33.517  1.00  0.00     0.037 A 
HETATM   12  C   UNL     1      -2.337   5.529 -34.281  1.00  0.00     0.005 A 
HETATM   13  C   UNL     1      -3.300   4.638 -33.798  1.00  0.00     0.029 A 
HETATM   14  C   UNL     1      -3.156   4.037 -32.540  1.00  0.00     0.037 A 
HETATM   15  C   UNL     1      -2.030   4.341 -31.774  1.00  0.00     0.066 A 
BRANCH  14  16
HETATM   16  N   UNL     1      -4.163   3.132 -32.138  1.00  0.00    -0.327 N 
HETATM   17  C   UNL     1      -3.993   1.834 -31.683  1.00  0.00     0.227 C 
HETATM   18  O   UNL     1      -2.918   1.274 -31.474  1.00  0.00    -0.273 OA
HETATM   19  H   UNL     1      -5.113   3.472 -32.213  1.00  0.00     0.169 HD
BRANCH  17  20
HETATM   20  C   UNL     1      -5.313   1.096 -31.447  1.00  0.00     0.159 C 
BRANCH  20  21
HETATM   21  C   UNL     1      -5.508  -0.006 -32.443  1.00  0.00     0.017 A 
HETATM   22  N   UNL     1      -4.448  -0.715 -32.965  1.00  0.00    -0.369 N 
HETATM   23  H   UNL     1      -3.472  -0.532 -32.751  1.00  0.00     0.165 HD
HETATM   24  C   UNL     1      -4.912  -1.663 -33.836  1.00  0.00     0.088 A 
HETATM   25  C   UNL     1      -6.284  -1.576 -33.868  1.00  0.00     0.019 A 
HETATM   26  C   UNL     1      -6.662  -0.534 -32.988  1.00  0.00     0.027 A 
ENDBRANCH  20  21
ENDBRANCH  17  20
ENDBRANCH  14  16
ENDBRANCH   9  10
ENDBRANCH   1   9
TORSDOF 5
ENDMDL
