MODEL 1
REMARK VINA RESULT:      -8.2      0.000      0.000
REMARK  8 active torsions:
REMARK  status: ('A' for Active; 'I' for Inactive)
REMARK    1  A    between atoms: C_8  and  C_9 
REMARK       I    between atoms: C_9  and  N_10 
REMARK    2  A    between atoms: N_10  and  N_11 
REMARK    3  A    between atoms: N_11  and  C_12 
REMARK    4  A    between atoms: C_12  and  N_13 
REMARK    5  A    between atoms: N_13  and  C_14 
REMARK    6  A    between atoms: C_15  and  O_16 
REMARK    7  A    between atoms: C_19  and  O_20 
REMARK    8  A    between atoms: C_26  and  C_27 
ROOT
HETATM    1  C   UNL     1      -4.787   3.466 -31.141  1.00  0.00     0.275 C 
HETATM    2  N   UNL     1      -5.417   2.930 -32.249  1.00  0.00    -0.263 N 
HETATM    3  O   UNL     1      -5.257   3.383 -30.008  1.00  0.00    -0.266 OA
HETATM    4  H   UNL     1      -5.179   3.288 -33.174  1.00  0.00     0.190 HD
ENDROOT
BRANCH   2   5
HETATM    5  N   UNL     1      -6.700   2.377 -32.094  1.00  0.00    -0.273 N 
HETATM    6  H   UNL     1      -7.329   2.946 -31.525  1.00  0.00     0.189 HD
BRANCH   5   7
HETATM    7  C   UNL     1      -7.261   1.623 -33.093  1.00  0.00     0.191 C 
HETATM    8  S   UNL     1      -8.912   1.366 -33.266  1.00  0.00    -0.039 SA
BRANCH   7   9
HETATM    9  N   UNL     1      -6.420   1.024 -33.980  1.00  0.00    -0.330 N 
HETATM   10  H   UNL     1      -6.033   1.653 -34.681  1.00  0.00     0.168 HD
BRANCH   9  11
HETATM   11  C   UNL     1      -5.965  -0.309 -34.109  1.00  0.00     0.068 A 
HETATM   12  C   UNL     1      -4.760  -0.638 -33.451  1.00  0.00     0.097 A 
HETATM   13  C   UNL     1      -4.251  -1.943 -33.528  1.00  0.00     0.075 A 
HETATM   14  C   UNL     1      -4.943  -2.923 -34.242  1.00  0.00     0.070 A 
HETATM   15  C   UNL     1      -6.156  -2.602 -34.852  1.00  0.00     0.039 A 
HETATM   16  C   UNL     1      -6.670  -1.305 -34.783  1.00  0.00     0.035 A 
BRANCH  12  17
HETATM   17  O   UNL     1      -4.165   0.397 -32.766  1.00  0.00    -0.354 OA
HETATM   18  C   UNL     1      -3.317   0.059 -31.675  1.00  0.00     0.210 C 
ENDBRANCH  12  17
BRANCH  14  19
HETATM   19  O   UNL     1      -4.561  -4.227 -34.395  1.00  0.00    -0.356 OA
HETATM   20  C   UNL     1      -3.486  -4.684 -33.583  1.00  0.00     0.210 C 
ENDBRANCH  14  19
ENDBRANCH   9  11
ENDBRANCH   7   9
ENDBRANCH   5   7
ENDBRANCH   2   5
BRANCH   1  21
HETATM   21  C   UNL     1      -3.556   4.170 -31.434  1.00  0.00     0.098 A 
HETATM   22  C   UNL     1      -3.072   5.349 -30.897  1.00  0.00     0.138 A 
HETATM   23  N   UNL     1      -3.589   6.247 -30.021  1.00  0.00    -0.370 N 
HETATM   24  N   UNL     1      -1.841   5.540 -31.470  1.00  0.00    -0.240 N 
HETATM   25  C   UNL     1      -2.863   7.441 -29.602  1.00  0.00     0.081 C 
HETATM   26  H   UNL     1      -4.586   6.260 -29.803  1.00  0.00     0.161 HD
HETATM   27  C   UNL     1      -2.353   7.250 -28.178  1.00  0.00     0.032 C 
HETATM   28  C   UNL     1      -1.794   7.840 -30.627  1.00  0.00     0.061 C 
HETATM   29  C   UNL     1      -0.979   6.676 -31.214  1.00  0.00     0.221 C 
HETATM   30  N   UNL     1      -1.537   4.640 -32.420  1.00  0.00    -0.181 NA
HETATM   31  C   UNL     1      -2.573   3.796 -32.383  1.00  0.00     0.160 A 
BRANCH  29  32
HETATM   32  C   UNL     1       0.203   6.261 -30.370  1.00  0.00     0.409 C 
HETATM   33  F   UNL     1       0.735   7.266 -29.648  1.00  0.00    -0.169 F 
HETATM   34  F   UNL     1      -0.102   5.262 -29.511  1.00  0.00    -0.169 F 
HETATM   35  F   UNL     1       1.195   5.783 -31.167  1.00  0.00    -0.169 F 
ENDBRANCH  29  32
ENDBRANCH   1  21
TORSDOF 8
ENDMDL
MODEL 2
REMARK VINA RESULT:      -8.1      1.488      1.682
REMARK  8 active torsions:
REMARK  status: ('A' for Active; 'I' for Inactive)
REMARK    1  A    between atoms: C_8  and  C_9 
REMARK       I    between atoms: C_9  and  N_10 
REMARK    2  A    between atoms: N_10  and  N_11 
REMARK    3  A    between atoms: N_11  and  C_12 
REMARK    4  A    between atoms: C_12  and  N_13 
REMARK    5  A    between atoms: N_13  and  C_14 
REMARK    6  A    between atoms: C_15  and  O_16 
REMARK    7  A    between atoms: C_19  and  O_20 
REMARK    8  A    between atoms: C_26  and  C_27 
ROOT
HETATM    1  C   UNL     1      -5.274   4.424 -30.979  1.00  0.00     0.275 C 
HETATM    2  N   UNL     1      -5.660   3.116 -30.749  1.00  0.00    -0.263 N 
HETATM    3  O   UNL     1      -6.057   5.369 -30.900  1.00  0.00    -0.266 OA
HETATM    4  H   UNL     1      -5.094   2.360 -31.130  1.00  0.00     0.190 HD
ENDROOT
BRANCH   2   5
HETATM    5  N   UNL     1      -7.024   2.843 -30.538  1.00  0.00    -0.273 N 
HETATM    6  H   UNL     1      -7.503   3.549 -29.976  1.00  0.00     0.189 HD
BRANCH   5   7
HETATM    7  C   UNL     1      -7.761   2.187 -31.490  1.00  0.00     0.191 C 
HETATM    8  S   UNL     1      -8.778   2.950 -32.587  1.00  0.00    -0.039 SA
BRANCH   7   9
HETATM    9  N   UNL     1      -7.682   0.828 -31.523  1.00  0.00    -0.330 N 
HETATM   10  H   UNL     1      -8.142   0.363 -30.743  1.00  0.00     0.168 HD
BRANCH   9  11
HETATM   11  C   UNL     1      -7.093  -0.068 -32.445  1.00  0.00     0.068 A 
HETATM   12  C   UNL     1      -5.748  -0.430 -32.214  1.00  0.00     0.097 A 
HETATM   13  C   UNL     1      -5.100  -1.320 -33.082  1.00  0.00     0.075 A 
HETATM   14  C   UNL     1      -5.788  -1.865 -34.168  1.00  0.00     0.070 A 
HETATM   15  C   UNL     1      -7.130  -1.538 -34.364  1.00  0.00     0.039 A 
HETATM   16  C   UNL     1      -7.784  -0.650 -33.506  1.00  0.00     0.035 A 
BRANCH  12  17
HETATM   17  O   UNL     1      -5.166   0.154 -31.110  1.00  0.00    -0.354 OA
HETATM   18  C   UNL     1      -3.760   0.004 -30.954  1.00  0.00     0.210 C 
ENDBRANCH  12  17
BRANCH  14  19
HETATM   19  O   UNL     1      -5.279  -2.741 -35.086  1.00  0.00    -0.356 OA
HETATM   20  C   UNL     1      -5.911  -4.011 -35.186  1.00  0.00     0.210 C 
ENDBRANCH  14  19
ENDBRANCH   9  11
ENDBRANCH   7   9
ENDBRANCH   5   7
ENDBRANCH   2   5
BRANCH   1  21
HETATM   21  C   UNL     1      -3.887   4.580 -31.363  1.00  0.00     0.098 A 
HETATM   22  C   UNL     1      -3.139   5.735 -31.496  1.00  0.00     0.138 A 
HETATM   23  N   UNL     1      -3.449   7.053 -31.400  1.00  0.00    -0.370 N 
HETATM   24  N   UNL     1      -1.872   5.323 -31.818  1.00  0.00    -0.240 N 
HETATM   25  C   UNL     1      -2.457   8.107 -31.588  1.00  0.00     0.081 C 
HETATM   26  H   UNL     1      -4.417   7.373 -31.432  1.00  0.00     0.161 HD
HETATM   27  C   UNL     1      -2.096   8.710 -30.236  1.00  0.00     0.032 C 
HETATM   28  C   UNL     1      -1.266   7.618 -32.421  1.00  0.00     0.061 C 
HETATM   29  C   UNL     1      -0.756   6.209 -32.077  1.00  0.00     0.221 C 
HETATM   30  N   UNL     1      -1.764   3.998 -32.014  1.00  0.00    -0.181 NA
HETATM   31  C   UNL     1      -2.987   3.546 -31.718  1.00  0.00     0.160 A 
BRANCH  29  32
HETATM   32  C   UNL     1       0.225   6.171 -30.929  1.00  0.00     0.409 C 
HETATM   33  F   UNL     1      -0.351   5.981 -29.726  1.00  0.00    -0.169 F 
HETATM   34  F   UNL     1       1.164   5.210 -31.085  1.00  0.00    -0.169 F 
HETATM   35  F   UNL     1       0.899   7.350 -30.857  1.00  0.00    -0.169 F 
ENDBRANCH  29  32
ENDBRANCH   1  21
TORSDOF 8
ENDMDL
MODEL 3
REMARK VINA RESULT:      -7.9      1.969      2.784
REMARK  8 active torsions:
REMARK  status: ('A' for Active; 'I' for Inactive)
REMARK    1  A    between atoms: C_8  and  C_9 
REMARK       I    between atoms: C_9  and  N_10 
REMARK    2  A    between atoms: N_10  and  N_11 
REMARK    3  A    between atoms: N_11  and  C_12 
REMARK    4  A    between atoms: C_12  and  N_13 
REMARK    5  A    between atoms: N_13  and  C_14 
REMARK    6  A    between atoms: C_15  and  O_16 
REMARK    7  A    between atoms: C_19  and  O_20 
REMARK    8  A    between atoms: C_26  and  C_27 
ROOT
HETATM    1  C   UNL     1      -5.380   4.498 -30.284  1.00  0.00     0.275 C 
HETATM    2  N   UNL     1      -5.803   3.211 -30.008  1.00  0.00    -0.263 N 
HETATM    3  O   UNL     1      -6.082   5.485 -30.071  1.00  0.00    -0.266 OA
HETATM    4  H   UNL     1      -5.350   2.430 -30.482  1.00  0.00     0.190 HD
ENDROOT
BRANCH   2   5
HETATM    5  N   UNL     1      -7.129   3.013 -29.584  1.00  0.00    -0.273 N 
HETATM    6  H   UNL     1      -7.389   3.573 -28.770  1.00  0.00     0.189 HD
BRANCH   5   7
HETATM    7  C   UNL     1      -8.116   2.720 -30.489  1.00  0.00     0.191 C 
HETATM    8  S   UNL     1      -9.098   3.869 -31.219  1.00  0.00    -0.039 SA
BRANCH   7   9
HETATM    9  N   UNL     1      -8.328   1.408 -30.789  1.00  0.00    -0.330 N 
HETATM   10  H   UNL     1      -9.114   0.988 -30.297  1.00  0.00     0.168 HD
BRANCH   9  11
HETATM   11  C   UNL     1      -7.672   0.515 -31.667  1.00  0.00     0.068 A 
HETATM   12  C   UNL     1      -8.366   0.148 -32.840  1.00  0.00     0.097 A 
HETATM   13  C   UNL     1      -7.775  -0.729 -33.761  1.00  0.00     0.075 A 
HETATM   14  C   UNL     1      -6.493  -1.229 -33.529  1.00  0.00     0.070 A 
HETATM   15  C   UNL     1      -5.795  -0.827 -32.390  1.00  0.00     0.039 A 
HETATM   16  C   UNL     1      -6.375   0.044 -31.465  1.00  0.00     0.035 A 
BRANCH  12  17
HETATM   17  O   UNL     1      -9.617   0.705 -32.978  1.00  0.00    -0.354 OA
HETATM   18  C   UNL     1      -9.865   1.477 -34.147  1.00  0.00     0.210 C 
ENDBRANCH  12  17
BRANCH  14  19
HETATM   19  O   UNL     1      -5.804  -2.085 -34.343  1.00  0.00    -0.356 OA
HETATM   20  C   UNL     1      -4.434  -2.311 -34.030  1.00  0.00     0.210 C 
ENDBRANCH  14  19
ENDBRANCH   9  11
ENDBRANCH   7   9
ENDBRANCH   5   7
ENDBRANCH   2   5
BRANCH   1  21
HETATM   21  C   UNL     1      -4.065   4.581 -30.884  1.00  0.00     0.098 A 
HETATM   22  C   UNL     1      -3.276   5.693 -31.114  1.00  0.00     0.138 A 
HETATM   23  N   UNL     1      -3.481   7.024 -30.945  1.00  0.00    -0.370 N 
HETATM   24  N   UNL     1      -2.105   5.214 -31.643  1.00  0.00    -0.240 N 
HETATM   25  C   UNL     1      -2.467   8.020 -31.271  1.00  0.00     0.081 C 
HETATM   26  H   UNL     1      -4.420   7.402 -30.815  1.00  0.00     0.161 HD
HETATM   27  C   UNL     1      -1.857   8.562 -29.984  1.00  0.00     0.032 C 
HETATM   28  C   UNL     1      -1.457   7.485 -32.294  1.00  0.00     0.061 C 
HETATM   29  C   UNL     1      -0.991   6.039 -32.062  1.00  0.00     0.221 C 
HETATM   30  N   UNL     1      -2.115   3.891 -31.879  1.00  0.00    -0.181 NA
HETATM   31  C   UNL     1      -3.301   3.506 -31.398  1.00  0.00     0.160 A 
BRANCH  29  32
HETATM   32  C   UNL     1       0.157   5.909 -31.089  1.00  0.00     0.409 C 
HETATM   33  F   UNL     1      -0.231   5.750 -29.809  1.00  0.00    -0.169 F 
HETATM   34  F   UNL     1       0.978   4.879 -31.394  1.00  0.00    -0.169 F 
HETATM   35  F   UNL     1       0.926   7.029 -31.128  1.00  0.00    -0.169 F 
ENDBRANCH  29  32
ENDBRANCH   1  21
TORSDOF 8
ENDMDL
MODEL 4
REMARK VINA RESULT:      -7.8      4.958      8.645
REMARK  8 active torsions:
REMARK  status: ('A' for Active; 'I' for Inactive)
REMARK    1  A    between atoms: C_8  and  C_9 
REMARK       I    between atoms: C_9  and  N_10 
REMARK    2  A    between atoms: N_10  and  N_11 
REMARK    3  A    between atoms: N_11  and  C_12 
REMARK    4  A    between atoms: C_12  and  N_13 
REMARK    5  A    between atoms: N_13  and  C_14 
REMARK    6  A    between atoms: C_15  and  O_16 
REMARK    7  A    between atoms: C_19  and  O_20 
REMARK    8  A    between atoms: C_26  and  C_27 
ROOT
HETATM    1  C   UNL     1      -6.549   0.300 -31.272  1.00  0.00     0.275 C 
HETATM    2  N   UNL     1      -7.590   1.190 -31.081  1.00  0.00    -0.263 N 
HETATM    3  O   UNL     1      -5.604   0.209 -30.491  1.00  0.00    -0.266 OA
HETATM    4  H   UNL     1      -8.160   1.462 -31.881  1.00  0.00     0.190 HD
ENDROOT
BRANCH   2   5
HETATM    5  N   UNL     1      -7.505   2.108 -30.020  1.00  0.00    -0.273 N 
HETATM    6  H   UNL     1      -7.328   1.675 -29.112  1.00  0.00     0.189 HD
BRANCH   5   7
HETATM    7  C   UNL     1      -7.006   3.369 -30.225  1.00  0.00     0.191 C 
HETATM    8  S   UNL     1      -7.926   4.678 -30.734  1.00  0.00    -0.039 SA
BRANCH   7   9
HETATM    9  N   UNL     1      -5.671   3.557 -30.030  1.00  0.00    -0.330 N 
HETATM   10  H   UNL     1      -5.368   3.442 -29.065  1.00  0.00     0.168 HD
BRANCH   9  11
HETATM   11  C   UNL     1      -4.615   3.870 -30.917  1.00  0.00     0.068 A 
HETATM   12  C   UNL     1      -4.075   5.172 -30.833  1.00  0.00     0.097 A 
HETATM   13  C   UNL     1      -3.021   5.552 -31.676  1.00  0.00     0.075 A 
HETATM   14  C   UNL     1      -2.491   4.639 -32.589  1.00  0.00     0.070 A 
HETATM   15  C   UNL     1      -2.999   3.341 -32.636  1.00  0.00     0.039 A 
HETATM   16  C   UNL     1      -4.051   2.953 -31.802  1.00  0.00     0.035 A 
BRANCH  12  17
HETATM   17  O   UNL     1      -4.661   5.989 -29.891  1.00  0.00    -0.354 OA
HETATM   18  C   UNL     1      -5.072   7.284 -30.312  1.00  0.00     0.210 C 
ENDBRANCH  12  17
BRANCH  14  19
HETATM   19  O   UNL     1      -1.467   4.878 -33.464  1.00  0.00    -0.356 OA
HETATM   20  C   UNL     1      -1.824   5.230 -34.795  1.00  0.00     0.210 C 
ENDBRANCH  14  19
ENDBRANCH   9  11
ENDBRANCH   7   9
ENDBRANCH   5   7
ENDBRANCH   2   5
BRANCH   1  21
HETATM   21  C   UNL     1      -6.643  -0.479 -32.490  1.00  0.00     0.098 A 
HETATM   22  C   UNL     1      -5.743  -1.384 -33.022  1.00  0.00     0.138 A 
HETATM   23  N   UNL     1      -4.496  -1.773 -32.654  1.00  0.00    -0.370 N 
HETATM   24  N   UNL     1      -6.342  -1.884 -34.149  1.00  0.00    -0.240 N 
HETATM   25  C   UNL     1      -3.735  -2.770 -33.399  1.00  0.00     0.081 C 
HETATM   26  H   UNL     1      -3.943  -1.225 -31.994  1.00  0.00     0.161 HD
HETATM   27  C   UNL     1      -3.722  -4.081 -32.624  1.00  0.00     0.032 C 
HETATM   28  C   UNL     1      -4.217  -2.878 -34.852  1.00  0.00     0.061 C 
HETATM   29  C   UNL     1      -5.742  -2.854 -35.042  1.00  0.00     0.221 C 
HETATM   30  N   UNL     1      -7.510  -1.293 -34.452  1.00  0.00    -0.181 NA
HETATM   31  C   UNL     1      -7.700  -0.452 -33.431  1.00  0.00     0.160 A 
BRANCH  29  32
HETATM   32  C   UNL     1      -6.406  -4.201 -34.881  1.00  0.00     0.409 C 
HETATM   33  F   UNL     1      -7.213  -4.285 -33.805  1.00  0.00    -0.169 F 
HETATM   34  F   UNL     1      -7.138  -4.548 -35.963  1.00  0.00    -0.169 F 
HETATM   35  F   UNL     1      -5.462  -5.168 -34.737  1.00  0.00    -0.169 F 
ENDBRANCH  29  32
ENDBRANCH   1  21
TORSDOF 8
ENDMDL
MODEL 5
REMARK VINA RESULT:      -7.6      4.427      6.877
REMARK  8 active torsions:
REMARK  status: ('A' for Active; 'I' for Inactive)
REMARK    1  A    between atoms: C_8  and  C_9 
REMARK       I    between atoms: C_9  and  N_10 
REMARK    2  A    between atoms: N_10  and  N_11 
REMARK    3  A    between atoms: N_11  and  C_12 
REMARK    4  A    between atoms: C_12  and  N_13 
REMARK    5  A    between atoms: N_13  and  C_14 
REMARK    6  A    between atoms: C_15  and  O_16 
REMARK    7  A    between atoms: C_19  and  O_20 
REMARK    8  A    between atoms: C_26  and  C_27 
ROOT
HETATM    1  C   UNL     1      -5.765   4.371 -33.569  1.00  0.00     0.275 C 
HETATM    2  N   UNL     1      -6.914   4.882 -32.993  1.00  0.00    -0.263 N 
HETATM    3  O   UNL     1      -5.352   4.744 -34.665  1.00  0.00    -0.266 OA
HETATM    4  H   UNL     1      -7.388   4.341 -32.271  1.00  0.00     0.190 HD
ENDROOT
BRANCH   2   5
HETATM    5  N   UNL     1      -7.705   5.772 -33.741  1.00  0.00    -0.273 N 
HETATM    6  H   UNL     1      -7.189   6.273 -34.467  1.00  0.00     0.189 HD
BRANCH   5   7
HETATM    7  C   UNL     1      -9.026   5.496 -33.985  1.00  0.00     0.191 C 
HETATM    8  S   UNL     1     -10.305   6.422 -33.411  1.00  0.00    -0.039 SA
BRANCH   7   9
HETATM    9  N   UNL     1      -9.314   4.382 -34.714  1.00  0.00    -0.330 N 
HETATM   10  H   UNL     1      -8.626   4.162 -35.431  1.00  0.00     0.168 HD
BRANCH   9  11
HETATM   11  C   UNL     1     -10.383   3.459 -34.658  1.00  0.00     0.068 A 
HETATM   12  C   UNL     1     -10.299   2.443 -33.681  1.00  0.00     0.097 A 
HETATM   13  C   UNL     1     -11.326   1.495 -33.562  1.00  0.00     0.075 A 
HETATM   14  C   UNL     1     -12.443   1.564 -34.398  1.00  0.00     0.070 A 
HETATM   15  C   UNL     1     -12.540   2.596 -35.331  1.00  0.00     0.039 A 
HETATM   16  C   UNL     1     -11.521   3.544 -35.459  1.00  0.00     0.035 A 
BRANCH  12  17
HETATM   17  O   UNL     1      -9.165   2.473 -32.901  1.00  0.00    -0.354 OA
HETATM   18  C   UNL     1      -9.341   2.499 -31.490  1.00  0.00     0.210 C 
ENDBRANCH  12  17
BRANCH  14  19
HETATM   19  O   UNL     1     -13.510   0.708 -34.386  1.00  0.00    -0.356 OA
HETATM   20  C   UNL     1     -13.379  -0.476 -33.610  1.00  0.00     0.210 C 
ENDBRANCH  14  19
ENDBRANCH   9  11
ENDBRANCH   7   9
ENDBRANCH   5   7
ENDBRANCH   2   5
BRANCH   1  21
HETATM   21  C   UNL     1      -5.119   3.332 -32.794  1.00  0.00     0.098 A 
HETATM   22  C   UNL     1      -5.434   1.990 -32.695  1.00  0.00     0.138 A 
HETATM   23  N   UNL     1      -6.448   1.239 -33.193  1.00  0.00    -0.370 N 
HETATM   24  N   UNL     1      -4.473   1.442 -31.885  1.00  0.00    -0.240 N 
HETATM   25  C   UNL     1      -6.561  -0.193 -32.939  1.00  0.00     0.081 C 
HETATM   26  H   UNL     1      -7.297   1.671 -33.560  1.00  0.00     0.161 HD
HETATM   27  C   UNL     1      -6.174  -0.963 -34.197  1.00  0.00     0.032 C 
HETATM   28  C   UNL     1      -5.805  -0.602 -31.668  1.00  0.00     0.061 C 
HETATM   29  C   UNL     1      -4.426   0.051 -31.485  1.00  0.00     0.221 C 
HETATM   30  N   UNL     1      -3.626   2.343 -31.359  1.00  0.00    -0.181 NA
HETATM   31  C   UNL     1      -4.008   3.489 -31.929  1.00  0.00     0.160 A 
BRANCH  29  32
HETATM   32  C   UNL     1      -3.304  -0.665 -32.200  1.00  0.00     0.409 C 
HETATM   33  F   UNL     1      -3.052  -0.187 -33.434  1.00  0.00    -0.169 F 
HETATM   34  F   UNL     1      -2.144  -0.628 -31.507  1.00  0.00    -0.169 F 
HETATM   35  F   UNL     1      -3.614  -1.981 -32.347  1.00  0.00    -0.169 F 
ENDBRANCH  29  32
ENDBRANCH   1  21
TORSDOF 8
ENDMDL
MODEL 6
REMARK VINA RESULT:      -7.6      2.006      2.760
REMARK  8 active torsions:
REMARK  status: ('A' for Active; 'I' for Inactive)
REMARK    1  A    between atoms: C_8  and  C_9 
REMARK       I    between atoms: C_9  and  N_10 
REMARK    2  A    between atoms: N_10  and  N_11 
REMARK    3  A    between atoms: N_11  and  C_12 
REMARK    4  A    between atoms: C_12  and  N_13 
REMARK    5  A    between atoms: N_13  and  C_14 
REMARK    6  A    between atoms: C_15  and  O_16 
REMARK    7  A    between atoms: C_19  and  O_20 
REMARK    8  A    between atoms: C_26  and  C_27 
ROOT
HETATM    1  C   UNL     1      -6.184   4.283 -33.400  1.00  0.00     0.275 C 
HETATM    2  N   UNL     1      -6.131   2.902 -33.359  1.00  0.00    -0.263 N 
HETATM    3  O   UNL     1      -6.949   4.894 -34.143  1.00  0.00    -0.266 OA
HETATM    4  H   UNL     1      -5.294   2.450 -32.993  1.00  0.00     0.190 HD
ENDROOT
BRANCH   2   5
HETATM    5  N   UNL     1      -6.891   2.170 -34.288  1.00  0.00    -0.273 N 
HETATM    6  H   UNL     1      -6.356   1.847 -35.096  1.00  0.00     0.189 HD
BRANCH   5   7
HETATM    7  C   UNL     1      -7.938   1.389 -33.872  1.00  0.00     0.191 C 
HETATM    8  S   UNL     1      -9.556   1.804 -34.052  1.00  0.00    -0.039 SA
BRANCH   7   9
HETATM    9  N   UNL     1      -7.641   0.215 -33.248  1.00  0.00    -0.330 N 
HETATM   10  H   UNL     1      -8.191   0.036 -32.410  1.00  0.00     0.168 HD
BRANCH   9  11
HETATM   11  C   UNL     1      -6.721  -0.816 -33.548  1.00  0.00     0.068 A 
HETATM   12  C   UNL     1      -5.436  -0.712 -32.973  1.00  0.00     0.097 A 
HETATM   13  C   UNL     1      -4.473  -1.701 -33.220  1.00  0.00     0.075 A 
HETATM   14  C   UNL     1      -4.788  -2.800 -34.022  1.00  0.00     0.070 A 
HETATM   15  C   UNL     1      -6.073  -2.918 -34.551  1.00  0.00     0.039 A 
HETATM   16  C   UNL     1      -7.039  -1.937 -34.313  1.00  0.00     0.035 A 
BRANCH  12  17
HETATM   17  O   UNL     1      -5.234   0.402 -32.189  1.00  0.00    -0.354 OA
HETATM   18  C   UNL     1      -4.426   0.248 -31.028  1.00  0.00     0.210 C 
ENDBRANCH  12  17
BRANCH  14  19
HETATM   19  O   UNL     1      -3.947  -3.830 -34.341  1.00  0.00    -0.356 OA
HETATM   20  C   UNL     1      -4.461  -5.149 -34.199  1.00  0.00     0.210 C 
ENDBRANCH  14  19
ENDBRANCH   9  11
ENDBRANCH   7   9
ENDBRANCH   5   7
ENDBRANCH   2   5
BRANCH   1  21
HETATM   21  C   UNL     1      -5.234   4.945 -32.529  1.00  0.00     0.098 A 
HETATM   22  C   UNL     1      -3.862   5.061 -32.658  1.00  0.00     0.138 A 
HETATM   23  N   UNL     1      -2.970   4.556 -33.548  1.00  0.00    -0.370 N 
HETATM   24  N   UNL     1      -3.454   5.835 -31.602  1.00  0.00    -0.240 N 
HETATM   25  C   UNL     1      -1.541   4.833 -33.467  1.00  0.00     0.081 C 
HETATM   26  H   UNL     1      -3.217   3.778 -34.161  1.00  0.00     0.161 HD
HETATM   27  C   UNL     1      -1.154   5.825 -34.556  1.00  0.00     0.032 C 
HETATM   28  C   UNL     1      -1.122   5.231 -32.046  1.00  0.00     0.061 C 
HETATM   29  C   UNL     1      -2.079   6.194 -31.325  1.00  0.00     0.221 C 
HETATM   30  N   UNL     1      -4.437   6.134 -30.736  1.00  0.00    -0.181 NA
HETATM   31  C   UNL     1      -5.522   5.608 -31.312  1.00  0.00     0.160 A 
BRANCH  29  32
HETATM   32  C   UNL     1      -1.842   7.652 -31.640  1.00  0.00     0.409 C 
HETATM   33  F   UNL     1      -1.933   8.463 -30.568  1.00  0.00    -0.169 F 
HETATM   34  F   UNL     1      -0.634   7.867 -32.209  1.00  0.00    -0.169 F 
HETATM   35  F   UNL     1      -2.765   8.088 -32.538  1.00  0.00    -0.169 F 
ENDBRANCH  29  32
ENDBRANCH   1  21
TORSDOF 8
ENDMDL
MODEL 7
REMARK VINA RESULT:      -7.5      4.520      7.898
REMARK  8 active torsions:
REMARK  status: ('A' for Active; 'I' for Inactive)
REMARK    1  A    between atoms: C_8  and  C_9 
REMARK       I    between atoms: C_9  and  N_10 
REMARK    2  A    between atoms: N_10  and  N_11 
REMARK    3  A    between atoms: N_11  and  C_12 
REMARK    4  A    between atoms: C_12  and  N_13 
REMARK    5  A    between atoms: N_13  and  C_14 
REMARK    6  A    between atoms: C_15  and  O_16 
REMARK    7  A    between atoms: C_19  and  O_20 
REMARK    8  A    between atoms: C_26  and  C_27 
ROOT
HETATM    1  C   UNL     1      -4.724   2.517 -30.624  1.00  0.00     0.275 C 
HETATM    2  N   UNL     1      -5.537   3.022 -29.626  1.00  0.00    -0.263 N 
HETATM    3  O   UNL     1      -3.657   3.041 -30.937  1.00  0.00    -0.266 OA
HETATM    4  H   UNL     1      -6.524   2.770 -29.618  1.00  0.00     0.190 HD
ENDROOT
BRANCH   2   5
HETATM    5  N   UNL     1      -5.191   4.248 -29.031  1.00  0.00    -0.273 N 
HETATM    6  H   UNL     1      -4.184   4.409 -28.973  1.00  0.00     0.189 HD
BRANCH   5   7
HETATM    7  C   UNL     1      -5.997   5.348 -29.176  1.00  0.00     0.191 C 
HETATM    8  S   UNL     1      -7.315   5.688 -28.193  1.00  0.00    -0.039 SA
BRANCH   7   9
HETATM    9  N   UNL     1      -5.725   6.199 -30.204  1.00  0.00    -0.330 N 
HETATM   10  H   UNL     1      -6.065   7.148 -30.063  1.00  0.00     0.168 HD
BRANCH   9  11
HETATM   11  C   UNL     1      -5.043   6.022 -31.430  1.00  0.00     0.068 A 
HETATM   12  C   UNL     1      -5.772   5.434 -32.487  1.00  0.00     0.097 A 
HETATM   13  C   UNL     1      -5.164   5.234 -33.734  1.00  0.00     0.075 A 
HETATM   14  C   UNL     1      -3.842   5.631 -33.941  1.00  0.00     0.070 A 
HETATM   15  C   UNL     1      -3.142   6.252 -32.906  1.00  0.00     0.039 A 
HETATM   16  C   UNL     1      -3.737   6.454 -31.658  1.00  0.00     0.035 A 
BRANCH  12  17
HETATM   17  O   UNL     1      -7.071   5.091 -32.182  1.00  0.00    -0.354 OA
HETATM   18  C   UNL     1      -8.107   5.728 -32.920  1.00  0.00     0.210 C 
ENDBRANCH  12  17
BRANCH  14  19
HETATM   19  O   UNL     1      -3.133   5.496 -35.102  1.00  0.00    -0.356 OA
HETATM   20  C   UNL     1      -1.771   5.105 -34.986  1.00  0.00     0.210 C 
ENDBRANCH  14  19
ENDBRANCH   9  11
ENDBRANCH   7   9
ENDBRANCH   5   7
ENDBRANCH   2   5
BRANCH   1  21
HETATM   21  C   UNL     1      -5.256   1.350 -31.296  1.00  0.00     0.098 A 
HETATM   22  C   UNL     1      -6.449   1.202 -31.980  1.00  0.00     0.138 A 
HETATM   23  N   UNL     1      -7.510   2.024 -32.179  1.00  0.00    -0.370 N 
HETATM   24  N   UNL     1      -6.436  -0.077 -32.476  1.00  0.00    -0.240 N 
HETATM   25  C   UNL     1      -8.676   1.624 -32.958  1.00  0.00     0.081 C 
HETATM   26  H   UNL     1      -7.650   2.855 -31.604  1.00  0.00     0.161 HD
HETATM   27  C   UNL     1      -8.646   2.324 -34.311  1.00  0.00     0.032 C 
HETATM   28  C   UNL     1      -8.818   0.097 -33.019  1.00  0.00     0.061 C 
HETATM   29  C   UNL     1      -7.508  -0.676 -33.243  1.00  0.00     0.221 C 
HETATM   30  N   UNL     1      -5.382  -0.806 -32.072  1.00  0.00    -0.181 NA
HETATM   31  C   UNL     1      -4.656   0.070 -31.370  1.00  0.00     0.160 A 
BRANCH  29  32
HETATM   32  C   UNL     1      -7.108  -0.807 -34.694  1.00  0.00     0.409 C 
HETATM   33  F   UNL     1      -6.607  -2.016 -35.013  1.00  0.00    -0.169 F 
HETATM   34  F   UNL     1      -8.136  -0.559 -35.537  1.00  0.00    -0.169 F 
HETATM   35  F   UNL     1      -6.147   0.107 -34.993  1.00  0.00    -0.169 F 
ENDBRANCH  29  32
ENDBRANCH   1  21
TORSDOF 8
ENDMDL
MODEL 8
REMARK VINA RESULT:      -7.5      4.652      8.502
REMARK  8 active torsions:
REMARK  status: ('A' for Active; 'I' for Inactive)
REMARK    1  A    between atoms: C_8  and  C_9 
REMARK       I    between atoms: C_9  and  N_10 
REMARK    2  A    between atoms: N_10  and  N_11 
REMARK    3  A    between atoms: N_11  and  C_12 
REMARK    4  A    between atoms: C_12  and  N_13 
REMARK    5  A    between atoms: N_13  and  C_14 
REMARK    6  A    between atoms: C_15  and  O_16 
REMARK    7  A    between atoms: C_19  and  O_20 
REMARK    8  A    between atoms: C_26  and  C_27 
ROOT
HETATM    1  C   UNL     1      -6.633   3.294 -29.873  1.00  0.00     0.275 C 
HETATM    2  N   UNL     1      -5.381   3.694 -29.441  1.00  0.00    -0.263 N 
HETATM    3  O   UNL     1      -7.667   3.855 -29.516  1.00  0.00    -0.266 OA
HETATM    4  H   UNL     1      -4.607   3.033 -29.489  1.00  0.00     0.190 HD
ENDROOT
BRANCH   2   5
HETATM    5  N   UNL     1      -5.296   4.701 -28.463  1.00  0.00    -0.273 N 
HETATM    6  H   UNL     1      -4.911   4.379 -27.572  1.00  0.00     0.189 HD
BRANCH   5   7
HETATM    7  C   UNL     1      -5.056   6.003 -28.819  1.00  0.00     0.191 C 
HETATM    8  S   UNL     1      -6.226   7.209 -28.830  1.00  0.00    -0.039 SA
BRANCH   7   9
HETATM    9  N   UNL     1      -3.794   6.326 -29.216  1.00  0.00    -0.330 N 
HETATM   10  H   UNL     1      -3.154   6.529 -28.451  1.00  0.00     0.168 HD
BRANCH   9  11
HETATM   11  C   UNL     1      -3.194   6.422 -30.492  1.00  0.00     0.068 A 
HETATM   12  C   UNL     1      -2.686   7.686 -30.866  1.00  0.00     0.097 A 
HETATM   13  C   UNL     1      -2.070   7.854 -32.115  1.00  0.00     0.075 A 
HETATM   14  C   UNL     1      -1.943   6.770 -32.985  1.00  0.00     0.070 A 
HETATM   15  C   UNL     1      -2.407   5.515 -32.591  1.00  0.00     0.039 A 
HETATM   16  C   UNL     1      -3.024   5.336 -31.350  1.00  0.00     0.035 A 
BRANCH  12  17
HETATM   17  O   UNL     1      -2.851   8.682 -29.931  1.00  0.00    -0.354 OA
HETATM   18  C   UNL     1      -2.896  10.023 -30.404  1.00  0.00     0.210 C 
ENDBRANCH  12  17
BRANCH  14  19
HETATM   19  O   UNL     1      -1.366   6.797 -34.224  1.00  0.00    -0.356 OA
HETATM   20  C   UNL     1      -1.184   5.547 -34.879  1.00  0.00     0.210 C 
ENDBRANCH  14  19
ENDBRANCH   9  11
ENDBRANCH   7   9
ENDBRANCH   5   7
ENDBRANCH   2   5
BRANCH   1  21
HETATM   21  C   UNL     1      -6.623   2.136 -30.742  1.00  0.00     0.098 A 
HETATM   22  C   UNL     1      -7.597   1.690 -31.617  1.00  0.00     0.138 A 
HETATM   23  N   UNL     1      -8.857   2.111 -31.891  1.00  0.00    -0.370 N 
HETATM   24  N   UNL     1      -7.062   0.591 -32.239  1.00  0.00    -0.240 N 
HETATM   25  C   UNL     1      -9.704   1.457 -32.883  1.00  0.00     0.081 C 
HETATM   26  H   UNL     1      -9.354   2.740 -31.260  1.00  0.00     0.161 HD
HETATM   27  C   UNL     1      -9.787   2.327 -34.131  1.00  0.00     0.032 C 
HETATM   28  C   UNL     1      -9.268   0.007 -33.129  1.00  0.00     0.061 C 
HETATM   29  C   UNL     1      -7.750  -0.216 -33.225  1.00  0.00     0.221 C 
HETATM   30  N   UNL     1      -5.864   0.221 -31.754  1.00  0.00    -0.181 NA
HETATM   31  C   UNL     1      -5.591   1.174 -30.858  1.00  0.00     0.160 A 
BRANCH  29  32
HETATM   32  C   UNL     1      -7.176   0.030 -34.601  1.00  0.00     0.409 C 
HETATM   33  F   UNL     1      -6.701   1.278 -34.777  1.00  0.00    -0.169 F 
HETATM   34  F   UNL     1      -6.177  -0.829 -34.904  1.00  0.00    -0.169 F 
HETATM   35  F   UNL     1      -8.137  -0.159 -35.544  1.00  0.00    -0.169 F 
ENDBRANCH  29  32
ENDBRANCH   1  21
TORSDOF 8
ENDMDL
MODEL 9
REMARK VINA RESULT:      -7.4      4.350      7.462
REMARK  8 active torsions:
REMARK  status: ('A' for Active; 'I' for Inactive)
REMARK    1  A    between atoms: C_8  and  C_9 
REMARK       I    between atoms: C_9  and  N_10 
REMARK    2  A    between atoms: N_10  and  N_11 
REMARK    3  A    between atoms: N_11  and  C_12 
REMARK    4  A    between atoms: C_12  and  N_13 
REMARK    5  A    between atoms: N_13  and  C_14 
REMARK    6  A    between atoms: C_15  and  O_16 
REMARK    7  A    between atoms: C_19  and  O_20 
REMARK    8  A    between atoms: C_26  and  C_27 
ROOT
HETATM    1  C   UNL     1      -3.420   2.904 -31.397  1.00  0.00     0.275 C 
HETATM    2  N   UNL     1      -4.257   3.589 -30.535  1.00  0.00    -0.263 N 
HETATM    3  O   UNL     1      -2.482   3.447 -31.978  1.00  0.00    -0.266 OA
HETATM    4  H   UNL     1      -5.181   3.207 -30.337  1.00  0.00     0.190 HD
ENDROOT
BRANCH   2   5
HETATM    5  N   UNL     1      -4.107   4.981 -30.413  1.00  0.00    -0.273 N 
HETATM    6  H   UNL     1      -3.495   5.394 -31.119  1.00  0.00     0.189 HD
BRANCH   5   7
HETATM    7  C   UNL     1      -5.135   5.756 -29.940  1.00  0.00     0.191 C 
HETATM    8  S   UNL     1      -5.315   6.207 -28.333  1.00  0.00    -0.039 SA
BRANCH   7   9
HETATM    9  N   UNL     1      -6.084   6.158 -30.831  1.00  0.00    -0.330 N 
HETATM   10  H   UNL     1      -6.157   7.168 -30.938  1.00  0.00     0.168 HD
BRANCH   9  11
HETATM   11  C   UNL     1      -6.982   5.439 -31.653  1.00  0.00     0.068 A 
HETATM   12  C   UNL     1      -6.621   5.282 -33.009  1.00  0.00     0.097 A 
HETATM   13  C   UNL     1      -7.460   4.575 -33.882  1.00  0.00     0.075 A 
HETATM   14  C   UNL     1      -8.646   4.010 -33.410  1.00  0.00     0.070 A 
HETATM   15  C   UNL     1      -8.975   4.131 -32.059  1.00  0.00     0.039 A 
HETATM   16  C   UNL     1      -8.147   4.836 -31.181  1.00  0.00     0.035 A 
BRANCH  12  17
HETATM   17  O   UNL     1      -5.428   5.867 -33.368  1.00  0.00    -0.354 OA
HETATM   18  C   UNL     1      -4.575   5.133 -34.240  1.00  0.00     0.210 C 
ENDBRANCH  12  17
BRANCH  14  19
HETATM   19  O   UNL     1      -9.549   3.298 -34.150  1.00  0.00    -0.356 OA
HETATM   20  C   UNL     1     -10.303   2.304 -33.468  1.00  0.00     0.210 C 
ENDBRANCH  14  19
ENDBRANCH   9  11
ENDBRANCH   7   9
ENDBRANCH   5   7
ENDBRANCH   2   5
BRANCH   1  21
HETATM   21  C   UNL     1      -3.767   1.512 -31.590  1.00  0.00     0.098 A 
HETATM   22  C   UNL     1      -4.848   0.964 -32.256  1.00  0.00     0.138 A 
HETATM   23  N   UNL     1      -5.938   1.507 -32.855  1.00  0.00    -0.370 N 
HETATM   24  N   UNL     1      -4.670  -0.395 -32.197  1.00  0.00    -0.240 N 
HETATM   25  C   UNL     1      -6.960   0.695 -33.506  1.00  0.00     0.081 C 
HETATM   26  H   UNL     1      -6.216   2.472 -32.674  1.00  0.00     0.161 HD
HETATM   27  C   UNL     1      -6.816   0.814 -35.018  1.00  0.00     0.032 C 
HETATM   28  C   UNL     1      -6.970  -0.741 -32.964  1.00  0.00     0.061 C 
HETATM   29  C   UNL     1      -5.585  -1.372 -32.750  1.00  0.00     0.221 C 
HETATM   30  N   UNL     1      -3.621  -0.774 -31.448  1.00  0.00    -0.181 NA
HETATM   31  C   UNL     1      -3.062   0.388 -31.096  1.00  0.00     0.160 A 
BRANCH  29  32
HETATM   32  C   UNL     1      -4.996  -2.005 -33.988  1.00  0.00     0.409 C 
HETATM   33  F   UNL     1      -5.895  -2.228 -34.966  1.00  0.00    -0.169 F 
HETATM   34  F   UNL     1      -3.996  -1.266 -34.519  1.00  0.00    -0.169 F 
HETATM   35  F   UNL     1      -4.450  -3.210 -33.677  1.00  0.00    -0.169 F 
ENDBRANCH  29  32
ENDBRANCH   1  21
TORSDOF 8
ENDMDL
MODEL 10
REMARK VINA RESULT:      -7.2      1.826      2.287
REMARK  8 active torsions:
REMARK  status: ('A' for Active; 'I' for Inactive)
REMARK    1  A    between atoms: C_8  and  C_9 
REMARK       I    between atoms: C_9  and  N_10 
REMARK    2  A    between atoms: N_10  and  N_11 
REMARK    3  A    between atoms: N_11  and  C_12 
REMARK    4  A    between atoms: C_12  and  N_13 
REMARK    5  A    between atoms: N_13  and  C_14 
REMARK    6  A    between atoms: C_15  and  O_16 
REMARK    7  A    between atoms: C_19  and  O_20 
REMARK    8  A    between atoms: C_26  and  C_27 
ROOT
HETATM    1  C   UNL     1      -5.369   5.136 -29.623  1.00  0.00     0.275 C 
HETATM    2  N   UNL     1      -5.290   3.771 -29.831  1.00  0.00    -0.263 N 
HETATM    3  O   UNL     1      -6.342   5.669 -29.093  1.00  0.00    -0.266 OA
HETATM    4  H   UNL     1      -4.649   3.415 -30.539  1.00  0.00     0.190 HD
ENDROOT
BRANCH   2   5
HETATM    5  N   UNL     1      -6.413   2.978 -29.536  1.00  0.00    -0.273 N 
HETATM    6  H   UNL     1      -6.837   3.183 -28.630  1.00  0.00     0.189 HD
BRANCH   5   7
HETATM    7  C   UNL     1      -7.245   2.545 -30.537  1.00  0.00     0.191 C 
HETATM    8  S   UNL     1      -8.154   3.564 -31.515  1.00  0.00    -0.039 SA
BRANCH   7   9
HETATM    9  N   UNL     1      -7.360   1.201 -30.725  1.00  0.00    -0.330 N 
HETATM   10  H   UNL     1      -7.783   0.704 -29.943  1.00  0.00     0.168 HD
BRANCH   9  11
HETATM   11  C   UNL     1      -7.017   0.359 -31.807  1.00  0.00     0.068 A 
HETATM   12  C   UNL     1      -5.706  -0.165 -31.818  1.00  0.00     0.097 A 
HETATM   13  C   UNL     1      -5.297  -1.014 -32.857  1.00  0.00     0.075 A 
HETATM   14  C   UNL     1      -6.189  -1.356 -33.874  1.00  0.00     0.070 A 
HETATM   15  C   UNL     1      -7.496  -0.870 -33.834  1.00  0.00     0.039 A 
HETATM   16  C   UNL     1      -7.913  -0.022 -32.805  1.00  0.00     0.035 A 
BRANCH  12  17
HETATM   17  O   UNL     1      -4.911   0.224 -30.763  1.00  0.00    -0.354 OA
HETATM   18  C   UNL     1      -3.505   0.069 -30.910  1.00  0.00     0.210 C 
ENDBRANCH  12  17
BRANCH  14  19
HETATM   19  O   UNL     1      -5.921  -2.170 -34.940  1.00  0.00    -0.356 OA
HETATM   20  C   UNL     1      -4.862  -3.108 -34.785  1.00  0.00     0.210 C 
ENDBRANCH  14  19
ENDBRANCH   9  11
ENDBRANCH   7   9
ENDBRANCH   5   7
ENDBRANCH   2   5
BRANCH   1  21
HETATM   21  C   UNL     1      -4.235   5.884 -30.123  1.00  0.00     0.098 A 
HETATM   22  C   UNL     1      -3.287   6.609 -29.423  1.00  0.00     0.138 A 
HETATM   23  N   UNL     1      -3.146   6.922 -28.110  1.00  0.00    -0.370 N 
HETATM   24  N   UNL     1      -2.400   7.065 -30.364  1.00  0.00    -0.240 N 
HETATM   25  C   UNL     1      -2.032   7.720 -27.611  1.00  0.00     0.081 C 
HETATM   26  H   UNL     1      -3.923   6.824 -27.456  1.00  0.00     0.161 HD
HETATM   27  C   UNL     1      -1.047   6.814 -26.882  1.00  0.00     0.032 C 
HETATM   28  C   UNL     1      -1.420   8.590 -28.716  1.00  0.00     0.061 C 
HETATM   29  C   UNL     1      -1.250   7.898 -30.078  1.00  0.00     0.221 C 
HETATM   30  N   UNL     1      -2.759   6.790 -31.629  1.00  0.00    -0.181 NA
HETATM   31  C   UNL     1      -3.865   6.054 -31.479  1.00  0.00     0.160 A 
BRANCH  29  32
HETATM   32  C   UNL     1       0.025   7.099 -30.211  1.00  0.00     0.409 C 
HETATM   33  F   UNL     1       0.535   7.091 -31.458  1.00  0.00    -0.169 F 
HETATM   34  F   UNL     1       0.997   7.536 -29.379  1.00  0.00    -0.169 F 
HETATM   35  F   UNL     1      -0.205   5.802 -29.875  1.00  0.00    -0.169 F 
ENDBRANCH  29  32
ENDBRANCH   1  21
TORSDOF 8
ENDMDL
