MODEL 1
REMARK VINA RESULT:      -8.4      0.000      0.000
REMARK  3 active torsions:
REMARK  status: ('A' for Active; 'I' for Inactive)
REMARK    1  A    between atoms: C_4  and  C_5 
REMARK    2  A    between atoms: C_11  and  C_12 
REMARK    3  A    between atoms: C_21  and  N_22 
ROOT
HETATM    1  C   UNL     1      -7.393   0.174 -34.289  1.00  0.00     0.098 A 
HETATM    2  N   UNL     1      -8.658   0.211 -34.754  1.00  0.00    -0.172 NA
HETATM    3  N   UNL     1      -9.038   1.495 -34.617  1.00  0.00    -0.256 N 
HETATM    4  H   UNL     1      -9.947   1.777 -34.963  1.00  0.00     0.191 HD
HETATM    5  C   UNL     1      -8.074   2.267 -34.060  1.00  0.00     0.175 A 
HETATM    6  C   UNL     1      -7.025   1.442 -33.753  1.00  0.00     0.036 A 
HETATM    7  C   UNL     1      -5.816   2.004 -33.069  1.00  0.00     0.077 C 
HETATM    8  C   UNL     1      -5.785   3.529 -33.370  1.00  0.00     0.076 C 
HETATM    9  C   UNL     1      -4.524   4.191 -33.315  1.00  0.00     0.100 C 
HETATM   10  N   UNL     1      -3.499   4.731 -33.253  1.00  0.00    -0.192 NA
HETATM   11  C   UNL     1      -6.901   4.226 -33.730  1.00  0.00     0.140 C 
HETATM   12  O   UNL     1      -8.138   3.585 -33.929  1.00  0.00    -0.279 OA
ENDROOT
BRANCH   7  13
HETATM   13  C   UNL     1      -5.814   1.791 -31.507  1.00  0.00     0.003 C 
HETATM   14  C   UNL     1      -6.150   0.365 -31.007  1.00  0.00     0.032 C 
HETATM   15  C   UNL     1      -5.001  -0.593 -31.094  1.00  0.00    -0.030 C 
HETATM   16  C   UNL     1      -3.726  -0.197 -31.218  1.00  0.00    -0.031 C 
HETATM   17  C   UNL     1      -3.319   1.245 -31.240  1.00  0.00     0.027 C 
HETATM   18  C   UNL     1      -4.464   2.192 -30.860  1.00  0.00     0.009 C 
ENDBRANCH   7  13
BRANCH  11  19
HETATM   19  N   UNL     1      -6.962   5.580 -33.966  1.00  0.00    -0.282 NA
HETATM   20  H   UNL     1      -7.615   5.871 -34.690  1.00  0.00     0.126 HD
HETATM   21  H   UNL     1      -6.038   5.991 -34.073  1.00  0.00     0.126 HD
ENDBRANCH  11  19
BRANCH   1  22
HETATM   22  C   UNL     1      -6.608  -1.056 -34.368  1.00  0.00    -0.005 A 
HETATM   23  C   UNL     1      -5.208  -1.022 -34.335  1.00  0.00     0.014 A 
HETATM   24  C   UNL     1      -4.468  -2.206 -34.393  1.00  0.00     0.001 A 
HETATM   25  C   UNL     1      -5.121  -3.433 -34.496  1.00  0.00     0.000 A 
HETATM   26  C   UNL     1      -6.514  -3.478 -34.553  1.00  0.00     0.001 A 
HETATM   27  C   UNL     1      -7.253  -2.294 -34.495  1.00  0.00     0.014 A 
ENDBRANCH   1  22
TORSDOF 3
ENDMDL
MODEL 2
REMARK VINA RESULT:      -7.9      2.861      4.391
REMARK  3 active torsions:
REMARK  status: ('A' for Active; 'I' for Inactive)
REMARK    1  A    between atoms: C_4  and  C_5 
REMARK    2  A    between atoms: C_11  and  C_12 
REMARK    3  A    between atoms: C_21  and  N_22 
ROOT
HETATM    1  C   UNL     1      -9.927   0.864 -33.559  1.00  0.00     0.098 A 
HETATM    2  N   UNL     1     -10.952   0.067 -33.194  1.00  0.00    -0.172 NA
HETATM    3  N   UNL     1     -12.025   0.878 -33.163  1.00  0.00    -0.256 N 
HETATM    4  H   UNL     1     -12.935   0.479 -32.969  1.00  0.00     0.191 HD
HETATM    5  C   UNL     1     -11.717   2.161 -33.469  1.00  0.00     0.175 A 
HETATM    6  C   UNL     1     -10.361   2.218 -33.650  1.00  0.00     0.036 A 
HETATM    7  C   UNL     1      -9.708   3.533 -33.950  1.00  0.00     0.077 C 
HETATM    8  C   UNL     1     -10.799   4.460 -34.556  1.00  0.00     0.076 C 
HETATM    9  C   UNL     1     -10.371   5.525 -35.401  1.00  0.00     0.100 C 
HETATM   10  N   UNL     1     -10.018   6.402 -36.074  1.00  0.00    -0.192 NA
HETATM   11  C   UNL     1     -12.131   4.253 -34.348  1.00  0.00     0.140 C 
HETATM   12  O   UNL     1     -12.602   3.136 -33.635  1.00  0.00    -0.279 OA
ENDROOT
BRANCH   7  13
HETATM   13  C   UNL     1      -9.085   4.236 -32.685  1.00  0.00     0.003 C 
HETATM   14  C   UNL     1      -8.362   3.314 -31.673  1.00  0.00     0.032 C 
HETATM   15  C   UNL     1      -6.974   2.930 -32.086  1.00  0.00    -0.030 C 
HETATM   16  C   UNL     1      -6.279   3.597 -33.018  1.00  0.00    -0.031 C 
HETATM   17  C   UNL     1      -6.803   4.820 -33.708  1.00  0.00     0.027 C 
HETATM   18  C   UNL     1      -8.088   5.359 -33.068  1.00  0.00     0.009 C 
ENDBRANCH   7  13
BRANCH  11  19
HETATM   19  N   UNL     1     -13.151   5.054 -34.811  1.00  0.00    -0.282 NA
HETATM   20  H   UNL     1     -13.853   4.586 -35.380  1.00  0.00     0.126 HD
HETATM   21  H   UNL     1     -12.802   5.912 -35.231  1.00  0.00     0.126 HD
ENDBRANCH  11  19
BRANCH   1  22
HETATM   22  C   UNL     1      -8.598   0.305 -33.793  1.00  0.00    -0.005 A 
HETATM   23  C   UNL     1      -8.012   0.343 -35.066  1.00  0.00     0.014 A 
HETATM   24  C   UNL     1      -6.732  -0.179 -35.273  1.00  0.00     0.001 A 
HETATM   25  C   UNL     1      -6.032  -0.753 -34.214  1.00  0.00     0.000 A 
HETATM   26  C   UNL     1      -6.614  -0.818 -32.949  1.00  0.00     0.001 A 
HETATM   27  C   UNL     1      -7.894  -0.296 -32.741  1.00  0.00     0.014 A 
ENDBRANCH   1  22
TORSDOF 3
ENDMDL
MODEL 3
REMARK VINA RESULT:      -7.9      2.543      4.302
REMARK  3 active torsions:
REMARK  status: ('A' for Active; 'I' for Inactive)
REMARK    1  A    between atoms: C_4  and  C_5 
REMARK    2  A    between atoms: C_11  and  C_12 
REMARK    3  A    between atoms: C_21  and  N_22 
ROOT
HETATM    1  C   UNL     1      -4.534  -0.475 -32.700  1.00  0.00     0.098 A 
HETATM    2  N   UNL     1      -3.220  -0.531 -32.399  1.00  0.00    -0.172 NA
HETATM    3  N   UNL     1      -2.990   0.567 -31.655  1.00  0.00    -0.256 N 
HETATM    4  H   UNL     1      -2.069   0.706 -31.258  1.00  0.00     0.191 HD
HETATM    5  C   UNL     1      -4.098   1.330 -31.495  1.00  0.00     0.175 A 
HETATM    6  C   UNL     1      -5.100   0.742 -32.221  1.00  0.00     0.036 A 
HETATM    7  C   UNL     1      -6.449   1.391 -32.283  1.00  0.00     0.077 C 
HETATM    8  C   UNL     1      -6.577   2.306 -31.032  1.00  0.00     0.076 C 
HETATM    9  C   UNL     1      -7.888   2.605 -30.559  1.00  0.00     0.100 C 
HETATM   10  N   UNL     1      -8.957   2.861 -30.188  1.00  0.00    -0.192 NA
HETATM   11  C   UNL     1      -5.489   2.776 -30.357  1.00  0.00     0.140 C 
HETATM   12  O   UNL     1      -4.181   2.393 -30.707  1.00  0.00    -0.279 OA
ENDROOT
BRANCH   7  13
HETATM   13  C   UNL     1      -6.676   2.261 -33.577  1.00  0.00     0.003 C 
HETATM   14  C   UNL     1      -6.360   1.577 -34.930  1.00  0.00     0.032 C 
HETATM   15  C   UNL     1      -7.441   0.659 -35.412  1.00  0.00    -0.030 C 
HETATM   16  C   UNL     1      -8.698   0.704 -34.948  1.00  0.00    -0.031 C 
HETATM   17  C   UNL     1      -9.158   1.705 -33.932  1.00  0.00     0.027 C 
HETATM   18  C   UNL     1      -8.124   2.807 -33.673  1.00  0.00     0.009 C 
ENDBRANCH   7  13
BRANCH  11  19
HETATM   19  N   UNL     1      -5.521   3.623 -29.273  1.00  0.00    -0.282 NA
HETATM   20  H   UNL     1      -4.935   3.353 -28.486  1.00  0.00     0.126 HD
HETATM   21  H   UNL     1      -6.472   3.861 -29.001  1.00  0.00     0.126 HD
ENDBRANCH  11  19
BRANCH   1  22
HETATM   22  C   UNL     1      -5.176  -1.566 -33.428  1.00  0.00    -0.005 A 
HETATM   23  C   UNL     1      -6.570  -1.707 -33.437  1.00  0.00     0.014 A 
HETATM   24  C   UNL     1      -7.174  -2.744 -34.152  1.00  0.00     0.001 A 
HETATM   25  C   UNL     1      -6.389  -3.656 -34.856  1.00  0.00     0.000 A 
HETATM   26  C   UNL     1      -5.000  -3.540 -34.837  1.00  0.00     0.001 A 
HETATM   27  C   UNL     1      -4.396  -2.503 -34.121  1.00  0.00     0.014 A 
ENDBRANCH   1  22
TORSDOF 3
ENDMDL
MODEL 4
REMARK VINA RESULT:      -7.8      2.405      2.877
REMARK  3 active torsions:
REMARK  status: ('A' for Active; 'I' for Inactive)
REMARK    1  A    between atoms: C_4  and  C_5 
REMARK    2  A    between atoms: C_11  and  C_12 
REMARK    3  A    between atoms: C_21  and  N_22 
ROOT
HETATM    1  C   UNL     1      -8.271   1.601 -31.996  1.00  0.00     0.098 A 
HETATM    2  N   UNL     1      -9.489   1.390 -31.455  1.00  0.00    -0.172 NA
HETATM    3  N   UNL     1      -9.652   2.392 -30.572  1.00  0.00    -0.256 N 
HETATM    4  H   UNL     1     -10.533   2.474 -30.081  1.00  0.00     0.191 HD
HETATM    5  C   UNL     1      -8.577   3.215 -30.513  1.00  0.00     0.175 A 
HETATM    6  C   UNL     1      -7.627   2.697 -31.352  1.00  0.00     0.036 A 
HETATM    7  C   UNL     1      -6.291   3.366 -31.462  1.00  0.00     0.077 C 
HETATM    8  C   UNL     1      -6.479   4.844 -31.016  1.00  0.00     0.076 C 
HETATM    9  C   UNL     1      -5.557   5.810 -31.514  1.00  0.00     0.100 C 
HETATM   10  N   UNL     1      -4.793   6.591 -31.906  1.00  0.00    -0.192 NA
HETATM   11  C   UNL     1      -7.514   5.242 -30.222  1.00  0.00     0.140 C 
HETATM   12  O   UNL     1      -8.523   4.346 -29.823  1.00  0.00    -0.279 OA
ENDROOT
BRANCH   7  13
HETATM   13  C   UNL     1      -5.173   2.703 -30.570  1.00  0.00     0.003 C 
HETATM   14  C   UNL     1      -5.320   1.185 -30.301  1.00  0.00     0.032 C 
HETATM   15  C   UNL     1      -4.863   0.321 -31.437  1.00  0.00    -0.030 C 
HETATM   16  C   UNL     1      -4.064   0.766 -32.417  1.00  0.00    -0.031 C 
HETATM   17  C   UNL     1      -3.512   2.159 -32.452  1.00  0.00     0.027 C 
HETATM   18  C   UNL     1      -3.752   2.926 -31.146  1.00  0.00     0.009 C 
ENDBRANCH   7  13
BRANCH  11  19
HETATM   19  N   UNL     1      -7.722   6.518 -29.751  1.00  0.00    -0.282 NA
HETATM   20  H   UNL     1      -7.437   7.269 -30.375  1.00  0.00     0.126 HD
HETATM   21  H   UNL     1      -7.377   6.635 -28.801  1.00  0.00     0.126 HD
ENDBRANCH  11  19
BRANCH   1  22
HETATM   22  C   UNL     1      -7.784   0.754 -33.082  1.00  0.00    -0.005 A 
HETATM   23  C   UNL     1      -7.392   1.307 -34.309  1.00  0.00     0.014 A 
HETATM   24  C   UNL     1      -6.910   0.488 -35.334  1.00  0.00     0.001 A 
HETATM   25  C   UNL     1      -6.826  -0.890 -35.145  1.00  0.00     0.000 A 
HETATM   26  C   UNL     1      -7.235  -1.454 -33.938  1.00  0.00     0.001 A 
HETATM   27  C   UNL     1      -7.718  -0.635 -32.913  1.00  0.00     0.014 A 
ENDBRANCH   1  22
TORSDOF 3
ENDMDL
MODEL 5
REMARK VINA RESULT:      -7.7      2.873      6.201
REMARK  3 active torsions:
REMARK  status: ('A' for Active; 'I' for Inactive)
REMARK    1  A    between atoms: C_4  and  C_5 
REMARK    2  A    between atoms: C_11  and  C_12 
REMARK    3  A    between atoms: C_21  and  N_22 
ROOT
HETATM    1  C   UNL     1      -4.017   1.589 -31.907  1.00  0.00     0.098 A 
HETATM    2  N   UNL     1      -2.983   1.596 -31.041  1.00  0.00    -0.172 NA
HETATM    3  N   UNL     1      -2.658   0.299 -30.883  1.00  0.00    -0.256 N 
HETATM    4  H   UNL     1      -1.856   0.061 -30.312  1.00  0.00     0.191 HD
HETATM    5  C   UNL     1      -3.461  -0.530 -31.593  1.00  0.00     0.175 A 
HETATM    6  C   UNL     1      -4.405   0.251 -32.204  1.00  0.00     0.036 A 
HETATM    7  C   UNL     1      -5.478  -0.394 -33.029  1.00  0.00     0.077 C 
HETATM    8  C   UNL     1      -4.943  -1.783 -33.475  1.00  0.00     0.076 C 
HETATM    9  C   UNL     1      -5.491  -2.357 -34.659  1.00  0.00     0.100 C 
HETATM   10  N   UNL     1      -5.952  -2.830 -35.613  1.00  0.00    -0.192 NA
HETATM   11  C   UNL     1      -3.944  -2.430 -32.808  1.00  0.00     0.140 C 
HETATM   12  O   UNL     1      -3.282  -1.838 -31.717  1.00  0.00    -0.279 OA
ENDROOT
BRANCH   7  13
HETATM   13  C   UNL     1      -6.838  -0.594 -32.257  1.00  0.00     0.003 C 
HETATM   14  C   UNL     1      -7.172   0.456 -31.170  1.00  0.00     0.032 C 
HETATM   15  C   UNL     1      -7.724   1.738 -31.715  1.00  0.00    -0.030 C 
HETATM   16  C   UNL     1      -8.237   1.847 -32.949  1.00  0.00    -0.031 C 
HETATM   17  C   UNL     1      -8.351   0.686 -33.890  1.00  0.00     0.027 C 
HETATM   18  C   UNL     1      -8.054  -0.659 -33.215  1.00  0.00     0.009 C 
ENDBRANCH   7  13
BRANCH  11  19
HETATM   19  N   UNL     1      -3.450  -3.678 -33.114  1.00  0.00    -0.282 NA
HETATM   20  H   UNL     1      -2.538  -3.691 -33.564  1.00  0.00     0.126 HD
HETATM   21  H   UNL     1      -4.139  -4.256 -33.589  1.00  0.00     0.126 HD
ENDBRANCH  11  19
BRANCH   1  22
HETATM   22  C   UNL     1      -4.583   2.843 -32.398  1.00  0.00    -0.005 A 
HETATM   23  C   UNL     1      -4.768   3.936 -31.541  1.00  0.00     0.014 A 
HETATM   24  C   UNL     1      -5.293   5.137 -32.026  1.00  0.00     0.001 A 
HETATM   25  C   UNL     1      -5.647   5.252 -33.369  1.00  0.00     0.000 A 
HETATM   26  C   UNL     1      -5.489   4.165 -34.227  1.00  0.00     0.001 A 
HETATM   27  C   UNL     1      -4.964   2.964 -33.742  1.00  0.00     0.014 A 
ENDBRANCH   1  22
TORSDOF 3
ENDMDL
MODEL 6
REMARK VINA RESULT:      -7.6      2.791      3.999
REMARK  3 active torsions:
REMARK  status: ('A' for Active; 'I' for Inactive)
REMARK    1  A    between atoms: C_4  and  C_5 
REMARK    2  A    between atoms: C_11  and  C_12 
REMARK    3  A    between atoms: C_21  and  N_22 
ROOT
HETATM    1  C   UNL     1      -7.637   2.889 -31.085  1.00  0.00     0.098 A 
HETATM    2  N   UNL     1      -8.371   3.510 -30.138  1.00  0.00    -0.172 NA
HETATM    3  N   UNL     1      -7.498   4.304 -29.492  1.00  0.00    -0.256 N 
HETATM    4  H   UNL     1      -7.842   4.922 -28.767  1.00  0.00     0.191 HD
HETATM    5  C   UNL     1      -6.236   4.193 -29.973  1.00  0.00     0.175 A 
HETATM    6  C   UNL     1      -6.260   3.230 -30.946  1.00  0.00     0.036 A 
HETATM    7  C   UNL     1      -4.988   2.842 -31.635  1.00  0.00     0.077 C 
HETATM    8  C   UNL     1      -4.001   4.034 -31.486  1.00  0.00     0.076 C 
HETATM    9  C   UNL     1      -2.968   4.168 -32.458  1.00  0.00     0.100 C 
HETATM   10  N   UNL     1      -2.117   4.263 -33.241  1.00  0.00    -0.192 NA
HETATM   11  C   UNL     1      -4.128   4.968 -30.500  1.00  0.00     0.140 C 
HETATM   12  O   UNL     1      -5.213   4.952 -29.603  1.00  0.00    -0.279 OA
ENDROOT
BRANCH   7  13
HETATM   13  C   UNL     1      -4.314   1.545 -31.043  1.00  0.00     0.003 C 
HETATM   14  C   UNL     1      -5.257   0.549 -30.324  1.00  0.00     0.032 C 
HETATM   15  C   UNL     1      -6.030  -0.334 -31.256  1.00  0.00    -0.030 C 
HETATM   16  C   UNL     1      -5.684  -0.526 -32.537  1.00  0.00    -0.031 C 
HETATM   17  C   UNL     1      -4.463   0.088 -33.153  1.00  0.00     0.027 C 
HETATM   18  C   UNL     1      -3.539   0.741 -32.117  1.00  0.00     0.009 C 
ENDBRANCH   7  13
BRANCH  11  19
HETATM   19  N   UNL     1      -3.273   6.022 -30.276  1.00  0.00    -0.282 NA
HETATM   20  H   UNL     1      -3.709   6.880 -29.946  1.00  0.00     0.126 HD
HETATM   21  H   UNL     1      -2.636   6.171 -31.056  1.00  0.00     0.126 HD
ENDBRANCH  11  19
BRANCH   1  22
HETATM   22  C   UNL     1      -8.274   2.007 -32.059  1.00  0.00    -0.005 A 
HETATM   23  C   UNL     1      -8.017   2.139 -33.430  1.00  0.00     0.014 A 
HETATM   24  C   UNL     1      -8.618   1.277 -34.351  1.00  0.00     0.001 A 
HETATM   25  C   UNL     1      -9.490   0.282 -33.910  1.00  0.00     0.000 A 
HETATM   26  C   UNL     1      -9.771   0.155 -32.551  1.00  0.00     0.001 A 
HETATM   27  C   UNL     1      -9.170   1.018 -31.630  1.00  0.00     0.014 A 
ENDBRANCH   1  22
TORSDOF 3
ENDMDL
MODEL 7
REMARK VINA RESULT:      -7.5     15.157     17.057
REMARK  3 active torsions:
REMARK  status: ('A' for Active; 'I' for Inactive)
REMARK    1  A    between atoms: C_4  and  C_5 
REMARK    2  A    between atoms: C_11  and  C_12 
REMARK    3  A    between atoms: C_21  and  N_22 
ROOT
HETATM    1  C   UNL     1      -3.333 -14.478 -40.340  1.00  0.00     0.098 A 
HETATM    2  N   UNL     1      -1.987 -14.397 -40.370  1.00  0.00    -0.172 NA
HETATM    3  N   UNL     1      -1.633 -14.069 -39.114  1.00  0.00    -0.256 N 
HETATM    4  H   UNL     1      -0.650 -14.011 -38.881  1.00  0.00     0.191 HD
HETATM    5  C   UNL     1      -2.702 -13.914 -38.295  1.00  0.00     0.175 A 
HETATM    6  C   UNL     1      -3.824 -14.085 -39.061  1.00  0.00     0.036 A 
HETATM    7  C   UNL     1      -5.177 -13.921 -38.439  1.00  0.00     0.077 C 
HETATM    8  C   UNL     1      -5.012 -14.149 -36.910  1.00  0.00     0.076 C 
HETATM    9  C   UNL     1      -6.155 -14.578 -36.175  1.00  0.00     0.100 C 
HETATM   10  N   UNL     1      -7.092 -14.910 -35.577  1.00  0.00    -0.192 NA
HETATM   11  C   UNL     1      -3.813 -14.006 -36.276  1.00  0.00     0.140 C 
HETATM   12  O   UNL     1      -2.632 -13.718 -36.985  1.00  0.00    -0.279 OA
ENDROOT
BRANCH   7  13
HETATM   13  C   UNL     1      -5.817 -12.500 -38.677  1.00  0.00     0.003 C 
HETATM   14  C   UNL     1      -5.647 -11.898 -40.093  1.00  0.00     0.032 C 
HETATM   15  C   UNL     1      -6.606 -12.448 -41.104  1.00  0.00    -0.030 C 
HETATM   16  C   UNL     1      -7.732 -13.093 -40.768  1.00  0.00    -0.031 C 
HETATM   17  C   UNL     1      -8.167 -13.290 -39.347  1.00  0.00     0.027 C 
HETATM   18  C   UNL     1      -7.331 -12.475 -38.352  1.00  0.00     0.009 C 
ENDBRANCH   7  13
BRANCH  11  19
HETATM   19  N   UNL     1      -3.597 -14.145 -34.924  1.00  0.00    -0.282 NA
HETATM   20  H   UNL     1      -3.414 -13.283 -34.416  1.00  0.00     0.126 HD
HETATM   21  H   UNL     1      -2.925 -14.881 -34.718  1.00  0.00     0.126 HD
ENDBRANCH  11  19
BRANCH   1  22
HETATM   22  C   UNL     1      -4.078 -14.912 -41.519  1.00  0.00    -0.005 A 
HETATM   23  C   UNL     1      -5.136 -15.824 -41.409  1.00  0.00     0.014 A 
HETATM   24  C   UNL     1      -5.853 -16.218 -42.542  1.00  0.00     0.001 A 
HETATM   25  C   UNL     1      -5.512 -15.713 -43.795  1.00  0.00     0.000 A 
HETATM   26  C   UNL     1      -4.446 -14.823 -43.921  1.00  0.00     0.001 A 
HETATM   27  C   UNL     1      -3.729 -14.429 -42.788  1.00  0.00     0.014 A 
ENDBRANCH   1  22
TORSDOF 3
ENDMDL
MODEL 8
REMARK VINA RESULT:      -7.5      2.016      4.489
REMARK  3 active torsions:
REMARK  status: ('A' for Active; 'I' for Inactive)
REMARK    1  A    between atoms: C_4  and  C_5 
REMARK    2  A    between atoms: C_11  and  C_12 
REMARK    3  A    between atoms: C_21  and  N_22 
ROOT
HETATM    1  C   UNL     1      -5.314   3.074 -32.980  1.00  0.00     0.098 A 
HETATM    2  N   UNL     1      -4.464   4.047 -33.369  1.00  0.00    -0.172 NA
HETATM    3  N   UNL     1      -5.250   4.993 -33.915  1.00  0.00    -0.256 N 
HETATM    4  H   UNL     1      -4.829   5.859 -34.228  1.00  0.00     0.191 HD
HETATM    5  C   UNL     1      -6.560   4.648 -33.911  1.00  0.00     0.175 A 
HETATM    6  C   UNL     1      -6.642   3.383 -33.394  1.00  0.00     0.036 A 
HETATM    7  C   UNL     1      -7.974   2.702 -33.310  1.00  0.00     0.077 C 
HETATM    8  C   UNL     1      -9.060   3.814 -33.307  1.00  0.00     0.076 C 
HETATM    9  C   UNL     1     -10.319   3.511 -32.712  1.00  0.00     0.100 C 
HETATM   10  N   UNL     1     -11.349   3.255 -32.243  1.00  0.00    -0.192 NA
HETATM   11  C   UNL     1      -8.827   5.064 -33.800  1.00  0.00     0.140 C 
HETATM   12  O   UNL     1      -7.557   5.446 -34.271  1.00  0.00    -0.279 OA
ENDROOT
BRANCH   7  13
HETATM   13  C   UNL     1      -8.258   1.713 -34.504  1.00  0.00     0.003 C 
HETATM   14  C   UNL     1      -7.034   0.956 -35.076  1.00  0.00     0.032 C 
HETATM   15  C   UNL     1      -6.617  -0.227 -34.256  1.00  0.00    -0.030 C 
HETATM   16  C   UNL     1      -7.418  -0.809 -33.352  1.00  0.00    -0.031 C 
HETATM   17  C   UNL     1      -8.827  -0.363 -33.102  1.00  0.00     0.027 C 
HETATM   18  C   UNL     1      -9.324   0.647 -34.145  1.00  0.00     0.009 C 
ENDBRANCH   7  13
BRANCH  11  19
HETATM   19  N   UNL     1      -9.748   6.083 -33.874  1.00  0.00    -0.282 NA
HETATM   20  H   UNL     1     -10.268   6.143 -34.747  1.00  0.00     0.126 HD
HETATM   21  H   UNL     1      -9.356   6.975 -33.581  1.00  0.00     0.126 HD
ENDBRANCH  11  19
BRANCH   1  22
HETATM   22  C   UNL     1      -4.824   1.909 -32.248  1.00  0.00    -0.005 A 
HETATM   23  C   UNL     1      -3.686   1.213 -32.678  1.00  0.00     0.014 A 
HETATM   24  C   UNL     1      -3.216   0.110 -31.959  1.00  0.00     0.001 A 
HETATM   25  C   UNL     1      -3.885  -0.312 -30.811  1.00  0.00     0.000 A 
HETATM   26  C   UNL     1      -5.031   0.358 -30.387  1.00  0.00     0.001 A 
HETATM   27  C   UNL     1      -5.501   1.461 -31.106  1.00  0.00     0.014 A 
ENDBRANCH   1  22
TORSDOF 3
ENDMDL
MODEL 9
REMARK VINA RESULT:      -7.5     15.046     16.755
REMARK  3 active torsions:
REMARK  status: ('A' for Active; 'I' for Inactive)
REMARK    1  A    between atoms: C_4  and  C_5 
REMARK    2  A    between atoms: C_11  and  C_12 
REMARK    3  A    between atoms: C_21  and  N_22 
ROOT
HETATM    1  C   UNL     1      -7.238 -14.730 -37.486  1.00  0.00     0.098 A 
HETATM    2  N   UNL     1      -7.653 -15.525 -36.478  1.00  0.00    -0.172 NA
HETATM    3  N   UNL     1      -6.530 -15.848 -35.811  1.00  0.00    -0.256 N 
HETATM    4  H   UNL     1      -6.605 -16.399 -34.964  1.00  0.00     0.191 HD
HETATM    5  C   UNL     1      -5.418 -15.314 -36.370  1.00  0.00     0.175 A 
HETATM    6  C   UNL     1      -5.815 -14.653 -37.502  1.00  0.00     0.036 A 
HETATM    7  C   UNL     1      -4.789 -13.994 -38.373  1.00  0.00     0.077 C 
HETATM    8  C   UNL     1      -3.540 -13.722 -37.488  1.00  0.00     0.076 C 
HETATM    9  C   UNL     1      -2.665 -12.668 -37.880  1.00  0.00     0.100 C 
HETATM   10  N   UNL     1      -1.945 -11.821 -38.212  1.00  0.00    -0.192 NA
HETATM   11  C   UNL     1      -3.293 -14.416 -36.340  1.00  0.00     0.140 C 
HETATM   12  O   UNL     1      -4.201 -15.369 -35.844  1.00  0.00    -0.279 OA
ENDROOT
BRANCH   7  13
HETATM   13  C   UNL     1      -4.356 -14.865 -39.613  1.00  0.00     0.003 C 
HETATM   14  C   UNL     1      -5.426 -15.829 -40.183  1.00  0.00     0.032 C 
HETATM   15  C   UNL     1      -6.436 -15.159 -41.064  1.00  0.00    -0.030 C 
HETATM   16  C   UNL     1      -6.238 -13.954 -41.618  1.00  0.00    -0.031 C 
HETATM   17  C   UNL     1      -4.969 -13.176 -41.448  1.00  0.00     0.027 C 
HETATM   18  C   UNL     1      -3.851 -13.998 -40.794  1.00  0.00     0.009 C 
ENDBRANCH   7  13
BRANCH  11  19
HETATM   19  N   UNL     1      -2.191 -14.265 -35.530  1.00  0.00    -0.282 NA
HETATM   20  H   UNL     1      -1.371 -13.859 -35.976  1.00  0.00     0.126 HD
HETATM   21  H   UNL     1      -1.983 -15.111 -35.005  1.00  0.00     0.126 HD
ENDBRANCH  11  19
BRANCH   1  22
HETATM   22  C   UNL     1      -8.205 -14.098 -38.380  1.00  0.00    -0.005 A 
HETATM   23  C   UNL     1      -8.132 -12.729 -38.670  1.00  0.00     0.014 A 
HETATM   24  C   UNL     1      -9.052 -12.139 -39.541  1.00  0.00     0.001 A 
HETATM   25  C   UNL     1     -10.058 -12.909 -40.121  1.00  0.00     0.000 A 
HETATM   26  C   UNL     1     -10.155 -14.267 -39.822  1.00  0.00     0.001 A 
HETATM   27  C   UNL     1      -9.235 -14.858 -38.950  1.00  0.00     0.014 A 
ENDBRANCH   1  22
TORSDOF 3
ENDMDL
MODEL 10
REMARK VINA RESULT:      -7.4     15.063     17.536
REMARK  3 active torsions:
REMARK  status: ('A' for Active; 'I' for Inactive)
REMARK    1  A    between atoms: C_4  and  C_5 
REMARK    2  A    between atoms: C_11  and  C_12 
REMARK    3  A    between atoms: C_21  and  N_22 
ROOT
HETATM    1  C   UNL     1      -4.738 -13.676 -39.230  1.00  0.00     0.098 A 
HETATM    2  N   UNL     1      -5.752 -12.912 -39.686  1.00  0.00    -0.172 NA
HETATM    3  N   UNL     1      -5.600 -12.901 -41.023  1.00  0.00    -0.256 N 
HETATM    4  H   UNL     1      -6.294 -12.431 -41.592  1.00  0.00     0.191 HD
HETATM    5  C   UNL     1      -4.516 -13.604 -41.431  1.00  0.00     0.175 A 
HETATM    6  C   UNL     1      -3.881 -14.053 -40.304  1.00  0.00     0.036 A 
HETATM    7  C   UNL     1      -2.604 -14.827 -40.432  1.00  0.00     0.077 C 
HETATM    8  C   UNL     1      -2.581 -15.443 -41.859  1.00  0.00     0.076 C 
HETATM    9  C   UNL     1      -1.799 -16.617 -42.064  1.00  0.00     0.100 C 
HETATM   10  N   UNL     1      -1.147 -17.562 -42.231  1.00  0.00    -0.192 NA
HETATM   11  C   UNL     1      -3.318 -14.932 -42.887  1.00  0.00     0.140 C 
HETATM   12  O   UNL     1      -4.208 -13.860 -42.695  1.00  0.00    -0.279 OA
ENDROOT
BRANCH   7  13
HETATM   13  C   UNL     1      -1.308 -13.953 -40.232  1.00  0.00     0.003 C 
HETATM   14  C   UNL     1      -1.344 -12.926 -39.074  1.00  0.00     0.032 C 
HETATM   15  C   UNL     1      -1.091 -13.526 -37.724  1.00  0.00    -0.030 C 
HETATM   16  C   UNL     1      -0.520 -14.727 -37.554  1.00  0.00    -0.031 C 
HETATM   17  C   UNL     1      -0.037 -15.570 -38.695  1.00  0.00     0.027 C 
HETATM   18  C   UNL     1      -0.039 -14.819 -40.032  1.00  0.00     0.009 C 
ENDBRANCH   7  13
BRANCH  11  19
HETATM   19  N   UNL     1      -3.315 -15.392 -44.184  1.00  0.00    -0.282 NA
HETATM   20  H   UNL     1      -3.271 -16.403 -44.292  1.00  0.00     0.126 HD
HETATM   21  H   UNL     1      -2.641 -14.898 -44.764  1.00  0.00     0.126 HD
ENDBRANCH  11  19
BRANCH   1  22
HETATM   22  C   UNL     1      -4.632 -13.998 -37.809  1.00  0.00    -0.005 A 
HETATM   23  C   UNL     1      -4.570 -15.329 -37.374  1.00  0.00     0.014 A 
HETATM   24  C   UNL     1      -4.450 -15.624 -36.013  1.00  0.00     0.001 A 
HETATM   25  C   UNL     1      -4.403 -14.594 -35.076  1.00  0.00     0.000 A 
HETATM   26  C   UNL     1      -4.487 -13.267 -35.495  1.00  0.00     0.001 A 
HETATM   27  C   UNL     1      -4.607 -12.971 -36.856  1.00  0.00     0.014 A 
ENDBRANCH   1  22
TORSDOF 3
ENDMDL
