MODEL 1
REMARK VINA RESULT:      -7.9      0.000      0.000
REMARK  5 active torsions:
REMARK  status: ('A' for Active; 'I' for Inactive)
REMARK    1  A    between atoms: C_7  and  C_8 
REMARK    2  A    between atoms: C_8  and  N_9 
REMARK    3  A    between atoms: N_9  and  C_12 
REMARK    4  A    between atoms: C_15  and  O_16 
REMARK    5  A    between atoms: O_16  and  C_17 
ROOT
HETATM    1  C   UNL     1      -6.487  -0.534 -33.907  1.00  0.00     0.164 A 
HETATM    2  N   UNL     1      -5.274  -0.463 -33.322  1.00  0.00    -0.236 NA
HETATM    3  C   UNL     1      -4.495  -1.572 -33.405  1.00  0.00     0.142 A 
HETATM    4  C   UNL     1      -4.881  -2.746 -34.038  1.00  0.00     0.062 A 
HETATM    5  C   UNL     1      -3.999  -3.869 -34.084  1.00  0.00     0.101 C 
HETATM    6  N   UNL     1      -3.281  -4.778 -34.119  1.00  0.00    -0.191 NA
HETATM    7  C   UNL     1      -6.147  -2.789 -34.620  1.00  0.00     0.028 A 
HETATM    8  C   UNL     1      -6.969  -1.665 -34.548  1.00  0.00     0.059 A 
ENDROOT
BRANCH   1   9
HETATM    9  O   UNL     1      -7.338   0.549 -33.847  1.00  0.00    -0.329 OA
BRANCH   9  10
HETATM   10  C   UNL     1      -8.716   0.214 -33.634  1.00  0.00     0.130 C 
HETATM   11  C   UNL     1      -8.974   0.368 -32.128  1.00  0.00     0.034 C 
HETATM   12  C   UNL     1      -8.803   1.816 -31.660  1.00  0.00     0.035 C 
HETATM   13  C   UNL     1      -9.662   2.808 -32.451  1.00  0.00     0.186 C 
HETATM   14  C   UNL     1      -9.471   2.628 -33.961  1.00  0.00     0.035 C 
HETATM   15  C   UNL     1      -9.622   1.173 -34.421  1.00  0.00     0.034 C 
BRANCH  13  16
HETATM   16  N   UNL     1     -11.122   2.629 -32.128  1.00  0.00    -0.067 N 
HETATM   17  H   UNL     1     -11.315   2.804 -31.135  1.00  0.00     0.278 HD
HETATM   18  H   UNL     1     -11.373   1.641 -32.276  1.00  0.00     0.278 HD
BRANCH  16  19
HETATM   19  C   UNL     1     -12.082   3.430 -32.953  1.00  0.00     0.280 C 
BRANCH  19  20
HETATM   20  C   UNL     1     -13.458   2.887 -32.833  1.00  0.00     0.034 A 
HETATM   21  C   UNL     1     -13.966   1.667 -33.250  1.00  0.00     0.046 A 
HETATM   22  C   UNL     1     -13.236   0.565 -33.934  1.00  0.00     0.071 C 
HETATM   23  N   UNL     1     -15.308   1.487 -32.986  1.00  0.00    -0.250 NA
HETATM   24  C   UNL     1     -15.807   2.525 -32.352  1.00  0.00     0.072 A 
HETATM   25  C   UNL     1     -17.214   2.630 -31.878  1.00  0.00     0.078 C 
HETATM   26  S   UNL     1     -14.700   3.810 -32.089  1.00  0.00    -0.076 SA
ENDBRANCH  19  20
ENDBRANCH  16  19
ENDBRANCH  13  16
ENDBRANCH   9  10
ENDBRANCH   1   9
TORSDOF 5
ENDMDL
MODEL 2
REMARK VINA RESULT:      -7.8      6.293      8.674
REMARK  5 active torsions:
REMARK  status: ('A' for Active; 'I' for Inactive)
REMARK    1  A    between atoms: C_7  and  C_8 
REMARK    2  A    between atoms: C_8  and  N_9 
REMARK    3  A    between atoms: N_9  and  C_12 
REMARK    4  A    between atoms: C_15  and  O_16 
REMARK    5  A    between atoms: O_16  and  C_17 
ROOT
HETATM    1  C   UNL     1      -5.581   0.088 -33.531  1.00  0.00     0.164 A 
HETATM    2  N   UNL     1      -4.560  -0.788 -33.425  1.00  0.00    -0.236 NA
HETATM    3  C   UNL     1      -4.791  -2.046 -33.882  1.00  0.00     0.142 A 
HETATM    4  C   UNL     1      -5.996  -2.464 -34.429  1.00  0.00     0.062 A 
HETATM    5  C   UNL     1      -6.156  -3.806 -34.891  1.00  0.00     0.101 C 
HETATM    6  N   UNL     1      -6.283  -4.897 -35.264  1.00  0.00    -0.191 NA
HETATM    7  C   UNL     1      -7.034  -1.537 -34.510  1.00  0.00     0.028 A 
HETATM    8  C   UNL     1      -6.826  -0.238 -34.046  1.00  0.00     0.059 A 
ENDROOT
BRANCH   1   9
HETATM    9  O   UNL     1      -5.423   1.378 -33.071  1.00  0.00    -0.329 OA
BRANCH   9  10
HETATM   10  C   UNL     1      -4.589   1.501 -31.912  1.00  0.00     0.130 C 
HETATM   11  C   UNL     1      -3.289   2.171 -32.379  1.00  0.00     0.034 C 
HETATM   12  C   UNL     1      -3.529   3.594 -32.893  1.00  0.00     0.035 C 
HETATM   13  C   UNL     1      -4.252   4.486 -31.879  1.00  0.00     0.186 C 
HETATM   14  C   UNL     1      -5.519   3.807 -31.347  1.00  0.00     0.035 C 
HETATM   15  C   UNL     1      -5.279   2.376 -30.854  1.00  0.00     0.034 C 
BRANCH  13  16
HETATM   16  N   UNL     1      -3.356   4.806 -30.712  1.00  0.00    -0.067 N 
HETATM   17  H   UNL     1      -3.221   3.990 -30.102  1.00  0.00     0.278 HD
HETATM   18  H   UNL     1      -3.825   5.504 -30.117  1.00  0.00     0.278 HD
BRANCH  16  19
HETATM   19  C   UNL     1      -2.014   5.381 -31.049  1.00  0.00     0.280 C 
BRANCH  19  20
HETATM   20  C   UNL     1      -2.090   6.858 -31.171  1.00  0.00     0.034 A 
HETATM   21  C   UNL     1      -2.020   7.655 -32.302  1.00  0.00     0.046 A 
HETATM   22  C   UNL     1      -1.854   7.216 -33.714  1.00  0.00     0.071 C 
HETATM   23  N   UNL     1      -2.118   9.008 -32.053  1.00  0.00    -0.250 NA
HETATM   24  C   UNL     1      -2.294   9.241 -30.771  1.00  0.00     0.072 A 
HETATM   25  C   UNL     1      -2.484  10.591 -30.174  1.00  0.00     0.078 C 
HETATM   26  S   UNL     1      -2.292   7.840 -29.778  1.00  0.00    -0.076 SA
ENDBRANCH  19  20
ENDBRANCH  16  19
ENDBRANCH  13  16
ENDBRANCH   9  10
ENDBRANCH   1   9
TORSDOF 5
ENDMDL
MODEL 3
REMARK VINA RESULT:      -7.6      6.427      9.179
REMARK  5 active torsions:
REMARK  status: ('A' for Active; 'I' for Inactive)
REMARK    1  A    between atoms: C_7  and  C_8 
REMARK    2  A    between atoms: C_8  and  N_9 
REMARK    3  A    between atoms: N_9  and  C_12 
REMARK    4  A    between atoms: C_15  and  O_16 
REMARK    5  A    between atoms: O_16  and  C_17 
ROOT
HETATM    1  C   UNL     1      -5.476   0.051 -33.525  1.00  0.00     0.164 A 
HETATM    2  N   UNL     1      -4.432  -0.794 -33.403  1.00  0.00    -0.236 NA
HETATM    3  C   UNL     1      -4.616  -2.057 -33.865  1.00  0.00     0.142 A 
HETATM    4  C   UNL     1      -5.798  -2.510 -34.434  1.00  0.00     0.062 A 
HETATM    5  C   UNL     1      -5.910  -3.856 -34.901  1.00  0.00     0.101 C 
HETATM    6  N   UNL     1      -5.996  -4.949 -35.277  1.00  0.00    -0.191 NA
HETATM    7  C   UNL     1      -6.862  -1.614 -34.533  1.00  0.00     0.028 A 
HETATM    8  C   UNL     1      -6.701  -0.311 -34.063  1.00  0.00     0.059 A 
ENDROOT
BRANCH   1   9
HETATM    9  O   UNL     1      -5.366   1.345 -33.061  1.00  0.00    -0.329 OA
BRANCH   9  10
HETATM   10  C   UNL     1      -4.303   1.553 -32.121  1.00  0.00     0.130 C 
HETATM   11  C   UNL     1      -3.411   2.655 -32.710  1.00  0.00     0.034 C 
HETATM   12  C   UNL     1      -4.150   3.991 -32.831  1.00  0.00     0.035 C 
HETATM   13  C   UNL     1      -4.768   4.457 -31.509  1.00  0.00     0.186 C 
HETATM   14  C   UNL     1      -5.611   3.348 -30.868  1.00  0.00     0.035 C 
HETATM   15  C   UNL     1      -4.874   2.008 -30.769  1.00  0.00     0.034 C 
BRANCH  13  16
HETATM   16  N   UNL     1      -3.698   4.869 -30.533  1.00  0.00    -0.067 N 
HETATM   17  H   UNL     1      -2.795   4.432 -30.754  1.00  0.00     0.278 HD
HETATM   18  H   UNL     1      -3.945   4.507 -29.600  1.00  0.00     0.278 HD
BRANCH  16  19
HETATM   19  C   UNL     1      -3.490   6.343 -30.365  1.00  0.00     0.280 C 
BRANCH  19  20
HETATM   20  C   UNL     1      -2.065   6.645 -30.085  1.00  0.00     0.034 A 
HETATM   21  C   UNL     1      -0.938   6.371 -30.843  1.00  0.00     0.046 A 
HETATM   22  C   UNL     1      -0.876   5.694 -32.167  1.00  0.00     0.071 C 
HETATM   23  N   UNL     1       0.248   6.787 -30.274  1.00  0.00    -0.250 NA
HETATM   24  C   UNL     1       0.033   7.396 -29.128  1.00  0.00     0.072 A 
HETATM   25  C   UNL     1       1.096   8.006 -28.283  1.00  0.00     0.078 C 
HETATM   26  S   UNL     1      -1.611   7.449 -28.637  1.00  0.00    -0.076 SA
ENDBRANCH  19  20
ENDBRANCH  16  19
ENDBRANCH  13  16
ENDBRANCH   9  10
ENDBRANCH   1   9
TORSDOF 5
ENDMDL
MODEL 4
REMARK VINA RESULT:      -7.5      2.635      8.910
REMARK  5 active torsions:
REMARK  status: ('A' for Active; 'I' for Inactive)
REMARK    1  A    between atoms: C_7  and  C_8 
REMARK    2  A    between atoms: C_8  and  N_9 
REMARK    3  A    between atoms: N_9  and  C_12 
REMARK    4  A    between atoms: C_15  and  O_16 
REMARK    5  A    between atoms: O_16  and  C_17 
ROOT
HETATM    1  C   UNL     1     -11.897   2.172 -33.583  1.00  0.00     0.164 A 
HETATM    2  N   UNL     1     -12.732   1.244 -34.093  1.00  0.00    -0.236 NA
HETATM    3  C   UNL     1     -14.030   1.315 -33.704  1.00  0.00     0.142 A 
HETATM    4  C   UNL     1     -14.525   2.267 -32.823  1.00  0.00     0.062 A 
HETATM    5  C   UNL     1     -15.908   2.276 -32.466  1.00  0.00     0.101 C 
HETATM    6  N   UNL     1     -17.031   2.280 -32.178  1.00  0.00    -0.191 NA
HETATM    7  C   UNL     1     -13.632   3.203 -32.303  1.00  0.00     0.028 A 
HETATM    8  C   UNL     1     -12.292   3.151 -32.684  1.00  0.00     0.059 A 
ENDROOT
BRANCH   1   9
HETATM    9  O   UNL     1     -10.561   2.149 -33.921  1.00  0.00    -0.329 OA
BRANCH   9  10
HETATM   10  C   UNL     1      -9.958   0.849 -33.881  1.00  0.00     0.130 C 
HETATM   11  C   UNL     1      -8.592   0.981 -34.572  1.00  0.00     0.034 C 
HETATM   12  C   UNL     1      -7.651   1.919 -33.810  1.00  0.00     0.035 C 
HETATM   13  C   UNL     1      -7.468   1.523 -32.342  1.00  0.00     0.186 C 
HETATM   14  C   UNL     1      -8.820   1.320 -31.649  1.00  0.00     0.035 C 
HETATM   15  C   UNL     1      -9.767   0.398 -32.425  1.00  0.00     0.034 C 
BRANCH  13  16
HETATM   16  N   UNL     1      -6.675   0.249 -32.224  1.00  0.00    -0.067 N 
HETATM   17  H   UNL     1      -7.268  -0.580 -32.353  1.00  0.00     0.278 HD
HETATM   18  H   UNL     1      -6.317   0.171 -31.262  1.00  0.00     0.278 HD
BRANCH  16  19
HETATM   19  C   UNL     1      -5.482   0.130 -33.123  1.00  0.00     0.280 C 
BRANCH  19  20
HETATM   20  C   UNL     1      -5.320  -1.266 -33.599  1.00  0.00     0.034 A 
HETATM   21  C   UNL     1      -4.358  -2.206 -33.269  1.00  0.00     0.046 A 
HETATM   22  C   UNL     1      -3.220  -2.049 -32.322  1.00  0.00     0.071 C 
HETATM   23  N   UNL     1      -4.500  -3.419 -33.912  1.00  0.00    -0.250 NA
HETATM   24  C   UNL     1      -5.562  -3.421 -34.686  1.00  0.00     0.072 A 
HETATM   25  C   UNL     1      -6.027  -4.589 -35.482  1.00  0.00     0.078 C 
HETATM   26  S   UNL     1      -6.423  -1.936 -34.732  1.00  0.00    -0.076 SA
ENDBRANCH  19  20
ENDBRANCH  16  19
ENDBRANCH  13  16
ENDBRANCH   9  10
ENDBRANCH   1   9
TORSDOF 5
ENDMDL
MODEL 5
REMARK VINA RESULT:      -7.3      5.965      8.656
REMARK  5 active torsions:
REMARK  status: ('A' for Active; 'I' for Inactive)
REMARK    1  A    between atoms: C_7  and  C_8 
REMARK    2  A    between atoms: C_8  and  N_9 
REMARK    3  A    between atoms: N_9  and  C_12 
REMARK    4  A    between atoms: C_15  and  O_16 
REMARK    5  A    between atoms: O_16  and  C_17 
ROOT
HETATM    1  C   UNL     1      -5.528  -0.205 -33.688  1.00  0.00     0.164 A 
HETATM    2  N   UNL     1      -4.432  -0.985 -33.592  1.00  0.00    -0.236 NA
HETATM    3  C   UNL     1      -4.565  -2.271 -34.007  1.00  0.00     0.142 A 
HETATM    4  C   UNL     1      -5.744  -2.808 -34.505  1.00  0.00     0.062 A 
HETATM    5  C   UNL     1      -5.800  -4.172 -34.926  1.00  0.00     0.101 C 
HETATM    6  N   UNL     1      -5.841  -5.280 -35.265  1.00  0.00    -0.191 NA
HETATM    7  C   UNL     1      -6.862  -1.977 -34.578  1.00  0.00     0.028 A 
HETATM    8  C   UNL     1      -6.755  -0.653 -34.155  1.00  0.00     0.059 A 
ENDROOT
BRANCH   1   9
HETATM    9  O   UNL     1      -5.471   1.107 -33.268  1.00  0.00    -0.329 OA
BRANCH   9  10
HETATM   10  C   UNL     1      -4.658   1.327 -32.108  1.00  0.00     0.130 C 
HETATM   11  C   UNL     1      -3.727   2.501 -32.446  1.00  0.00     0.034 C 
HETATM   12  C   UNL     1      -4.502   3.800 -32.684  1.00  0.00     0.035 C 
HETATM   13  C   UNL     1      -5.425   4.172 -31.519  1.00  0.00     0.186 C 
HETATM   14  C   UNL     1      -6.318   2.991 -31.121  1.00  0.00     0.035 C 
HETATM   15  C   UNL     1      -5.540   1.689 -30.904  1.00  0.00     0.034 C 
BRANCH  13  16
HETATM   16  N   UNL     1      -4.625   4.594 -30.316  1.00  0.00    -0.067 N 
HETATM   17  H   UNL     1      -3.683   4.185 -30.324  1.00  0.00     0.278 HD
HETATM   18  H   UNL     1      -5.072   4.209 -29.471  1.00  0.00     0.278 HD
BRANCH  16  19
HETATM   19  C   UNL     1      -4.506   6.070 -30.087  1.00  0.00     0.280 C 
BRANCH  19  20
HETATM   20  C   UNL     1      -3.081   6.483 -30.050  1.00  0.00     0.034 A 
HETATM   21  C   UNL     1      -2.392   7.191 -29.079  1.00  0.00     0.046 A 
HETATM   22  C   UNL     1      -2.922   7.721 -27.793  1.00  0.00     0.071 C 
HETATM   23  N   UNL     1      -1.062   7.414 -29.371  1.00  0.00    -0.250 NA
HETATM   24  C   UNL     1      -0.732   6.861 -30.517  1.00  0.00     0.072 A 
HETATM   25  C   UNL     1       0.638   6.875 -31.099  1.00  0.00     0.078 C 
HETATM   26  S   UNL     1      -2.023   6.089 -31.343  1.00  0.00    -0.076 SA
ENDBRANCH  19  20
ENDBRANCH  16  19
ENDBRANCH  13  16
ENDBRANCH   9  10
ENDBRANCH   1   9
TORSDOF 5
ENDMDL
MODEL 6
REMARK VINA RESULT:      -7.2      7.367      9.804
REMARK  5 active torsions:
REMARK  status: ('A' for Active; 'I' for Inactive)
REMARK    1  A    between atoms: C_7  and  C_8 
REMARK    2  A    between atoms: C_8  and  N_9 
REMARK    3  A    between atoms: N_9  and  C_12 
REMARK    4  A    between atoms: C_15  and  O_16 
REMARK    5  A    between atoms: O_16  and  C_17 
ROOT
HETATM    1  C   UNL     1      -1.536   6.683 -31.113  1.00  0.00     0.164 A 
HETATM    2  N   UNL     1      -2.050   7.244 -29.999  1.00  0.00    -0.236 NA
HETATM    3  C   UNL     1      -1.158   7.696 -29.081  1.00  0.00     0.142 A 
HETATM    4  C   UNL     1       0.219   7.603 -29.226  1.00  0.00     0.062 A 
HETATM    5  C   UNL     1       1.091   8.107 -28.213  1.00  0.00     0.101 C 
HETATM    6  N   UNL     1       1.796   8.517 -27.388  1.00  0.00    -0.191 NA
HETATM    7  C   UNL     1       0.716   7.004 -30.383  1.00  0.00     0.028 A 
HETATM    8  C   UNL     1      -0.178   6.529 -31.342  1.00  0.00     0.059 A 
ENDROOT
BRANCH   1   9
HETATM    9  O   UNL     1      -2.384   6.186 -32.081  1.00  0.00    -0.329 OA
BRANCH   9  10
HETATM   10  C   UNL     1      -2.089   4.848 -32.502  1.00  0.00     0.130 C 
HETATM   11  C   UNL     1      -2.631   3.917 -31.408  1.00  0.00     0.034 C 
HETATM   12  C   UNL     1      -4.154   4.005 -31.281  1.00  0.00     0.035 C 
HETATM   13  C   UNL     1      -4.883   3.751 -32.605  1.00  0.00     0.186 C 
HETATM   14  C   UNL     1      -4.312   4.623 -33.729  1.00  0.00     0.035 C 
HETATM   15  C   UNL     1      -2.786   4.549 -33.838  1.00  0.00     0.034 C 
BRANCH  13  16
HETATM   16  N   UNL     1      -4.765   2.307 -33.013  1.00  0.00    -0.067 N 
HETATM   17  H   UNL     1      -3.985   1.840 -32.535  1.00  0.00     0.278 HD
HETATM   18  H   UNL     1      -4.523   2.266 -34.014  1.00  0.00     0.278 HD
BRANCH  16  19
HETATM   19  C   UNL     1      -5.998   1.472 -32.850  1.00  0.00     0.280 C 
BRANCH  19  20
HETATM   20  C   UNL     1      -5.818   0.138 -33.474  1.00  0.00     0.034 A 
HETATM   21  C   UNL     1      -6.524  -0.456 -34.507  1.00  0.00     0.046 A 
HETATM   22  C   UNL     1      -7.667   0.112 -35.272  1.00  0.00     0.071 C 
HETATM   23  N   UNL     1      -6.093  -1.725 -34.838  1.00  0.00    -0.250 NA
HETATM   24  C   UNL     1      -5.060  -2.078 -34.104  1.00  0.00     0.072 A 
HETATM   25  C   UNL     1      -4.326  -3.365 -34.241  1.00  0.00     0.078 C 
HETATM   26  S   UNL     1      -4.584  -0.923 -32.926  1.00  0.00    -0.076 SA
ENDBRANCH  19  20
ENDBRANCH  16  19
ENDBRANCH  13  16
ENDBRANCH   9  10
ENDBRANCH   1   9
TORSDOF 5
ENDMDL
MODEL 7
REMARK VINA RESULT:      -6.8      6.409      9.551
REMARK  5 active torsions:
REMARK  status: ('A' for Active; 'I' for Inactive)
REMARK    1  A    between atoms: C_7  and  C_8 
REMARK    2  A    between atoms: C_8  and  N_9 
REMARK    3  A    between atoms: N_9  and  C_12 
REMARK    4  A    between atoms: C_15  and  O_16 
REMARK    5  A    between atoms: O_16  and  C_17 
ROOT
HETATM    1  C   UNL     1      -7.440   2.111 -33.274  1.00  0.00     0.164 A 
HETATM    2  N   UNL     1      -7.798   1.372 -34.344  1.00  0.00    -0.236 NA
HETATM    3  C   UNL     1      -9.085   0.945 -34.384  1.00  0.00     0.142 A 
HETATM    4  C   UNL     1     -10.024   1.218 -33.399  1.00  0.00     0.062 A 
HETATM    5  C   UNL     1     -11.363   0.734 -33.518  1.00  0.00     0.101 C 
HETATM    6  N   UNL     1     -12.449   0.339 -33.618  1.00  0.00    -0.191 NA
HETATM    7  C   UNL     1      -9.618   1.973 -32.299  1.00  0.00     0.028 A 
HETATM    8  C   UNL     1      -8.299   2.422 -32.231  1.00  0.00     0.059 A 
ENDROOT
BRANCH   1   9
HETATM    9  O   UNL     1      -6.143   2.563 -33.159  1.00  0.00    -0.329 OA
BRANCH   9  10
HETATM   10  C   UNL     1      -5.796   3.054 -31.858  1.00  0.00     0.130 C 
HETATM   11  C   UNL     1      -4.645   2.172 -31.352  1.00  0.00     0.034 C 
HETATM   12  C   UNL     1      -3.389   2.313 -32.218  1.00  0.00     0.035 C 
HETATM   13  C   UNL     1      -2.921   3.764 -32.365  1.00  0.00     0.186 C 
HETATM   14  C   UNL     1      -4.072   4.677 -32.805  1.00  0.00     0.035 C 
HETATM   15  C   UNL     1      -5.333   4.516 -31.950  1.00  0.00     0.034 C 
BRANCH  13  16
HETATM   16  N   UNL     1      -2.369   4.284 -31.065  1.00  0.00    -0.067 N 
HETATM   17  H   UNL     1      -2.205   3.525 -30.392  1.00  0.00     0.278 HD
HETATM   18  H   UNL     1      -3.080   4.882 -30.620  1.00  0.00     0.278 HD
BRANCH  16  19
HETATM   19  C   UNL     1      -1.128   5.118 -31.162  1.00  0.00     0.280 C 
BRANCH  19  20
HETATM   20  C   UNL     1      -1.468   6.549 -31.355  1.00  0.00     0.034 A 
HETATM   21  C   UNL     1      -1.493   7.302 -32.517  1.00  0.00     0.046 A 
HETATM   22  C   UNL     1      -1.183   6.849 -33.900  1.00  0.00     0.071 C 
HETATM   23  N   UNL     1      -1.850   8.622 -32.334  1.00  0.00    -0.250 NA
HETATM   24  C   UNL     1      -2.126   8.866 -31.072  1.00  0.00     0.072 A 
HETATM   25  C   UNL     1      -2.589  10.179 -30.546  1.00  0.00     0.078 C 
HETATM   26  S   UNL     1      -1.913   7.529 -30.017  1.00  0.00    -0.076 SA
ENDBRANCH  19  20
ENDBRANCH  16  19
ENDBRANCH  13  16
ENDBRANCH   9  10
ENDBRANCH   1   9
TORSDOF 5
ENDMDL
MODEL 8
REMARK VINA RESULT:      -6.8      3.134      4.383
REMARK  5 active torsions:
REMARK  status: ('A' for Active; 'I' for Inactive)
REMARK    1  A    between atoms: C_7  and  C_8 
REMARK    2  A    between atoms: C_8  and  N_9 
REMARK    3  A    between atoms: N_9  and  C_12 
REMARK    4  A    between atoms: C_15  and  O_16 
REMARK    5  A    between atoms: O_16  and  C_17 
ROOT
HETATM    1  C   UNL     1      -5.444  -0.297 -33.600  1.00  0.00     0.164 A 
HETATM    2  N   UNL     1      -4.461  -1.150 -33.247  1.00  0.00    -0.236 NA
HETATM    3  C   UNL     1      -4.565  -2.422 -33.710  1.00  0.00     0.142 A 
HETATM    4  C   UNL     1      -5.611  -2.875 -34.502  1.00  0.00     0.062 A 
HETATM    5  C   UNL     1      -5.645  -4.231 -34.953  1.00  0.00     0.101 C 
HETATM    6  N   UNL     1      -5.669  -5.332 -35.316  1.00  0.00    -0.191 NA
HETATM    7  C   UNL     1      -6.617  -1.971 -34.838  1.00  0.00     0.028 A 
HETATM    8  C   UNL     1      -6.537  -0.659 -34.373  1.00  0.00     0.059 A 
ENDROOT
BRANCH   1   9
HETATM    9  O   UNL     1      -5.412   1.006 -33.151  1.00  0.00    -0.329 OA
BRANCH   9  10
HETATM   10  C   UNL     1      -6.680   1.522 -32.726  1.00  0.00     0.130 C 
HETATM   11  C   UNL     1      -7.089   0.709 -31.489  1.00  0.00     0.034 C 
HETATM   12  C   UNL     1      -6.122   0.918 -30.319  1.00  0.00     0.035 C 
HETATM   13  C   UNL     1      -5.936   2.393 -29.949  1.00  0.00     0.186 C 
HETATM   14  C   UNL     1      -5.593   3.236 -31.182  1.00  0.00     0.035 C 
HETATM   15  C   UNL     1      -6.550   3.008 -32.358  1.00  0.00     0.034 C 
BRANCH  13  16
HETATM   16  N   UNL     1      -7.187   2.950 -29.322  1.00  0.00    -0.067 N 
HETATM   17  H   UNL     1      -7.267   2.681 -28.333  1.00  0.00     0.278 HD
HETATM   18  H   UNL     1      -8.004   2.520 -29.778  1.00  0.00     0.278 HD
BRANCH  16  19
HETATM   19  C   UNL     1      -7.378   4.431 -29.435  1.00  0.00     0.280 C 
BRANCH  19  20
HETATM   20  C   UNL     1      -8.748   4.751 -29.905  1.00  0.00     0.034 A 
HETATM   21  C   UNL     1      -9.405   5.970 -29.951  1.00  0.00     0.046 A 
HETATM   22  C   UNL     1      -8.882   7.299 -29.534  1.00  0.00     0.071 C 
HETATM   23  N   UNL     1     -10.692   5.907 -30.444  1.00  0.00    -0.250 NA
HETATM   24  C   UNL     1     -11.001   4.680 -30.801  1.00  0.00     0.072 A 
HETATM   25  C   UNL     1     -12.296   4.278 -31.415  1.00  0.00     0.078 C 
HETATM   26  S   UNL     1      -9.776   3.514 -30.506  1.00  0.00    -0.076 SA
ENDBRANCH  19  20
ENDBRANCH  16  19
ENDBRANCH  13  16
ENDBRANCH   9  10
ENDBRANCH   1   9
TORSDOF 5
ENDMDL
MODEL 9
REMARK VINA RESULT:      -6.7      1.374      1.951
REMARK  5 active torsions:
REMARK  status: ('A' for Active; 'I' for Inactive)
REMARK    1  A    between atoms: C_7  and  C_8 
REMARK    2  A    between atoms: C_8  and  N_9 
REMARK    3  A    between atoms: N_9  and  C_12 
REMARK    4  A    between atoms: C_15  and  O_16 
REMARK    5  A    between atoms: O_16  and  C_17 
ROOT
HETATM    1  C   UNL     1      -6.549  -0.337 -33.687  1.00  0.00     0.164 A 
HETATM    2  N   UNL     1      -5.495  -0.475 -32.856  1.00  0.00    -0.236 NA
HETATM    3  C   UNL     1      -4.738  -1.589 -33.016  1.00  0.00     0.142 A 
HETATM    4  C   UNL     1      -4.993  -2.572 -33.963  1.00  0.00     0.062 A 
HETATM    5  C   UNL     1      -4.144  -3.716 -34.069  1.00  0.00     0.101 C 
HETATM    6  N   UNL     1      -3.452  -4.643 -34.152  1.00  0.00    -0.191 NA
HETATM    7  C   UNL     1      -6.098  -2.406 -34.796  1.00  0.00     0.028 A 
HETATM    8  C   UNL     1      -6.896  -1.271 -34.652  1.00  0.00     0.059 A 
ENDROOT
BRANCH   1   9
HETATM    9  O   UNL     1      -7.373   0.762 -33.570  1.00  0.00    -0.329 OA
BRANCH   9  10
HETATM   10  C   UNL     1      -8.224   0.749 -32.416  1.00  0.00     0.130 C 
HETATM   11  C   UNL     1      -8.318   2.203 -31.929  1.00  0.00     0.034 C 
HETATM   12  C   UNL     1      -8.997   3.111 -32.958  1.00  0.00     0.035 C 
HETATM   13  C   UNL     1     -10.376   2.605 -33.390  1.00  0.00     0.186 C 
HETATM   14  C   UNL     1     -10.319   1.134 -33.818  1.00  0.00     0.035 C 
HETATM   15  C   UNL     1      -9.620   0.232 -32.794  1.00  0.00     0.034 C 
BRANCH  13  16
HETATM   16  N   UNL     1     -11.371   2.738 -32.268  1.00  0.00    -0.067 N 
HETATM   17  H   UNL     1     -10.975   2.431 -31.371  1.00  0.00     0.278 HD
HETATM   18  H   UNL     1     -12.155   2.093 -32.444  1.00  0.00     0.278 HD
BRANCH  16  19
HETATM   19  C   UNL     1     -11.981   4.094 -32.084  1.00  0.00     0.280 C 
BRANCH  19  20
HETATM   20  C   UNL     1     -13.459   3.998 -31.993  1.00  0.00     0.034 A 
HETATM   21  C   UNL     1     -14.380   4.934 -31.551  1.00  0.00     0.046 A 
HETATM   22  C   UNL     1     -14.108   6.310 -31.051  1.00  0.00     0.071 C 
HETATM   23  N   UNL     1     -15.692   4.509 -31.592  1.00  0.00    -0.250 NA
HETATM   24  C   UNL     1     -15.778   3.293 -32.086  1.00  0.00     0.072 A 
HETATM   25  C   UNL     1     -17.054   2.560 -32.310  1.00  0.00     0.078 C 
HETATM   26  S   UNL     1     -14.273   2.565 -32.475  1.00  0.00    -0.076 SA
ENDBRANCH  19  20
ENDBRANCH  16  19
ENDBRANCH  13  16
ENDBRANCH   9  10
ENDBRANCH   1   9
TORSDOF 5
ENDMDL
MODEL 10
REMARK VINA RESULT:      -6.7      5.536      6.824
REMARK  5 active torsions:
REMARK  status: ('A' for Active; 'I' for Inactive)
REMARK    1  A    between atoms: C_7  and  C_8 
REMARK    2  A    between atoms: C_8  and  N_9 
REMARK    3  A    between atoms: N_9  and  C_12 
REMARK    4  A    between atoms: C_15  and  O_16 
REMARK    5  A    between atoms: O_16  and  C_17 
ROOT
HETATM    1  C   UNL     1      -5.630  -0.148 -33.720  1.00  0.00     0.164 A 
HETATM    2  N   UNL     1      -4.510  -0.897 -33.654  1.00  0.00    -0.236 NA
HETATM    3  C   UNL     1      -4.619  -2.189 -34.054  1.00  0.00     0.142 A 
HETATM    4  C   UNL     1      -5.798  -2.764 -34.509  1.00  0.00     0.062 A 
HETATM    5  C   UNL     1      -5.828  -4.133 -34.916  1.00  0.00     0.101 C 
HETATM    6  N   UNL     1      -5.848  -5.244 -35.245  1.00  0.00    -0.191 NA
HETATM    7  C   UNL     1      -6.940  -1.966 -34.551  1.00  0.00     0.028 A 
HETATM    8  C   UNL     1      -6.858  -0.635 -34.143  1.00  0.00     0.059 A 
ENDROOT
BRANCH   1   9
HETATM    9  O   UNL     1      -5.597   1.168 -33.313  1.00  0.00    -0.329 OA
BRANCH   9  10
HETATM   10  C   UNL     1      -4.624   1.455 -32.299  1.00  0.00     0.130 C 
HETATM   11  C   UNL     1      -4.095   2.867 -32.590  1.00  0.00     0.034 C 
HETATM   12  C   UNL     1      -5.189   3.930 -32.454  1.00  0.00     0.035 C 
HETATM   13  C   UNL     1      -5.894   3.897 -31.095  1.00  0.00     0.186 C 
HETATM   14  C   UNL     1      -6.372   2.481 -30.752  1.00  0.00     0.035 C 
HETATM   15  C   UNL     1      -5.280   1.417 -30.911  1.00  0.00     0.034 C 
BRANCH  13  16
HETATM   16  N   UNL     1      -4.972   4.367 -30.001  1.00  0.00    -0.067 N 
HETATM   17  H   UNL     1      -4.123   3.792 -29.948  1.00  0.00     0.278 HD
HETATM   18  H   UNL     1      -5.440   4.231 -29.094  1.00  0.00     0.278 HD
BRANCH  16  19
HETATM   19  C   UNL     1      -4.574   5.810 -30.050  1.00  0.00     0.280 C 
BRANCH  19  20
HETATM   20  C   UNL     1      -5.522   6.645 -29.272  1.00  0.00     0.034 A 
HETATM   21  C   UNL     1      -5.689   6.747 -27.900  1.00  0.00     0.046 A 
HETATM   22  C   UNL     1      -4.933   6.030 -26.837  1.00  0.00     0.071 C 
HETATM   23  N   UNL     1      -6.681   7.623 -27.509  1.00  0.00    -0.250 NA
HETATM   24  C   UNL     1      -7.234   8.204 -28.551  1.00  0.00     0.072 A 
HETATM   25  C   UNL     1      -8.303   9.237 -28.474  1.00  0.00     0.078 C 
HETATM   26  S   UNL     1      -6.632   7.683 -30.071  1.00  0.00    -0.076 SA
ENDBRANCH  19  20
ENDBRANCH  16  19
ENDBRANCH  13  16
ENDBRANCH   9  10
ENDBRANCH   1   9
TORSDOF 5
ENDMDL
