MODEL 1
REMARK VINA RESULT:      -9.5      0.000      0.000
REMARK  3 active torsions:
REMARK  status: ('A' for Active; 'I' for Inactive)
REMARK    1  A    between atoms: N_4  and  C_5 
REMARK    2  A    between atoms: C_16  and  C_17 
REMARK       I    between atoms: C_17  and  N_18 
REMARK    3  A    between atoms: N_18  and  C_19 
ROOT
HETATM    1  C   UNL     1      -6.289   5.623 -33.478  1.00  0.00     0.073 C 
HETATM    2  C   UNL     1      -5.103   5.160 -32.717  1.00  0.00     0.069 A 
HETATM    3  N   UNL     1      -4.131   6.021 -32.384  1.00  0.00    -0.170 NA
HETATM    4  N   UNL     1      -3.229   5.290 -31.660  1.00  0.00    -0.216 N 
HETATM    5  C   UNL     1      -3.581   3.950 -31.672  1.00  0.00     0.145 A 
HETATM    6  C   UNL     1      -4.801   3.852 -32.301  1.00  0.00     0.087 A 
HETATM    7  N   UNL     1      -2.899   2.863 -31.235  1.00  0.00    -0.349 N 
HETATM    8  C   UNL     1      -3.459   1.614 -31.449  1.00  0.00     0.111 A 
HETATM    9  C   UNL     1      -4.668   1.391 -32.015  1.00  0.00     0.098 A 
HETATM   10  C   UNL     1      -5.469   2.579 -32.473  1.00  0.00     0.205 A 
HETATM   11  O   UNL     1      -6.589   2.464 -32.963  1.00  0.00    -0.286 OA
HETATM   12  H   UNL     1      -1.907   2.875 -31.002  1.00  0.00     0.167 HD
ENDROOT
BRANCH   9  13
HETATM   13  C   UNL     1      -5.114  -0.027 -32.184  1.00  0.00     0.261 C 
HETATM   14  N   UNL     1      -5.082  -0.487 -33.484  1.00  0.00    -0.323 N 
HETATM   15  H   UNL     1      -4.792   0.178 -34.202  1.00  0.00     0.169 HD
HETATM   16  O   UNL     1      -5.473  -0.674 -31.204  1.00  0.00    -0.267 OA
BRANCH  14  17
HETATM   17  C   UNL     1      -5.393  -1.780 -33.956  1.00  0.00     0.035 A 
HETATM   18  C   UNL     1      -6.664  -2.178 -34.373  1.00  0.00     0.029 A 
HETATM   19  C   UNL     1      -6.888  -3.488 -34.811  1.00  0.00     0.002 A 
HETATM   20  C   UNL     1      -5.842  -4.408 -34.839  1.00  0.00     0.000 A 
HETATM   21  C   UNL     1      -4.571  -4.020 -34.426  1.00  0.00     0.002 A 
HETATM   22  C   UNL     1      -4.349  -2.714 -33.984  1.00  0.00     0.029 A 
ENDBRANCH  14  17
ENDBRANCH   9  13
BRANCH   4  23
HETATM   23  C   UNL     1      -2.135   5.947 -31.024  1.00  0.00     0.060 A 
HETATM   24  C   UNL     1      -2.319   6.765 -29.900  1.00  0.00     0.034 A 
HETATM   25  C   UNL     1      -1.220   7.393 -29.305  1.00  0.00     0.044 A 
HETATM   26  C   UNL     1       0.052   7.212 -29.836  1.00  0.00     0.116 A 
HETATM   27  F   UNL     1       1.099   7.817 -29.261  1.00  0.00    -0.206 F 
HETATM   28  C   UNL     1       0.249   6.424 -30.962  1.00  0.00     0.044 A 
HETATM   29  C   UNL     1      -0.844   5.798 -31.564  1.00  0.00     0.034 A 
ENDBRANCH   4  23
TORSDOF 3
ENDMDL
MODEL 2
REMARK VINA RESULT:      -9.1      3.523      8.845
REMARK  3 active torsions:
REMARK  status: ('A' for Active; 'I' for Inactive)
REMARK    1  A    between atoms: N_4  and  C_5 
REMARK    2  A    between atoms: C_16  and  C_17 
REMARK       I    between atoms: C_17  and  N_18 
REMARK    3  A    between atoms: N_18  and  C_19 
ROOT
HETATM    1  C   UNL     1      -8.662   1.969 -34.115  1.00  0.00     0.073 C 
HETATM    2  C   UNL     1      -7.458   1.136 -33.879  1.00  0.00     0.069 A 
HETATM    3  N   UNL     1      -7.494  -0.187 -34.094  1.00  0.00    -0.170 NA
HETATM    4  N   UNL     1      -6.229  -0.634 -33.830  1.00  0.00    -0.216 N 
HETATM    5  C   UNL     1      -5.456   0.395 -33.316  1.00  0.00     0.145 A 
HETATM    6  C   UNL     1      -6.208   1.545 -33.384  1.00  0.00     0.087 A 
HETATM    7  N   UNL     1      -4.217   0.369 -32.769  1.00  0.00    -0.349 N 
HETATM    8  C   UNL     1      -3.707   1.549 -32.252  1.00  0.00     0.111 A 
HETATM    9  C   UNL     1      -4.330   2.749 -32.298  1.00  0.00     0.098 A 
HETATM   10  C   UNL     1      -5.690   2.822 -32.937  1.00  0.00     0.205 A 
HETATM   11  O   UNL     1      -6.305   3.879 -33.050  1.00  0.00    -0.286 OA
HETATM   12  H   UNL     1      -3.746  -0.487 -32.477  1.00  0.00     0.167 HD
ENDROOT
BRANCH   9  13
HETATM   13  C   UNL     1      -3.641   3.924 -31.675  1.00  0.00     0.261 C 
HETATM   14  N   UNL     1      -2.328   4.090 -32.062  1.00  0.00    -0.323 N 
HETATM   15  H   UNL     1      -1.944   3.394 -32.701  1.00  0.00     0.169 HD
HETATM   16  O   UNL     1      -4.253   4.639 -30.887  1.00  0.00    -0.267 OA
BRANCH  14  17
HETATM   17  C   UNL     1      -1.438   5.120 -31.692  1.00  0.00     0.035 A 
HETATM   18  C   UNL     1      -1.346   6.350 -32.344  1.00  0.00     0.029 A 
HETATM   19  C   UNL     1      -0.420   7.309 -31.920  1.00  0.00     0.002 A 
HETATM   20  C   UNL     1       0.417   7.048 -30.838  1.00  0.00     0.000 A 
HETATM   21  C   UNL     1       0.332   5.825 -30.180  1.00  0.00     0.002 A 
HETATM   22  C   UNL     1      -0.589   4.865 -30.606  1.00  0.00     0.029 A 
ENDBRANCH  14  17
ENDBRANCH   9  13
BRANCH   4  23
HETATM   23  C   UNL     1      -5.886  -1.990 -34.106  1.00  0.00     0.060 A 
HETATM   24  C   UNL     1      -4.585  -2.476 -33.911  1.00  0.00     0.034 A 
HETATM   25  C   UNL     1      -4.289  -3.813 -34.196  1.00  0.00     0.044 A 
HETATM   26  C   UNL     1      -5.283  -4.655 -34.680  1.00  0.00     0.116 A 
HETATM   27  F   UNL     1      -4.990  -5.933 -34.951  1.00  0.00    -0.206 F 
HETATM   28  C   UNL     1      -6.570  -4.184 -34.901  1.00  0.00     0.044 A 
HETATM   29  C   UNL     1      -6.872  -2.849 -34.625  1.00  0.00     0.034 A 
ENDBRANCH   4  23
TORSDOF 3
ENDMDL
MODEL 3
REMARK VINA RESULT:      -8.8      6.445      9.271
REMARK  3 active torsions:
REMARK  status: ('A' for Active; 'I' for Inactive)
REMARK    1  A    between atoms: N_4  and  C_5 
REMARK    2  A    between atoms: C_16  and  C_17 
REMARK       I    between atoms: C_17  and  N_18 
REMARK    3  A    between atoms: N_18  and  C_19 
ROOT
HETATM    1  C   UNL     1      -7.286   2.991 -30.118  1.00  0.00     0.073 C 
HETATM    2  C   UNL     1      -7.539   2.049 -31.236  1.00  0.00     0.069 A 
HETATM    3  N   UNL     1      -6.561   1.251 -31.686  1.00  0.00    -0.170 NA
HETATM    4  N   UNL     1      -7.134   0.491 -32.669  1.00  0.00    -0.216 N 
HETATM    5  C   UNL     1      -8.426   0.926 -32.916  1.00  0.00     0.145 A 
HETATM    6  C   UNL     1      -8.721   1.889 -31.979  1.00  0.00     0.087 A 
HETATM    7  N   UNL     1      -9.291   0.581 -33.901  1.00  0.00    -0.349 N 
HETATM    8  C   UNL     1     -10.508   1.242 -33.960  1.00  0.00     0.111 A 
HETATM    9  C   UNL     1     -10.929   2.173 -33.074  1.00  0.00     0.098 A 
HETATM   10  C   UNL     1     -10.010   2.547 -31.943  1.00  0.00     0.205 A 
HETATM   11  O   UNL     1     -10.333   3.356 -31.078  1.00  0.00    -0.286 OA
HETATM   12  H   UNL     1      -9.016   0.072 -34.741  1.00  0.00     0.167 HD
ENDROOT
BRANCH   9  13
HETATM   13  C   UNL     1     -12.270   2.800 -33.297  1.00  0.00     0.261 C 
HETATM   14  N   UNL     1     -13.180   2.584 -32.282  1.00  0.00    -0.323 N 
HETATM   15  H   UNL     1     -12.872   2.002 -31.502  1.00  0.00     0.169 HD
HETATM   16  O   UNL     1     -12.480   3.438 -34.324  1.00  0.00    -0.267 OA
BRANCH  14  17
HETATM   17  C   UNL     1     -14.496   3.080 -32.177  1.00  0.00     0.035 A 
HETATM   18  C   UNL     1     -14.815   4.423 -31.971  1.00  0.00     0.029 A 
HETATM   19  C   UNL     1     -16.150   4.825 -31.860  1.00  0.00     0.002 A 
HETATM   20  C   UNL     1     -17.177   3.889 -31.961  1.00  0.00     0.000 A 
HETATM   21  C   UNL     1     -16.870   2.548 -32.169  1.00  0.00     0.002 A 
HETATM   22  C   UNL     1     -15.537   2.145 -32.273  1.00  0.00     0.029 A 
ENDBRANCH  14  17
ENDBRANCH   9  13
BRANCH   4  23
HETATM   23  C   UNL     1      -6.395  -0.575 -33.260  1.00  0.00     0.060 A 
HETATM   24  C   UNL     1      -7.025  -1.595 -33.986  1.00  0.00     0.034 A 
HETATM   25  C   UNL     1      -6.264  -2.625 -34.549  1.00  0.00     0.044 A 
HETATM   26  C   UNL     1      -4.884  -2.640 -34.379  1.00  0.00     0.116 A 
HETATM   27  F   UNL     1      -4.164  -3.630 -34.921  1.00  0.00    -0.206 F 
HETATM   28  C   UNL     1      -4.247  -1.651 -33.643  1.00  0.00     0.044 A 
HETATM   29  C   UNL     1      -5.001  -0.622 -33.073  1.00  0.00     0.034 A 
ENDBRANCH   4  23
TORSDOF 3
ENDMDL
MODEL 4
REMARK VINA RESULT:      -8.8      3.530      9.069
REMARK  3 active torsions:
REMARK  status: ('A' for Active; 'I' for Inactive)
REMARK    1  A    between atoms: N_4  and  C_5 
REMARK    2  A    between atoms: C_16  and  C_17 
REMARK       I    between atoms: C_17  and  N_18 
REMARK    3  A    between atoms: N_18  and  C_19 
ROOT
HETATM    1  C   UNL     1      -7.553   3.429 -29.849  1.00  0.00     0.073 C 
HETATM    2  C   UNL     1      -6.557   2.837 -30.775  1.00  0.00     0.069 A 
HETATM    3  N   UNL     1      -6.756   1.618 -31.298  1.00  0.00    -0.170 NA
HETATM    4  N   UNL     1      -5.691   1.401 -32.129  1.00  0.00    -0.216 N 
HETATM    5  C   UNL     1      -4.770   2.428 -32.004  1.00  0.00     0.145 A 
HETATM    6  C   UNL     1      -5.326   3.379 -31.180  1.00  0.00     0.087 A 
HETATM    7  N   UNL     1      -3.514   2.542 -32.501  1.00  0.00    -0.349 N 
HETATM    8  C   UNL     1      -2.771   3.657 -32.147  1.00  0.00     0.111 A 
HETATM    9  C   UNL     1      -3.221   4.678 -31.382  1.00  0.00     0.098 A 
HETATM   10  C   UNL     1      -4.625   4.603 -30.848  1.00  0.00     0.205 A 
HETATM   11  O   UNL     1      -5.120   5.505 -30.177  1.00  0.00    -0.286 OA
HETATM   12  H   UNL     1      -2.990   1.761 -32.894  1.00  0.00     0.167 HD
ENDROOT
BRANCH   9  13
HETATM   13  C   UNL     1      -2.278   5.801 -31.083  1.00  0.00     0.261 C 
HETATM   14  N   UNL     1      -2.046   6.013 -29.740  1.00  0.00    -0.323 N 
HETATM   15  H   UNL     1      -2.552   5.417 -29.084  1.00  0.00     0.169 HD
HETATM   16  O   UNL     1      -1.787   6.446 -32.006  1.00  0.00    -0.267 OA
BRANCH  14  17
HETATM   17  C   UNL     1      -1.179   6.954 -29.146  1.00  0.00     0.035 A 
HETATM   18  C   UNL     1       0.211   6.826 -29.110  1.00  0.00     0.029 A 
HETATM   19  C   UNL     1       0.995   7.801 -28.484  1.00  0.00     0.002 A 
HETATM   20  C   UNL     1       0.397   8.912 -27.893  1.00  0.00     0.000 A 
HETATM   21  C   UNL     1      -0.987   9.049 -27.926  1.00  0.00     0.002 A 
HETATM   22  C   UNL     1      -1.771   8.074 -28.547  1.00  0.00     0.029 A 
ENDBRANCH  14  17
ENDBRANCH   9  13
BRANCH   4  23
HETATM   23  C   UNL     1      -5.670   0.245 -32.963  1.00  0.00     0.060 A 
HETATM   24  C   UNL     1      -4.679  -0.739 -32.835  1.00  0.00     0.034 A 
HETATM   25  C   UNL     1      -4.692  -1.858 -33.673  1.00  0.00     0.044 A 
HETATM   26  C   UNL     1      -5.683  -1.988 -34.640  1.00  0.00     0.116 A 
HETATM   27  F   UNL     1      -5.688  -3.062 -35.439  1.00  0.00    -0.206 F 
HETATM   28  C   UNL     1      -6.658  -1.012 -34.796  1.00  0.00     0.044 A 
HETATM   29  C   UNL     1      -6.648   0.111 -33.966  1.00  0.00     0.034 A 
ENDBRANCH   4  23
TORSDOF 3
ENDMDL
MODEL 5
REMARK VINA RESULT:      -8.7      3.731      5.103
REMARK  3 active torsions:
REMARK  status: ('A' for Active; 'I' for Inactive)
REMARK    1  A    between atoms: N_4  and  C_5 
REMARK    2  A    between atoms: C_16  and  C_17 
REMARK       I    between atoms: C_17  and  N_18 
REMARK    3  A    between atoms: N_18  and  C_19 
ROOT
HETATM    1  C   UNL     1      -3.570  -0.466 -31.165  1.00  0.00     0.073 C 
HETATM    2  C   UNL     1      -3.797   0.857 -31.797  1.00  0.00     0.069 A 
HETATM    3  N   UNL     1      -2.947   1.870 -31.574  1.00  0.00    -0.170 NA
HETATM    4  N   UNL     1      -3.415   2.910 -32.330  1.00  0.00    -0.216 N 
HETATM    5  C   UNL     1      -4.631   2.575 -32.903  1.00  0.00     0.145 A 
HETATM    6  C   UNL     1      -4.870   1.251 -32.614  1.00  0.00     0.087 A 
HETATM    7  N   UNL     1      -5.519   3.342 -33.581  1.00  0.00    -0.349 N 
HETATM    8  C   UNL     1      -6.713   2.761 -33.979  1.00  0.00     0.111 A 
HETATM    9  C   UNL     1      -7.043   1.462 -33.792  1.00  0.00     0.098 A 
HETATM   10  C   UNL     1      -6.061   0.572 -33.081  1.00  0.00     0.205 A 
HETATM   11  O   UNL     1      -6.270  -0.625 -32.904  1.00  0.00    -0.286 OA
HETATM   12  H   UNL     1      -5.493   4.361 -33.591  1.00  0.00     0.167 HD
ENDROOT
BRANCH   9  13
HETATM   13  C   UNL     1      -8.384   1.002 -34.273  1.00  0.00     0.261 C 
HETATM   14  N   UNL     1      -9.455   1.617 -33.660  1.00  0.00    -0.323 N 
HETATM   15  H   UNL     1      -9.241   2.295 -32.928  1.00  0.00     0.169 HD
HETATM   16  O   UNL     1      -8.455   0.137 -35.142  1.00  0.00    -0.267 OA
BRANCH  14  17
HETATM   17  C   UNL     1     -10.829   1.437 -33.926  1.00  0.00     0.035 A 
HETATM   18  C   UNL     1     -11.590   0.375 -33.435  1.00  0.00     0.029 A 
HETATM   19  C   UNL     1     -12.945   0.263 -33.764  1.00  0.00     0.002 A 
HETATM   20  C   UNL     1     -13.551   1.215 -34.581  1.00  0.00     0.000 A 
HETATM   21  C   UNL     1     -12.801   2.278 -35.074  1.00  0.00     0.002 A 
HETATM   22  C   UNL     1     -11.447   2.387 -34.750  1.00  0.00     0.029 A 
ENDBRANCH  14  17
ENDBRANCH   9  13
BRANCH   4  23
HETATM   23  C   UNL     1      -2.649   4.108 -32.436  1.00  0.00     0.060 A 
HETATM   24  C   UNL     1      -2.151   4.558 -33.666  1.00  0.00     0.034 A 
HETATM   25  C   UNL     1      -1.402   5.738 -33.728  1.00  0.00     0.044 A 
HETATM   26  C   UNL     1      -1.144   6.456 -32.566  1.00  0.00     0.116 A 
HETATM   27  F   UNL     1      -0.426   7.584 -32.634  1.00  0.00    -0.206 F 
HETATM   28  C   UNL     1      -1.610   6.012 -31.336  1.00  0.00     0.044 A 
HETATM   29  C   UNL     1      -2.354   4.833 -31.266  1.00  0.00     0.034 A 
ENDBRANCH   4  23
TORSDOF 3
ENDMDL
MODEL 6
REMARK VINA RESULT:      -8.5      5.408      8.230
REMARK  3 active torsions:
REMARK  status: ('A' for Active; 'I' for Inactive)
REMARK    1  A    between atoms: N_4  and  C_5 
REMARK    2  A    between atoms: C_16  and  C_17 
REMARK       I    between atoms: C_17  and  N_18 
REMARK    3  A    between atoms: N_18  and  C_19 
ROOT
HETATM    1  C   UNL     1      -4.873   3.191 -32.410  1.00  0.00     0.073 C 
HETATM    2  C   UNL     1      -5.357   1.830 -32.750  1.00  0.00     0.069 A 
HETATM    3  N   UNL     1      -4.490   0.820 -32.906  1.00  0.00    -0.170 NA
HETATM    4  N   UNL     1      -5.258  -0.283 -33.162  1.00  0.00    -0.216 N 
HETATM    5  C   UNL     1      -6.587   0.083 -33.303  1.00  0.00     0.145 A 
HETATM    6  C   UNL     1      -6.679   1.421 -32.996  1.00  0.00     0.087 A 
HETATM    7  N   UNL     1      -7.654  -0.642 -33.718  1.00  0.00    -0.349 N 
HETATM    8  C   UNL     1      -8.873   0.006 -33.845  1.00  0.00     0.111 A 
HETATM    9  C   UNL     1      -9.098   1.303 -33.534  1.00  0.00     0.098 A 
HETATM   10  C   UNL     1      -7.944   2.125 -33.029  1.00  0.00     0.205 A 
HETATM   11  O   UNL     1      -8.074   3.298 -32.692  1.00  0.00    -0.286 OA
HETATM   12  H   UNL     1      -7.576  -1.545 -34.185  1.00  0.00     0.167 HD
ENDROOT
BRANCH   9  13
HETATM   13  C   UNL     1     -10.476   1.848 -33.747  1.00  0.00     0.261 C 
HETATM   14  N   UNL     1     -11.493   1.020 -33.321  1.00  0.00    -0.323 N 
HETATM   15  H   UNL     1     -11.221   0.116 -32.935  1.00  0.00     0.169 HD
HETATM   16  O   UNL     1     -10.619   2.950 -34.270  1.00  0.00    -0.267 OA
BRANCH  14  17
HETATM   17  C   UNL     1     -12.881   1.270 -33.341  1.00  0.00     0.035 A 
HETATM   18  C   UNL     1     -13.514   2.245 -32.569  1.00  0.00     0.029 A 
HETATM   19  C   UNL     1     -14.901   2.413 -32.638  1.00  0.00     0.002 A 
HETATM   20  C   UNL     1     -15.666   1.611 -33.482  1.00  0.00     0.000 A 
HETATM   21  C   UNL     1     -15.044   0.637 -34.257  1.00  0.00     0.002 A 
HETATM   22  C   UNL     1     -13.660   0.465 -34.184  1.00  0.00     0.029 A 
ENDBRANCH  14  17
ENDBRANCH   9  13
BRANCH   4  23
HETATM   23  C   UNL     1      -4.647  -1.569 -33.233  1.00  0.00     0.060 A 
HETATM   24  C   UNL     1      -4.890  -2.443 -34.302  1.00  0.00     0.034 A 
HETATM   25  C   UNL     1      -4.272  -3.697 -34.334  1.00  0.00     0.044 A 
HETATM   26  C   UNL     1      -3.425  -4.079 -33.299  1.00  0.00     0.116 A 
HETATM   27  F   UNL     1      -2.838  -5.281 -33.338  1.00  0.00    -0.206 F 
HETATM   28  C   UNL     1      -3.192  -3.235 -32.222  1.00  0.00     0.044 A 
HETATM   29  C   UNL     1      -3.810  -1.984 -32.181  1.00  0.00     0.034 A 
ENDBRANCH   4  23
TORSDOF 3
ENDMDL
MODEL 7
REMARK VINA RESULT:      -8.5      3.414      3.941
REMARK  3 active torsions:
REMARK  status: ('A' for Active; 'I' for Inactive)
REMARK    1  A    between atoms: N_4  and  C_5 
REMARK    2  A    between atoms: C_16  and  C_17 
REMARK       I    between atoms: C_17  and  N_18 
REMARK    3  A    between atoms: N_18  and  C_19 
ROOT
HETATM    1  C   UNL     1      -1.855   5.050 -34.992  1.00  0.00     0.073 C 
HETATM    2  C   UNL     1      -2.070   5.216 -33.533  1.00  0.00     0.069 A 
HETATM    3  N   UNL     1      -1.039   5.499 -32.722  1.00  0.00    -0.170 NA
HETATM    4  N   UNL     1      -1.583   5.630 -31.474  1.00  0.00    -0.216 N 
HETATM    5  C   UNL     1      -2.926   5.286 -31.500  1.00  0.00     0.145 A 
HETATM    6  C   UNL     1      -3.267   5.065 -32.814  1.00  0.00     0.087 A 
HETATM    7  N   UNL     1      -3.803   5.112 -30.481  1.00  0.00    -0.349 N 
HETATM    8  C   UNL     1      -5.084   4.682 -30.791  1.00  0.00     0.111 A 
HETATM    9  C   UNL     1      -5.550   4.473 -32.044  1.00  0.00     0.098 A 
HETATM   10  C   UNL     1      -4.615   4.699 -33.200  1.00  0.00     0.205 A 
HETATM   11  O   UNL     1      -4.971   4.565 -34.367  1.00  0.00    -0.286 OA
HETATM   12  H   UNL     1      -3.524   5.020 -29.505  1.00  0.00     0.167 HD
ENDROOT
BRANCH   9  13
HETATM   13  C   UNL     1      -6.960   3.992 -32.198  1.00  0.00     0.261 C 
HETATM   14  N   UNL     1      -7.082   2.761 -32.808  1.00  0.00    -0.323 N 
HETATM   15  H   UNL     1      -6.220   2.313 -33.121  1.00  0.00     0.169 HD
HETATM   16  O   UNL     1      -7.888   4.688 -31.796  1.00  0.00    -0.267 OA
BRANCH  14  17
HETATM   17  C   UNL     1      -8.261   2.026 -33.050  1.00  0.00     0.035 A 
HETATM   18  C   UNL     1      -9.186   2.333 -34.050  1.00  0.00     0.029 A 
HETATM   19  C   UNL     1     -10.340   1.558 -34.209  1.00  0.00     0.002 A 
HETATM   20  C   UNL     1     -10.577   0.469 -33.374  1.00  0.00     0.000 A 
HETATM   21  C   UNL     1      -9.660   0.154 -32.375  1.00  0.00     0.002 A 
HETATM   22  C   UNL     1      -8.510   0.930 -32.213  1.00  0.00     0.029 A 
ENDBRANCH  14  17
ENDBRANCH   9  13
BRANCH   4  23
HETATM   23  C   UNL     1      -0.771   6.079 -30.393  1.00  0.00     0.060 A 
HETATM   24  C   UNL     1       0.073   5.207 -29.691  1.00  0.00     0.034 A 
HETATM   25  C   UNL     1       0.853   5.687 -28.635  1.00  0.00     0.044 A 
HETATM   26  C   UNL     1       0.783   7.028 -28.276  1.00  0.00     0.116 A 
HETATM   27  F   UNL     1       1.533   7.479 -27.263  1.00  0.00    -0.206 F 
HETATM   28  C   UNL     1      -0.065   7.901 -28.944  1.00  0.00     0.044 A 
HETATM   29  C   UNL     1      -0.851   7.427 -29.996  1.00  0.00     0.034 A 
ENDBRANCH   4  23
TORSDOF 3
ENDMDL
MODEL 8
REMARK VINA RESULT:      -8.4      2.285      3.431
REMARK  3 active torsions:
REMARK  status: ('A' for Active; 'I' for Inactive)
REMARK    1  A    between atoms: N_4  and  C_5 
REMARK    2  A    between atoms: C_16  and  C_17 
REMARK       I    between atoms: C_17  and  N_18 
REMARK    3  A    between atoms: N_18  and  C_19 
ROOT
HETATM    1  C   UNL     1      -0.928   6.299 -34.459  1.00  0.00     0.073 C 
HETATM    2  C   UNL     1      -1.369   6.360 -33.044  1.00  0.00     0.069 A 
HETATM    3  N   UNL     1      -0.634   7.011 -32.130  1.00  0.00    -0.170 NA
HETATM    4  N   UNL     1      -1.338   6.915 -30.961  1.00  0.00    -0.216 N 
HETATM    5  C   UNL     1      -2.433   6.083 -31.130  1.00  0.00     0.145 A 
HETATM    6  C   UNL     1      -2.498   5.756 -32.465  1.00  0.00     0.087 A 
HETATM    7  N   UNL     1      -3.297   5.578 -30.215  1.00  0.00    -0.349 N 
HETATM    8  C   UNL     1      -4.267   4.692 -30.655  1.00  0.00     0.111 A 
HETATM    9  C   UNL     1      -4.459   4.328 -31.944  1.00  0.00     0.098 A 
HETATM   10  C   UNL     1      -3.544   4.903 -32.990  1.00  0.00     0.205 A 
HETATM   11  O   UNL     1      -3.675   4.651 -34.185  1.00  0.00    -0.286 OA
HETATM   12  H   UNL     1      -3.128   5.595 -29.210  1.00  0.00     0.167 HD
ENDROOT
BRANCH   9  13
HETATM   13  C   UNL     1      -5.547   3.344 -32.242  1.00  0.00     0.261 C 
HETATM   14  N   UNL     1      -5.168   2.299 -33.058  1.00  0.00    -0.323 N 
HETATM   15  H   UNL     1      -4.207   2.308 -33.403  1.00  0.00     0.169 HD
HETATM   16  O   UNL     1      -6.668   3.515 -31.770  1.00  0.00    -0.267 OA
BRANCH  14  17
HETATM   17  C   UNL     1      -5.944   1.198 -33.476  1.00  0.00     0.035 A 
HETATM   18  C   UNL     1      -5.963  -0.039 -32.829  1.00  0.00     0.029 A 
HETATM   19  C   UNL     1      -6.750  -1.084 -33.324  1.00  0.00     0.002 A 
HETATM   20  C   UNL     1      -7.528  -0.900 -34.465  1.00  0.00     0.000 A 
HETATM   21  C   UNL     1      -7.517   0.330 -35.116  1.00  0.00     0.002 A 
HETATM   22  C   UNL     1      -6.727   1.372 -34.626  1.00  0.00     0.029 A 
ENDBRANCH  14  17
ENDBRANCH   9  13
BRANCH   4  23
HETATM   23  C   UNL     1      -0.900   7.635 -29.811  1.00  0.00     0.060 A 
HETATM   24  C   UNL     1      -1.694   8.623 -29.213  1.00  0.00     0.034 A 
HETATM   25  C   UNL     1      -1.228   9.308 -28.087  1.00  0.00     0.044 A 
HETATM   26  C   UNL     1       0.028   9.014 -27.568  1.00  0.00     0.116 A 
HETATM   27  F   UNL     1       0.467   9.675 -26.490  1.00  0.00    -0.206 F 
HETATM   28  C   UNL     1       0.838   8.055 -28.162  1.00  0.00     0.044 A 
HETATM   29  C   UNL     1       0.380   7.371 -29.290  1.00  0.00     0.034 A 
ENDBRANCH   4  23
TORSDOF 3
ENDMDL
MODEL 9
REMARK VINA RESULT:      -8.1      4.852      7.138
REMARK  3 active torsions:
REMARK  status: ('A' for Active; 'I' for Inactive)
REMARK    1  A    between atoms: N_4  and  C_5 
REMARK    2  A    between atoms: C_16  and  C_17 
REMARK       I    between atoms: C_17  and  N_18 
REMARK    3  A    between atoms: N_18  and  C_19 
ROOT
HETATM    1  C   UNL     1      -5.944   5.487 -33.185  1.00  0.00     0.073 C 
HETATM    2  C   UNL     1      -7.196   4.833 -33.638  1.00  0.00     0.069 A 
HETATM    3  N   UNL     1      -8.282   5.568 -33.920  1.00  0.00    -0.170 NA
HETATM    4  N   UNL     1      -9.226   4.674 -34.345  1.00  0.00    -0.216 N 
HETATM    5  C   UNL     1      -8.762   3.378 -34.187  1.00  0.00     0.145 A 
HETATM    6  C   UNL     1      -7.450   3.459 -33.781  1.00  0.00     0.087 A 
HETATM    7  N   UNL     1      -9.410   2.195 -34.318  1.00  0.00    -0.349 N 
HETATM    8  C   UNL     1      -8.716   1.034 -34.017  1.00  0.00     0.111 A 
HETATM    9  C   UNL     1      -7.415   0.981 -33.650  1.00  0.00     0.098 A 
HETATM   10  C   UNL     1      -6.653   2.274 -33.537  1.00  0.00     0.205 A 
HETATM   11  O   UNL     1      -5.461   2.308 -33.245  1.00  0.00    -0.286 OA
HETATM   12  H   UNL     1     -10.425   2.109 -34.367  1.00  0.00     0.167 HD
ENDROOT
BRANCH   9  13
HETATM   13  C   UNL     1      -6.824  -0.360 -33.344  1.00  0.00     0.261 C 
HETATM   14  N   UNL     1      -6.637  -1.169 -34.445  1.00  0.00    -0.323 N 
HETATM   15  H   UNL     1      -6.941  -0.800 -35.347  1.00  0.00     0.169 HD
HETATM   16  O   UNL     1      -6.554  -0.655 -32.183  1.00  0.00    -0.267 OA
BRANCH  14  17
HETATM   17  C   UNL     1      -6.062  -2.457 -34.489  1.00  0.00     0.035 A 
HETATM   18  C   UNL     1      -6.751  -3.611 -34.864  1.00  0.00     0.029 A 
HETATM   19  C   UNL     1      -6.106  -4.853 -34.862  1.00  0.00     0.002 A 
HETATM   20  C   UNL     1      -4.767  -4.949 -34.490  1.00  0.00     0.000 A 
HETATM   21  C   UNL     1      -4.071  -3.804 -34.116  1.00  0.00     0.002 A 
HETATM   22  C   UNL     1      -4.716  -2.565 -34.113  1.00  0.00     0.029 A 
ENDBRANCH  14  17
ENDBRANCH   9  13
BRANCH   4  23
HETATM   23  C   UNL     1     -10.464   5.148 -34.868  1.00  0.00     0.060 A 
HETATM   24  C   UNL     1     -11.547   4.287 -35.097  1.00  0.00     0.034 A 
HETATM   25  C   UNL     1     -12.745   4.792 -35.613  1.00  0.00     0.044 A 
HETATM   26  C   UNL     1     -12.856   6.146 -35.907  1.00  0.00     0.116 A 
HETATM   27  F   UNL     1     -14.006   6.620 -36.401  1.00  0.00    -0.206 F 
HETATM   28  C   UNL     1     -11.787   7.009 -35.709  1.00  0.00     0.044 A 
HETATM   29  C   UNL     1     -10.586   6.510 -35.199  1.00  0.00     0.034 A 
ENDBRANCH   4  23
TORSDOF 3
ENDMDL
MODEL 10
REMARK VINA RESULT:      -8.1      5.490      9.198
REMARK  3 active torsions:
REMARK  status: ('A' for Active; 'I' for Inactive)
REMARK    1  A    between atoms: N_4  and  C_5 
REMARK    2  A    between atoms: C_16  and  C_17 
REMARK       I    between atoms: C_17  and  N_18 
REMARK    3  A    between atoms: N_18  and  C_19 
ROOT
HETATM    1  C   UNL     1      -4.991   2.806 -32.108  1.00  0.00     0.073 C 
HETATM    2  C   UNL     1      -5.784   1.695 -32.688  1.00  0.00     0.069 A 
HETATM    3  N   UNL     1      -5.177   0.576 -33.111  1.00  0.00    -0.170 NA
HETATM    4  N   UNL     1      -6.184  -0.246 -33.537  1.00  0.00    -0.216 N 
HETATM    5  C   UNL     1      -7.395   0.427 -33.504  1.00  0.00     0.145 A 
HETATM    6  C   UNL     1      -7.169   1.652 -32.920  1.00  0.00     0.087 A 
HETATM    7  N   UNL     1      -8.609   0.064 -33.986  1.00  0.00    -0.349 N 
HETATM    8  C   UNL     1      -9.648   0.977 -33.889  1.00  0.00     0.111 A 
HETATM    9  C   UNL     1      -9.561   2.192 -33.300  1.00  0.00     0.098 A 
HETATM   10  C   UNL     1      -8.237   2.608 -32.718  1.00  0.00     0.205 A 
HETATM   11  O   UNL     1      -8.086   3.678 -32.135  1.00  0.00    -0.286 OA
HETATM   12  H   UNL     1      -8.751  -0.709 -34.635  1.00  0.00     0.167 HD
ENDROOT
BRANCH   9  13
HETATM   13  C   UNL     1     -10.779   3.061 -33.298  1.00  0.00     0.261 C 
HETATM   14  N   UNL     1     -11.474   3.073 -32.107  1.00  0.00    -0.323 N 
HETATM   15  H   UNL     1     -11.119   2.475 -31.360  1.00  0.00     0.169 HD
HETATM   16  O   UNL     1     -11.082   3.685 -34.312  1.00  0.00    -0.267 OA
BRANCH  14  17
HETATM   17  C   UNL     1     -12.623   3.823 -31.779  1.00  0.00     0.035 A 
HETATM   18  C   UNL     1     -12.592   5.082 -31.177  1.00  0.00     0.029 A 
HETATM   19  C   UNL     1     -13.783   5.748 -30.870  1.00  0.00     0.002 A 
HETATM   20  C   UNL     1     -15.013   5.165 -31.167  1.00  0.00     0.000 A 
HETATM   21  C   UNL     1     -15.053   3.912 -31.770  1.00  0.00     0.002 A 
HETATM   22  C   UNL     1     -13.865   3.243 -32.071  1.00  0.00     0.029 A 
ENDBRANCH  14  17
ENDBRANCH   9  13
BRANCH   4  23
HETATM   23  C   UNL     1      -5.888  -1.588 -33.916  1.00  0.00     0.060 A 
HETATM   24  C   UNL     1      -6.863  -2.429 -34.471  1.00  0.00     0.034 A 
HETATM   25  C   UNL     1      -6.533  -3.740 -34.829  1.00  0.00     0.044 A 
HETATM   26  C   UNL     1      -5.241  -4.210 -34.625  1.00  0.00     0.116 A 
HETATM   27  F   UNL     1      -4.934  -5.466 -34.970  1.00  0.00    -0.206 F 
HETATM   28  C   UNL     1      -4.269  -3.398 -34.055  1.00  0.00     0.044 A 
HETATM   29  C   UNL     1      -4.593  -2.089 -33.691  1.00  0.00     0.034 A 
ENDBRANCH   4  23
TORSDOF 3
ENDMDL
