MODEL 1
REMARK VINA RESULT:      -9.2      0.000      0.000
REMARK  3 active torsions:
REMARK  status: ('A' for Active; 'I' for Inactive)
REMARK    1  A    between atoms: C_8  and  C_9 
REMARK    2  A    between atoms: C_9  and  N_10 
REMARK    3  A    between atoms: C_14  and  C_15 
ROOT
HETATM    1  N   UNL     1      -6.494   0.545 -32.319  1.00  0.00    -0.066 N 
HETATM    2  H   UNL     1      -6.288  -0.017 -31.483  1.00  0.00     0.280 HD
HETATM    3  C   UNL     1      -6.549   1.997 -31.901  1.00  0.00     0.236 C 
HETATM    4  C   UNL     1      -7.717   2.237 -30.958  1.00  0.00     0.037 C 
HETATM    5  C   UNL     1      -9.057   1.836 -31.585  1.00  0.00     0.024 C 
HETATM    6  C   UNL     1      -8.944   0.330 -31.899  1.00  0.00     0.037 C 
HETATM    7  C   UNL     1      -7.809   0.040 -32.875  1.00  0.00     0.236 C 
ENDROOT
BRANCH   1   8
HETATM    8  C   UNL     1      -5.332   0.327 -33.271  1.00  0.00     0.293 C 
BRANCH   8   9
HETATM    9  C   UNL     1      -4.475  -0.808 -32.890  1.00  0.00     0.061 A 
HETATM   10  N   UNL     1      -4.586  -2.091 -33.403  1.00  0.00    -0.307 N 
HETATM   11  C   UNL     1      -5.478  -2.626 -34.338  1.00  0.00     0.105 A 
HETATM   12  C   UNL     1      -3.604  -2.852 -32.772  1.00  0.00     0.133 A 
HETATM   13  C   UNL     1      -5.403  -3.932 -34.662  1.00  0.00    -0.046 A 
HETATM   14  C   UNL     1      -6.308  -4.603 -35.650  1.00  0.00     0.049 C 
HETATM   15  C   UNL     1      -4.376  -4.747 -34.018  1.00  0.00     0.012 A 
HETATM   16  C   UNL     1      -3.519  -4.228 -33.118  1.00  0.00     0.051 A 
HETATM   17  N   UNL     1      -2.902  -2.127 -31.932  1.00  0.00    -0.241 NA
HETATM   18  C   UNL     1      -3.408  -0.864 -32.016  1.00  0.00     0.146 A 
ENDBRANCH   8   9
ENDBRANCH   1   8
BRANCH   5  19
HETATM   19  C   UNL     1      -9.485   2.649 -32.800  1.00  0.00    -0.024 A 
HETATM   20  C   UNL     1     -10.560   2.422 -33.741  1.00  0.00     0.018 A 
HETATM   21  C   UNL     1     -10.560   3.497 -34.628  1.00  0.00     0.138 A 
HETATM   22  C   UNL     1     -11.552   1.447 -33.968  1.00  0.00     0.017 A 
HETATM   23  N   UNL     1     -11.412   3.744 -35.636  1.00  0.00    -0.242 NA
HETATM   24  N   UNL     1      -9.499   4.298 -34.333  1.00  0.00    -0.350 N 
HETATM   25  C   UNL     1     -12.346   2.787 -35.794  1.00  0.00     0.119 A 
HETATM   26  C   UNL     1     -12.456   1.646 -35.016  1.00  0.00     0.020 A 
HETATM   27  H   UNL     1      -9.253   5.117 -34.873  1.00  0.00     0.166 HD
HETATM   28  C   UNL     1      -8.835   3.795 -33.248  1.00  0.00     0.098 A 
ENDBRANCH   5  19
TORSDOF 3
ENDMDL
MODEL 2
REMARK VINA RESULT:      -9.0      4.142      7.638
REMARK  3 active torsions:
REMARK  status: ('A' for Active; 'I' for Inactive)
REMARK    1  A    between atoms: C_8  and  C_9 
REMARK    2  A    between atoms: C_9  and  N_10 
REMARK    3  A    between atoms: C_14  and  C_15 
ROOT
HETATM    1  N   UNL     1      -4.904   3.260 -31.239  1.00  0.00    -0.066 N 
HETATM    2  H   UNL     1      -4.261   3.582 -30.505  1.00  0.00     0.280 HD
HETATM    3  C   UNL     1      -6.042   2.521 -30.569  1.00  0.00     0.236 C 
HETATM    4  C   UNL     1      -5.533   1.256 -29.896  1.00  0.00     0.037 C 
HETATM    5  C   UNL     1      -4.829   0.320 -30.886  1.00  0.00     0.024 C 
HETATM    6  C   UNL     1      -3.639   1.120 -31.454  1.00  0.00     0.037 C 
HETATM    7  C   UNL     1      -4.100   2.382 -32.175  1.00  0.00     0.236 C 
ENDROOT
BRANCH   1   8
HETATM    8  C   UNL     1      -5.433   4.511 -31.917  1.00  0.00     0.293 C 
BRANCH   8   9
HETATM    9  C   UNL     1      -4.579   4.975 -33.023  1.00  0.00     0.061 A 
HETATM   10  N   UNL     1      -3.357   5.611 -32.867  1.00  0.00    -0.307 N 
HETATM   11  C   UNL     1      -2.657   5.973 -31.712  1.00  0.00     0.105 A 
HETATM   12  C   UNL     1      -2.893   5.890 -34.151  1.00  0.00     0.133 A 
HETATM   13  C   UNL     1      -1.479   6.618 -31.817  1.00  0.00    -0.046 A 
HETATM   14  C   UNL     1      -0.652   7.049 -30.645  1.00  0.00     0.049 C 
HETATM   15  C   UNL     1      -0.971   6.915 -33.154  1.00  0.00     0.012 A 
HETATM   16  C   UNL     1      -1.647   6.565 -34.265  1.00  0.00     0.051 A 
HETATM   17  N   UNL     1      -3.731   5.460 -35.067  1.00  0.00    -0.241 NA
HETATM   18  C   UNL     1      -4.756   4.871 -34.389  1.00  0.00     0.146 A 
ENDBRANCH   8   9
ENDBRANCH   1   8
BRANCH   5  19
HETATM   19  C   UNL     1      -5.712  -0.262 -31.983  1.00  0.00    -0.024 A 
HETATM   20  C   UNL     1      -5.405  -1.239 -33.004  1.00  0.00     0.018 A 
HETATM   21  C   UNL     1      -6.581  -1.470 -33.715  1.00  0.00     0.138 A 
HETATM   22  C   UNL     1      -4.283  -1.977 -33.431  1.00  0.00     0.017 A 
HETATM   23  N   UNL     1      -6.791  -2.338 -34.718  1.00  0.00    -0.242 NA
HETATM   24  N   UNL     1      -7.541  -0.626 -33.244  1.00  0.00    -0.350 N 
HETATM   25  C   UNL     1      -5.688  -3.025 -35.071  1.00  0.00     0.119 A 
HETATM   26  C   UNL     1      -4.441  -2.885 -34.484  1.00  0.00     0.020 A 
HETATM   27  H   UNL     1      -8.470  -0.565 -33.638  1.00  0.00     0.166 HD
HETATM   28  C   UNL     1      -7.031   0.116 -32.214  1.00  0.00     0.098 A 
ENDBRANCH   5  19
TORSDOF 3
ENDMDL
MODEL 3
REMARK VINA RESULT:      -8.9      2.821      7.128
REMARK  3 active torsions:
REMARK  status: ('A' for Active; 'I' for Inactive)
REMARK    1  A    between atoms: C_8  and  C_9 
REMARK    2  A    between atoms: C_9  and  N_10 
REMARK    3  A    between atoms: C_14  and  C_15 
ROOT
HETATM    1  N   UNL     1      -7.307   1.848 -32.389  1.00  0.00    -0.066 N 
HETATM    2  H   UNL     1      -8.151   2.394 -32.602  1.00  0.00     0.280 HD
HETATM    3  C   UNL     1      -6.366   1.967 -33.568  1.00  0.00     0.236 C 
HETATM    4  C   UNL     1      -6.969   1.309 -34.800  1.00  0.00     0.037 C 
HETATM    5  C   UNL     1      -7.303  -0.167 -34.560  1.00  0.00     0.024 C 
HETATM    6  C   UNL     1      -8.327  -0.189 -33.406  1.00  0.00     0.037 C 
HETATM    7  C   UNL     1      -7.755   0.424 -32.133  1.00  0.00     0.236 C 
ENDROOT
BRANCH   1   8
HETATM    8  C   UNL     1      -6.682   2.496 -31.166  1.00  0.00     0.293 C 
BRANCH   8   9
HETATM    9  C   UNL     1      -5.211   2.543 -31.223  1.00  0.00     0.061 A 
HETATM   10  N   UNL     1      -4.461   3.702 -31.350  1.00  0.00    -0.307 N 
HETATM   11  C   UNL     1      -4.858   5.038 -31.465  1.00  0.00     0.105 A 
HETATM   12  C   UNL     1      -3.127   3.304 -31.377  1.00  0.00     0.133 A 
HETATM   13  C   UNL     1      -3.927   6.002 -31.607  1.00  0.00    -0.046 A 
HETATM   14  C   UNL     1      -4.246   7.460 -31.738  1.00  0.00     0.049 C 
HETATM   15  C   UNL     1      -2.521   5.608 -31.631  1.00  0.00     0.012 A 
HETATM   16  C   UNL     1      -2.143   4.320 -31.520  1.00  0.00     0.051 A 
HETATM   17  N   UNL     1      -3.012   2.000 -31.262  1.00  0.00    -0.241 NA
HETATM   18  C   UNL     1      -4.284   1.525 -31.137  1.00  0.00     0.146 A 
ENDBRANCH   8   9
ENDBRANCH   1   8
BRANCH   5  19
HETATM   19  C   UNL     1      -6.111  -1.077 -34.292  1.00  0.00    -0.024 A 
HETATM   20  C   UNL     1      -5.974  -2.507 -34.460  1.00  0.00     0.018 A 
HETATM   21  C   UNL     1      -4.660  -2.833 -34.132  1.00  0.00     0.138 A 
HETATM   22  C   UNL     1      -6.788  -3.588 -34.856  1.00  0.00     0.017 A 
HETATM   23  N   UNL     1      -4.060  -4.033 -34.193  1.00  0.00    -0.242 NA
HETATM   24  N   UNL     1      -4.035  -1.707 -33.691  1.00  0.00    -0.350 N 
HETATM   25  C   UNL     1      -4.882  -5.023 -34.591  1.00  0.00     0.119 A 
HETATM   26  C   UNL     1      -6.218  -4.864 -34.920  1.00  0.00     0.020 A 
HETATM   27  H   UNL     1      -3.086  -1.698 -33.342  1.00  0.00     0.166 HD
HETATM   28  C   UNL     1      -4.896  -0.647 -33.767  1.00  0.00     0.098 A 
ENDBRANCH   5  19
TORSDOF 3
ENDMDL
MODEL 4
REMARK VINA RESULT:      -8.8      4.473      8.036
REMARK  3 active torsions:
REMARK  status: ('A' for Active; 'I' for Inactive)
REMARK    1  A    between atoms: C_8  and  C_9 
REMARK    2  A    between atoms: C_9  and  N_10 
REMARK    3  A    between atoms: C_14  and  C_15 
ROOT
HETATM    1  N   UNL     1      -4.864   3.413 -32.144  1.00  0.00    -0.066 N 
HETATM    2  H   UNL     1      -5.436   4.107 -31.646  1.00  0.00     0.280 HD
HETATM    3  C   UNL     1      -5.777   2.624 -33.056  1.00  0.00     0.236 C 
HETATM    4  C   UNL     1      -6.773   1.813 -32.241  1.00  0.00     0.037 C 
HETATM    5  C   UNL     1      -6.077   0.858 -31.265  1.00  0.00     0.024 C 
HETATM    6  C   UNL     1      -5.240   1.747 -30.324  1.00  0.00     0.037 C 
HETATM    7  C   UNL     1      -4.197   2.553 -31.090  1.00  0.00     0.236 C 
ENDROOT
BRANCH   1   8
HETATM    8  C   UNL     1      -3.868   4.203 -32.973  1.00  0.00     0.293 C 
BRANCH   8   9
HETATM    9  C   UNL     1      -3.531   5.510 -32.383  1.00  0.00     0.061 A 
HETATM   10  N   UNL     1      -2.309   5.829 -31.811  1.00  0.00    -0.307 N 
HETATM   11  C   UNL     1      -1.155   5.059 -31.634  1.00  0.00     0.105 A 
HETATM   12  C   UNL     1      -2.415   7.146 -31.369  1.00  0.00     0.133 A 
HETATM   13  C   UNL     1      -0.084   5.592 -31.014  1.00  0.00    -0.046 A 
HETATM   14  C   UNL     1       1.198   4.854 -30.775  1.00  0.00     0.049 C 
HETATM   15  C   UNL     1      -0.171   6.974 -30.549  1.00  0.00     0.012 A 
HETATM   16  C   UNL     1      -1.284   7.712 -30.721  1.00  0.00     0.051 A 
HETATM   17  N   UNL     1      -3.597   7.650 -31.643  1.00  0.00    -0.241 NA
HETATM   18  C   UNL     1      -4.281   6.665 -32.291  1.00  0.00     0.146 A 
ENDBRANCH   8   9
ENDBRANCH   1   8
BRANCH   5  19
HETATM   19  C   UNL     1      -5.248  -0.248 -31.905  1.00  0.00    -0.024 A 
HETATM   20  C   UNL     1      -5.580  -1.158 -32.980  1.00  0.00     0.018 A 
HETATM   21  C   UNL     1      -4.446  -1.931 -33.225  1.00  0.00     0.138 A 
HETATM   22  C   UNL     1      -6.694  -1.438 -33.796  1.00  0.00     0.017 A 
HETATM   23  N   UNL     1      -4.267  -2.869 -34.169  1.00  0.00    -0.242 NA
HETATM   24  N   UNL     1      -3.496  -1.604 -32.306  1.00  0.00    -0.350 N 
HETATM   25  C   UNL     1      -5.359  -3.081 -34.927  1.00  0.00     0.119 A 
HETATM   26  C   UNL     1      -6.567  -2.418 -34.785  1.00  0.00     0.020 A 
HETATM   27  H   UNL     1      -2.600  -2.069 -32.243  1.00  0.00     0.166 HD
HETATM   28  C   UNL     1      -3.967  -0.606 -31.498  1.00  0.00     0.098 A 
ENDBRANCH   5  19
TORSDOF 3
ENDMDL
MODEL 5
REMARK VINA RESULT:      -8.5      2.762      7.627
REMARK  3 active torsions:
REMARK  status: ('A' for Active; 'I' for Inactive)
REMARK    1  A    between atoms: C_8  and  C_9 
REMARK    2  A    between atoms: C_9  and  N_10 
REMARK    3  A    between atoms: C_14  and  C_15 
ROOT
HETATM    1  N   UNL     1      -7.591   1.801 -32.573  1.00  0.00    -0.066 N 
HETATM    2  H   UNL     1      -8.440   2.310 -32.852  1.00  0.00     0.280 HD
HETATM    3  C   UNL     1      -6.578   1.937 -33.688  1.00  0.00     0.236 C 
HETATM    4  C   UNL     1      -7.072   1.236 -34.944  1.00  0.00     0.037 C 
HETATM    5  C   UNL     1      -7.365  -0.249 -34.699  1.00  0.00     0.024 C 
HETATM    6  C   UNL     1      -8.462  -0.292 -33.616  1.00  0.00     0.037 C 
HETATM    7  C   UNL     1      -8.001   0.365 -32.320  1.00  0.00     0.236 C 
ENDROOT
BRANCH   1   8
HETATM    8  C   UNL     1      -7.076   2.493 -31.324  1.00  0.00     0.293 C 
BRANCH   8   9
HETATM    9  C   UNL     1      -6.936   3.950 -31.485  1.00  0.00     0.061 A 
HETATM   10  N   UNL     1      -5.727   4.627 -31.554  1.00  0.00    -0.307 N 
HETATM   11  C   UNL     1      -4.413   4.156 -31.481  1.00  0.00     0.105 A 
HETATM   12  C   UNL     1      -6.041   5.977 -31.692  1.00  0.00     0.133 A 
HETATM   13  C   UNL     1      -3.386   5.026 -31.548  1.00  0.00    -0.046 A 
HETATM   14  C   UNL     1      -1.944   4.627 -31.480  1.00  0.00     0.049 C 
HETATM   15  C   UNL     1      -3.692   6.447 -31.699  1.00  0.00     0.012 A 
HETATM   16  C   UNL     1      -4.960   6.896 -31.769  1.00  0.00     0.051 A 
HETATM   17  N   UNL     1      -7.341   6.166 -31.726  1.00  0.00    -0.241 NA
HETATM   18  C   UNL     1      -7.901   4.927 -31.629  1.00  0.00     0.146 A 
ENDBRANCH   8   9
ENDBRANCH   1   8
BRANCH   5  19
HETATM   19  C   UNL     1      -6.159  -1.107 -34.335  1.00  0.00    -0.024 A 
HETATM   20  C   UNL     1      -5.956  -2.532 -34.468  1.00  0.00     0.018 A 
HETATM   21  C   UNL     1      -4.656  -2.801 -34.046  1.00  0.00     0.138 A 
HETATM   22  C   UNL     1      -6.698  -3.650 -34.899  1.00  0.00     0.017 A 
HETATM   23  N   UNL     1      -4.007  -3.977 -34.044  1.00  0.00    -0.242 NA
HETATM   24  N   UNL     1      -4.106  -1.644 -33.583  1.00  0.00    -0.350 N 
HETATM   25  C   UNL     1      -4.761  -5.004 -34.480  1.00  0.00     0.119 A 
HETATM   26  C   UNL     1      -6.077  -4.903 -34.901  1.00  0.00     0.020 A 
HETATM   27  H   UNL     1      -3.185  -1.592 -33.171  1.00  0.00     0.166 HD
HETATM   28  C   UNL     1      -5.001  -0.621 -33.736  1.00  0.00     0.098 A 
ENDBRANCH   5  19
TORSDOF 3
ENDMDL
MODEL 6
REMARK VINA RESULT:      -8.4      4.180      6.950
REMARK  3 active torsions:
REMARK  status: ('A' for Active; 'I' for Inactive)
REMARK    1  A    between atoms: C_8  and  C_9 
REMARK    2  A    between atoms: C_9  and  N_10 
REMARK    3  A    between atoms: C_14  and  C_15 
ROOT
HETATM    1  N   UNL     1      -4.606   3.185 -30.362  1.00  0.00    -0.066 N 
HETATM    2  H   UNL     1      -4.027   3.120 -29.514  1.00  0.00     0.280 HD
HETATM    3  C   UNL     1      -5.929   2.512 -30.074  1.00  0.00     0.236 C 
HETATM    4  C   UNL     1      -5.730   1.023 -29.837  1.00  0.00     0.037 C 
HETATM    5  C   UNL     1      -5.055   0.335 -31.030  1.00  0.00     0.024 C 
HETATM    6  C   UNL     1      -3.685   1.022 -31.197  1.00  0.00     0.037 C 
HETATM    7  C   UNL     1      -3.832   2.514 -31.477  1.00  0.00     0.236 C 
ENDROOT
BRANCH   1   8
HETATM    8  C   UNL     1      -4.826   4.667 -30.610  1.00  0.00     0.293 C 
BRANCH   8   9
HETATM    9  C   UNL     1      -4.428   5.093 -31.962  1.00  0.00     0.061 A 
HETATM   10  N   UNL     1      -3.191   5.625 -32.292  1.00  0.00    -0.307 N 
HETATM   11  C   UNL     1      -2.073   5.896 -31.498  1.00  0.00     0.105 A 
HETATM   12  C   UNL     1      -3.235   5.903 -33.657  1.00  0.00     0.133 A 
HETATM   13  C   UNL     1      -0.976   6.448 -32.053  1.00  0.00    -0.046 A 
HETATM   14  C   UNL     1       0.272   6.777 -31.292  1.00  0.00     0.049 C 
HETATM   15  C   UNL     1      -0.998   6.742 -33.484  1.00  0.00     0.012 A 
HETATM   16  C   UNL     1      -2.077   6.479 -34.245  1.00  0.00     0.051 A 
HETATM   17  N   UNL     1      -4.394   5.568 -34.177  1.00  0.00    -0.241 NA
HETATM   18  C   UNL     1      -5.125   5.043 -33.153  1.00  0.00     0.146 A 
ENDBRANCH   8   9
ENDBRANCH   1   8
BRANCH   5  19
HETATM   19  C   UNL     1      -5.859   0.324 -32.324  1.00  0.00    -0.024 A 
HETATM   20  C   UNL     1      -7.286   0.423 -32.535  1.00  0.00     0.018 A 
HETATM   21  C   UNL     1      -7.496   0.426 -33.913  1.00  0.00     0.138 A 
HETATM   22  C   UNL     1      -8.448   0.517 -31.743  1.00  0.00     0.017 A 
HETATM   23  N   UNL     1      -8.656   0.557 -34.578  1.00  0.00    -0.242 NA
HETATM   24  N   UNL     1      -6.297   0.242 -34.531  1.00  0.00    -0.350 N 
HETATM   25  C   UNL     1      -9.728   0.659 -33.769  1.00  0.00     0.119 A 
HETATM   26  C   UNL     1      -9.685   0.638 -32.385  1.00  0.00     0.020 A 
HETATM   27  H   UNL     1      -6.196   0.154 -35.533  1.00  0.00     0.166 HD
HETATM   28  C   UNL     1      -5.306   0.165 -33.591  1.00  0.00     0.098 A 
ENDBRANCH   5  19
TORSDOF 3
ENDMDL
MODEL 7
REMARK VINA RESULT:      -8.4      5.220      7.532
REMARK  3 active torsions:
REMARK  status: ('A' for Active; 'I' for Inactive)
REMARK    1  A    between atoms: C_8  and  C_9 
REMARK    2  A    between atoms: C_9  and  N_10 
REMARK    3  A    between atoms: C_14  and  C_15 
ROOT
HETATM    1  N   UNL     1      -4.096   3.289 -32.518  1.00  0.00    -0.066 N 
HETATM    2  H   UNL     1      -4.263   2.856 -33.436  1.00  0.00     0.280 HD
HETATM    3  C   UNL     1      -4.987   4.507 -32.410  1.00  0.00     0.236 C 
HETATM    4  C   UNL     1      -4.579   5.558 -33.431  1.00  0.00     0.037 C 
HETATM    5  C   UNL     1      -3.115   5.981 -33.269  1.00  0.00     0.024 C 
HETATM    6  C   UNL     1      -2.278   4.702 -33.479  1.00  0.00     0.037 C 
HETATM    7  C   UNL     1      -2.622   3.628 -32.452  1.00  0.00     0.236 C 
ENDROOT
BRANCH   1   8
HETATM    8  C   UNL     1      -4.508   2.258 -31.483  1.00  0.00     0.293 C 
BRANCH   8   9
HETATM    9  C   UNL     1      -4.221   0.874 -31.897  1.00  0.00     0.061 A 
HETATM   10  N   UNL     1      -4.936   0.170 -32.855  1.00  0.00    -0.307 N 
HETATM   11  C   UNL     1      -6.046   0.541 -33.621  1.00  0.00     0.105 A 
HETATM   12  C   UNL     1      -4.350  -1.091 -32.932  1.00  0.00     0.133 A 
HETATM   13  C   UNL     1      -6.590  -0.342 -34.481  1.00  0.00    -0.046 A 
HETATM   14  C   UNL     1      -7.777  -0.045 -35.346  1.00  0.00     0.049 C 
HETATM   15  C   UNL     1      -5.987  -1.669 -34.583  1.00  0.00     0.012 A 
HETATM   16  C   UNL     1      -4.919  -2.022 -33.844  1.00  0.00     0.051 A 
HETATM   17  N   UNL     1      -3.332  -1.199 -32.109  1.00  0.00    -0.241 NA
HETATM   18  C   UNL     1      -3.224   0.011 -31.490  1.00  0.00     0.146 A 
ENDBRANCH   8   9
ENDBRANCH   1   8
BRANCH   5  19
HETATM   19  C   UNL     1      -2.773   6.688 -31.963  1.00  0.00    -0.024 A 
HETATM   20  C   UNL     1      -1.523   6.754 -31.240  1.00  0.00     0.018 A 
HETATM   21  C   UNL     1      -1.732   7.581 -30.138  1.00  0.00     0.138 A 
HETATM   22  C   UNL     1      -0.221   6.229 -31.367  1.00  0.00     0.017 A 
HETATM   23  N   UNL     1      -0.842   7.978 -29.214  1.00  0.00    -0.242 NA
HETATM   24  N   UNL     1      -3.047   7.933 -30.108  1.00  0.00    -0.350 N 
HETATM   25  C   UNL     1       0.387   7.457 -29.396  1.00  0.00     0.119 A 
HETATM   26  C   UNL     1       0.742   6.596 -30.422  1.00  0.00     0.020 A 
HETATM   27  H   UNL     1      -3.457   8.488 -29.370  1.00  0.00     0.166 HD
HETATM   28  C   UNL     1      -3.689   7.393 -31.189  1.00  0.00     0.098 A 
ENDBRANCH   5  19
TORSDOF 3
ENDMDL
MODEL 8
REMARK VINA RESULT:      -8.3      2.898      4.978
REMARK  3 active torsions:
REMARK  status: ('A' for Active; 'I' for Inactive)
REMARK    1  A    between atoms: C_8  and  C_9 
REMARK    2  A    between atoms: C_9  and  N_10 
REMARK    3  A    between atoms: C_14  and  C_15 
ROOT
HETATM    1  N   UNL     1      -8.070   1.728 -32.619  1.00  0.00    -0.066 N 
HETATM    2  H   UNL     1      -9.079   1.916 -32.677  1.00  0.00     0.280 HD
HETATM    3  C   UNL     1      -7.595   2.153 -31.247  1.00  0.00     0.236 C 
HETATM    4  C   UNL     1      -7.732   3.658 -31.078  1.00  0.00     0.037 C 
HETATM    5  C   UNL     1      -6.955   4.431 -32.150  1.00  0.00     0.024 C 
HETATM    6  C   UNL     1      -7.559   4.004 -33.503  1.00  0.00     0.037 C 
HETATM    7  C   UNL     1      -7.411   2.505 -33.739  1.00  0.00     0.236 C 
ENDROOT
BRANCH   1   8
HETATM    8  C   UNL     1      -7.912   0.226 -32.774  1.00  0.00     0.293 C 
BRANCH   8   9
HETATM    9  C   UNL     1      -6.507  -0.200 -32.892  1.00  0.00     0.061 A 
HETATM   10  N   UNL     1      -6.078  -1.342 -33.551  1.00  0.00    -0.307 N 
HETATM   11  C   UNL     1      -6.800  -2.334 -34.221  1.00  0.00     0.105 A 
HETATM   12  C   UNL     1      -4.692  -1.377 -33.414  1.00  0.00     0.133 A 
HETATM   13  C   UNL     1      -6.150  -3.380 -34.769  1.00  0.00    -0.046 A 
HETATM   14  C   UNL     1      -6.828  -4.493 -35.507  1.00  0.00     0.049 C 
HETATM   15  C   UNL     1      -4.696  -3.433 -34.643  1.00  0.00     0.012 A 
HETATM   16  C   UNL     1      -4.004  -2.475 -33.997  1.00  0.00     0.051 A 
HETATM   17  N   UNL     1      -4.251  -0.341 -32.737  1.00  0.00    -0.241 NA
HETATM   18  C   UNL     1      -5.352   0.404 -32.436  1.00  0.00     0.146 A 
ENDBRANCH   8   9
ENDBRANCH   1   8
BRANCH   5  19
HETATM   19  C   UNL     1      -5.441   4.266 -32.114  1.00  0.00    -0.024 A 
HETATM   20  C   UNL     1      -4.446   4.579 -33.116  1.00  0.00     0.018 A 
HETATM   21  C   UNL     1      -3.201   4.295 -32.558  1.00  0.00     0.138 A 
HETATM   22  C   UNL     1      -4.422   5.077 -34.435  1.00  0.00     0.017 A 
HETATM   23  N   UNL     1      -1.985   4.481 -33.097  1.00  0.00    -0.242 NA
HETATM   24  N   UNL     1      -3.397   3.746 -31.327  1.00  0.00    -0.350 N 
HETATM   25  C   UNL     1      -2.025   4.973 -34.350  1.00  0.00     0.119 A 
HETATM   26  C   UNL     1      -3.181   5.274 -35.051  1.00  0.00     0.020 A 
HETATM   27  H   UNL     1      -2.644   3.405 -30.745  1.00  0.00     0.166 HD
HETATM   28  C   UNL     1      -4.736   3.708 -31.052  1.00  0.00     0.098 A 
ENDBRANCH   5  19
TORSDOF 3
ENDMDL
MODEL 9
REMARK VINA RESULT:      -8.3      1.514      7.688
REMARK  3 active torsions:
REMARK  status: ('A' for Active; 'I' for Inactive)
REMARK    1  A    between atoms: C_8  and  C_9 
REMARK    2  A    between atoms: C_9  and  N_10 
REMARK    3  A    between atoms: C_14  and  C_15 
ROOT
HETATM    1  N   UNL     1      -7.369   1.303 -31.940  1.00  0.00    -0.066 N 
HETATM    2  H   UNL     1      -6.973   2.121 -31.459  1.00  0.00     0.280 HD
HETATM    3  C   UNL     1      -6.864   0.061 -31.239  1.00  0.00     0.236 C 
HETATM    4  C   UNL     1      -5.357  -0.067 -31.403  1.00  0.00     0.037 C 
HETATM    5  C   UNL     1      -4.939  -0.107 -32.877  1.00  0.00     0.024 C 
HETATM    6  C   UNL     1      -5.416   1.225 -33.490  1.00  0.00     0.037 C 
HETATM    7  C   UNL     1      -6.928   1.385 -33.386  1.00  0.00     0.236 C 
ENDROOT
BRANCH   1   8
HETATM    8  C   UNL     1      -8.875   1.406 -31.779  1.00  0.00     0.293 C 
BRANCH   8   9
HETATM    9  C   UNL     1      -9.511   2.255 -32.801  1.00  0.00     0.061 A 
HETATM   10  N   UNL     1     -10.717   1.975 -33.425  1.00  0.00    -0.307 N 
HETATM   11  C   UNL     1     -11.588   0.891 -33.281  1.00  0.00     0.105 A 
HETATM   12  C   UNL     1     -10.945   3.016 -34.322  1.00  0.00     0.133 A 
HETATM   13  C   UNL     1     -12.706   0.828 -34.031  1.00  0.00    -0.046 A 
HETATM   14  C   UNL     1     -13.704  -0.287 -33.954  1.00  0.00     0.049 C 
HETATM   15  C   UNL     1     -12.969   1.912 -34.974  1.00  0.00     0.012 A 
HETATM   16  C   UNL     1     -12.127   2.954 -35.109  1.00  0.00     0.051 A 
HETATM   17  N   UNL     1      -9.980   3.907 -34.279  1.00  0.00    -0.241 NA
HETATM   18  C   UNL     1      -9.109   3.466 -33.328  1.00  0.00     0.146 A 
ENDBRANCH   8   9
ENDBRANCH   1   8
BRANCH   5  19
HETATM   19  C   UNL     1      -5.427  -1.315 -33.667  1.00  0.00    -0.024 A 
HETATM   20  C   UNL     1      -4.885  -2.653 -33.752  1.00  0.00     0.018 A 
HETATM   21  C   UNL     1      -5.746  -3.391 -34.563  1.00  0.00     0.138 A 
HETATM   22  C   UNL     1      -3.775  -3.357 -33.246  1.00  0.00     0.017 A 
HETATM   23  N   UNL     1      -5.677  -4.694 -34.880  1.00  0.00    -0.242 NA
HETATM   24  N   UNL     1      -6.709  -2.556 -35.040  1.00  0.00    -0.350 N 
HETATM   25  C   UNL     1      -4.605  -5.317 -34.355  1.00  0.00     0.119 A 
HETATM   26  C   UNL     1      -3.645  -4.714 -33.559  1.00  0.00     0.020 A 
HETATM   27  H   UNL     1      -7.422  -2.846 -35.696  1.00  0.00     0.166 HD
HETATM   28  C   UNL     1      -6.524  -1.303 -34.523  1.00  0.00     0.098 A 
ENDBRANCH   5  19
TORSDOF 3
ENDMDL
MODEL 10
REMARK VINA RESULT:      -8.2      5.850      8.798
REMARK  3 active torsions:
REMARK  status: ('A' for Active; 'I' for Inactive)
REMARK    1  A    between atoms: C_8  and  C_9 
REMARK    2  A    between atoms: C_9  and  N_10 
REMARK    3  A    between atoms: C_14  and  C_15 
ROOT
HETATM    1  N   UNL     1      -3.768   4.679 -32.276  1.00  0.00    -0.066 N 
HETATM    2  H   UNL     1      -4.167   4.903 -33.196  1.00  0.00     0.280 HD
HETATM    3  C   UNL     1      -3.713   5.958 -31.469  1.00  0.00     0.236 C 
HETATM    4  C   UNL     1      -2.742   6.944 -32.098  1.00  0.00     0.037 C 
HETATM    5  C   UNL     1      -1.330   6.361 -32.227  1.00  0.00     0.024 C 
HETATM    6  C   UNL     1      -1.465   5.118 -33.130  1.00  0.00     0.037 C 
HETATM    7  C   UNL     1      -2.400   4.078 -32.523  1.00  0.00     0.236 C 
ENDROOT
BRANCH   1   8
HETATM    8  C   UNL     1      -4.730   3.702 -31.625  1.00  0.00     0.293 C 
BRANCH   8   9
HETATM    9  C   UNL     1      -5.452   2.865 -32.598  1.00  0.00     0.061 A 
HETATM   10  N   UNL     1      -5.235   1.509 -32.791  1.00  0.00    -0.307 N 
HETATM   11  C   UNL     1      -4.334   0.633 -32.179  1.00  0.00     0.105 A 
HETATM   12  C   UNL     1      -6.109   1.113 -33.801  1.00  0.00     0.133 A 
HETATM   13  C   UNL     1      -4.292  -0.658 -32.562  1.00  0.00    -0.046 A 
HETATM   14  C   UNL     1      -3.366  -1.677 -31.971  1.00  0.00     0.049 C 
HETATM   15  C   UNL     1      -5.204  -1.097 -33.615  1.00  0.00     0.012 A 
HETATM   16  C   UNL     1      -6.070  -0.250 -34.203  1.00  0.00     0.051 A 
HETATM   17  N   UNL     1      -6.844   2.117 -34.221  1.00  0.00    -0.241 NA
HETATM   18  C   UNL     1      -6.471   3.192 -33.470  1.00  0.00     0.146 A 
ENDBRANCH   8   9
ENDBRANCH   1   8
BRANCH   5  19
HETATM   19  C   UNL     1      -0.625   6.048 -30.913  1.00  0.00    -0.024 A 
HETATM   20  C   UNL     1      -0.555   6.814 -29.689  1.00  0.00     0.018 A 
HETATM   21  C   UNL     1       0.163   6.050 -28.770  1.00  0.00     0.138 A 
HETATM   22  C   UNL     1      -1.008   8.062 -29.217  1.00  0.00     0.017 A 
HETATM   23  N   UNL     1       0.433   6.330 -27.485  1.00  0.00    -0.242 NA
HETATM   24  N   UNL     1       0.603   4.924 -29.398  1.00  0.00    -0.350 N 
HETATM   25  C   UNL     1      -0.039   7.527 -27.088  1.00  0.00     0.119 A 
HETATM   26  C   UNL     1      -0.741   8.412 -27.890  1.00  0.00     0.020 A 
HETATM   27  H   UNL     1       1.195   4.235 -28.954  1.00  0.00     0.166 HD
HETATM   28  C   UNL     1       0.151   4.915 -30.689  1.00  0.00     0.098 A 
ENDBRANCH   5  19
TORSDOF 3
ENDMDL
