MODEL 1
REMARK VINA RESULT:      -9.8      0.000      0.000
REMARK  6 active torsions:
REMARK  status: ('A' for Active; 'I' for Inactive)
REMARK    1  A    between atoms: C_3  and  C_4 
REMARK    2  A    between atoms: N_5  and  C_6 
REMARK    3  A    between atoms: C_11  and  S_12 
REMARK    4  A    between atoms: S_12  and  C_13 
REMARK    5  A    between atoms: C_13  and  C_14 
REMARK       I    between atoms: C_14  and  N_15 
REMARK    6  A    between atoms: N_15  and  C_16 
ROOT
HETATM    1  S   UNL     1      -8.930   1.788 -32.745  1.00  0.00    -0.081 SA
ENDROOT
BRANCH   1   2
HETATM    2  C   UNL     1      -7.851   0.956 -33.809  1.00  0.00     0.192 C 
HETATM    3  N   UNL     1      -6.825   0.135 -33.414  1.00  0.00    -0.302 N 
HETATM    4  C   UNL     1      -6.708  -0.770 -34.464  1.00  0.00     0.166 C 
HETATM    5  N   UNL     1      -7.371  -0.293 -35.503  1.00  0.00    -0.128 NA
HETATM    6  N   UNL     1      -8.099   0.786 -35.088  1.00  0.00    -0.122 NA
BRANCH   3   7
HETATM    7  C   UNL     1      -6.081   0.094 -32.166  1.00  0.00     0.094 C 
HETATM    8  C   UNL     1      -5.286   1.384 -31.889  1.00  0.00     0.026 C 
HETATM    9  C   UNL     1      -4.897   1.310 -30.420  1.00  0.00     0.002 C 
HETATM   10  C   UNL     1      -5.949   0.440 -29.753  1.00  0.00     0.002 C 
HETATM   11  C   UNL     1      -6.892  -0.010 -30.863  1.00  0.00     0.026 C 
ENDBRANCH   3   7
BRANCH   4  12
HETATM   12  C   UNL     1      -6.093  -2.095 -34.401  1.00  0.00     0.034 A 
HETATM   13  C   UNL     1      -6.886  -3.220 -34.698  1.00  0.00     0.017 A 
HETATM   14  C   UNL     1      -6.341  -4.505 -34.694  1.00  0.00     0.001 A 
HETATM   15  C   UNL     1      -4.994  -4.684 -34.395  1.00  0.00     0.002 A 
HETATM   16  C   UNL     1      -4.191  -3.579 -34.105  1.00  0.00     0.025 A 
HETATM   17  C   UNL     1      -4.735  -2.289 -34.113  1.00  0.00     0.048 A 
HETATM   18 CL   UNL     1      -3.683  -0.977 -33.712  1.00  0.00    -0.083 Cl
ENDBRANCH   4  12
ENDBRANCH   1   2
BRANCH   1  19
HETATM   19  C   UNL     1      -9.496   3.113 -33.859  1.00  0.00     0.185 C 
BRANCH  19  20
HETATM   20  C   UNL     1      -8.478   4.250 -33.923  1.00  0.00     0.231 C 
HETATM   21  N   UNL     1      -7.279   3.935 -33.303  1.00  0.00    -0.326 N 
HETATM   22  H   UNL     1      -7.131   2.945 -33.102  1.00  0.00     0.169 HD
HETATM   23  O   UNL     1      -8.730   5.299 -34.510  1.00  0.00    -0.272 OA
BRANCH  21  24
HETATM   24  C   UNL     1      -6.133   4.745 -33.171  1.00  0.00     0.037 A 
HETATM   25  C   UNL     1      -5.150   4.866 -34.158  1.00  0.00     0.061 A 
HETATM   26  C   UNL     1      -4.066   5.663 -33.863  1.00  0.00     0.065 A 
HETATM   27  C   UNL     1      -3.941   6.343 -32.653  1.00  0.00     0.063 A 
HETATM   28  N   UNL     1      -2.937   5.944 -34.626  1.00  0.00    -0.306 N 
HETATM   29  N   UNL     1      -2.741   7.043 -32.674  1.00  0.00    -0.307 N 
HETATM   30  C   UNL     1      -4.893   6.262 -31.671  1.00  0.00     0.034 A 
HETATM   31  C   UNL     1      -2.101   6.803 -33.897  1.00  0.00     0.325 A 
HETATM   32  H   UNL     1      -2.365   7.631 -31.949  1.00  0.00     0.170 HD
HETATM   33  O   UNL     1      -1.025   7.246 -34.255  1.00  0.00    -0.247 OA
HETATM   34  C   UNL     1      -6.000   5.449 -31.942  1.00  0.00     0.032 A 
HETATM   35  H   UNL     1      -2.727   5.605 -35.551  1.00  0.00     0.170 HD
ENDBRANCH  21  24
ENDBRANCH  19  20
ENDBRANCH   1  19
TORSDOF 6
ENDMDL
MODEL 2
REMARK VINA RESULT:      -9.7      3.080      8.097
REMARK  6 active torsions:
REMARK  status: ('A' for Active; 'I' for Inactive)
REMARK    1  A    between atoms: C_3  and  C_4 
REMARK    2  A    between atoms: N_5  and  C_6 
REMARK    3  A    between atoms: C_11  and  S_12 
REMARK    4  A    between atoms: S_12  and  C_13 
REMARK    5  A    between atoms: C_13  and  C_14 
REMARK       I    between atoms: C_14  and  N_15 
REMARK    6  A    between atoms: N_15  and  C_16 
ROOT
HETATM    1  S   UNL     1      -7.098   5.075 -33.297  1.00  0.00    -0.081 SA
ENDROOT
BRANCH   1   2
HETATM    2  C   UNL     1      -5.496   5.624 -33.649  1.00  0.00     0.192 C 
HETATM    3  N   UNL     1      -4.645   6.211 -32.748  1.00  0.00    -0.302 N 
HETATM    4  C   UNL     1      -3.382   5.864 -33.217  1.00  0.00     0.166 C 
HETATM    5  N   UNL     1      -3.504   5.416 -34.454  1.00  0.00    -0.128 NA
HETATM    6  N   UNL     1      -4.834   5.254 -34.721  1.00  0.00    -0.122 NA
BRANCH   3   7
HETATM    7  C   UNL     1      -4.929   6.933 -31.519  1.00  0.00     0.094 C 
HETATM    8  C   UNL     1      -4.686   6.094 -30.250  1.00  0.00     0.026 C 
HETATM    9  C   UNL     1      -4.666   7.093 -29.102  1.00  0.00     0.002 C 
HETATM   10  C   UNL     1      -4.229   8.415 -29.709  1.00  0.00     0.002 C 
HETATM   11  C   UNL     1      -4.056   8.160 -31.202  1.00  0.00     0.026 C 
ENDBRANCH   3   7
BRANCH   4  12
HETATM   12  C   UNL     1      -2.144   5.845 -32.439  1.00  0.00     0.034 A 
HETATM   13  C   UNL     1      -1.289   6.961 -32.508  1.00  0.00     0.017 A 
HETATM   14  C   UNL     1      -0.115   7.015 -31.756  1.00  0.00     0.001 A 
HETATM   15  C   UNL     1       0.221   5.954 -30.921  1.00  0.00     0.002 A 
HETATM   16  C   UNL     1      -0.618   4.842 -30.835  1.00  0.00     0.025 A 
HETATM   17  C   UNL     1      -1.799   4.787 -31.586  1.00  0.00     0.048 A 
HETATM   18 CL   UNL     1      -2.768   3.362 -31.448  1.00  0.00    -0.083 Cl
ENDBRANCH   4  12
ENDBRANCH   1   2
BRANCH   1  19
HETATM   19  C   UNL     1      -6.704   3.585 -32.328  1.00  0.00     0.185 C 
BRANCH  19  20
HETATM   20  C   UNL     1      -6.471   2.382 -33.240  1.00  0.00     0.231 C 
HETATM   21  N   UNL     1      -5.997   1.272 -32.560  1.00  0.00    -0.326 N 
HETATM   22  H   UNL     1      -6.089   1.305 -31.543  1.00  0.00     0.169 HD
HETATM   23  O   UNL     1      -6.732   2.433 -34.440  1.00  0.00    -0.272 OA
BRANCH  21  24
HETATM   24  C   UNL     1      -5.673   0.005 -33.086  1.00  0.00     0.037 A 
HETATM   25  C   UNL     1      -6.609  -0.856 -33.668  1.00  0.00     0.061 A 
HETATM   26  C   UNL     1      -6.145  -2.080 -34.098  1.00  0.00     0.065 A 
HETATM   27  C   UNL     1      -4.808  -2.457 -33.989  1.00  0.00     0.063 A 
HETATM   28  N   UNL     1      -6.838  -3.137 -34.680  1.00  0.00    -0.306 N 
HETATM   29  N   UNL     1      -4.679  -3.740 -34.506  1.00  0.00    -0.307 N 
HETATM   30  C   UNL     1      -3.861  -1.631 -33.442  1.00  0.00     0.034 A 
HETATM   31  C   UNL     1      -5.937  -4.180 -34.938  1.00  0.00     0.325 A 
HETATM   32  H   UNL     1      -3.838  -4.290 -34.570  1.00  0.00     0.170 HD
HETATM   33  O   UNL     1      -6.198  -5.261 -35.435  1.00  0.00    -0.247 OA
HETATM   34  C   UNL     1      -4.310  -0.386 -32.986  1.00  0.00     0.032 A 
HETATM   35  H   UNL     1      -7.821  -3.176 -34.895  1.00  0.00     0.170 HD
ENDBRANCH  21  24
ENDBRANCH  19  20
ENDBRANCH   1  19
TORSDOF 6
ENDMDL
MODEL 3
REMARK VINA RESULT:      -9.3      3.871      9.051
REMARK  6 active torsions:
REMARK  status: ('A' for Active; 'I' for Inactive)
REMARK    1  A    between atoms: C_3  and  C_4 
REMARK    2  A    between atoms: N_5  and  C_6 
REMARK    3  A    between atoms: C_11  and  S_12 
REMARK    4  A    between atoms: S_12  and  C_13 
REMARK    5  A    between atoms: C_13  and  C_14 
REMARK       I    between atoms: C_14  and  N_15 
REMARK    6  A    between atoms: N_15  and  C_16 
ROOT
HETATM    1  S   UNL     1      -3.059   5.092 -34.280  1.00  0.00    -0.081 SA
ENDROOT
BRANCH   1   2
HETATM    2  C   UNL     1      -2.714   6.666 -33.653  1.00  0.00     0.192 C 
HETATM    3  N   UNL     1      -3.161   7.155 -32.452  1.00  0.00    -0.302 N 
HETATM    4  C   UNL     1      -2.171   8.058 -32.078  1.00  0.00     0.166 C 
HETATM    5  N   UNL     1      -1.414   8.309 -33.132  1.00  0.00    -0.128 NA
HETATM    6  N   UNL     1      -1.749   7.425 -34.118  1.00  0.00    -0.122 NA
BRANCH   3   7
HETATM    7  C   UNL     1      -4.316   6.778 -31.654  1.00  0.00     0.094 C 
HETATM    8  C   UNL     1      -3.941   6.168 -30.290  1.00  0.00     0.026 C 
HETATM    9  C   UNL     1      -5.223   6.190 -29.471  1.00  0.00     0.002 C 
HETATM   10  C   UNL     1      -6.057   7.329 -30.034  1.00  0.00     0.002 C 
HETATM   11  C   UNL     1      -5.257   7.905 -31.197  1.00  0.00     0.026 C 
ENDBRANCH   3   7
BRANCH   4  12
HETATM   12  C   UNL     1      -1.905   8.540 -30.723  1.00  0.00     0.034 A 
HETATM   13  C   UNL     1      -2.553   9.709 -30.285  1.00  0.00     0.017 A 
HETATM   14  C   UNL     1      -2.368  10.192 -28.988  1.00  0.00     0.001 A 
HETATM   15  C   UNL     1      -1.532   9.510 -28.110  1.00  0.00     0.002 A 
HETATM   16  C   UNL     1      -0.886   8.344 -28.525  1.00  0.00     0.025 A 
HETATM   17  C   UNL     1      -1.074   7.856 -29.824  1.00  0.00     0.048 A 
HETATM   18 CL   UNL     1      -0.213   6.425 -30.272  1.00  0.00    -0.083 Cl
ENDBRANCH   4  12
ENDBRANCH   1   2
BRANCH   1  19
HETATM   19  C   UNL     1      -2.306   4.072 -32.972  1.00  0.00     0.185 C 
BRANCH  19  20
HETATM   20  C   UNL     1      -3.340   3.146 -32.335  1.00  0.00     0.231 C 
HETATM   21  N   UNL     1      -4.625   3.370 -32.802  1.00  0.00    -0.326 N 
HETATM   22  H   UNL     1      -4.695   3.928 -33.654  1.00  0.00     0.169 HD
HETATM   23  O   UNL     1      -3.008   2.281 -31.528  1.00  0.00    -0.272 OA
BRANCH  21  24
HETATM   24  C   UNL     1      -5.811   2.706 -32.429  1.00  0.00     0.037 A 
HETATM   25  C   UNL     1      -6.467   1.773 -33.239  1.00  0.00     0.061 A 
HETATM   26  C   UNL     1      -7.640   1.241 -32.753  1.00  0.00     0.065 A 
HETATM   27  C   UNL     1      -8.160   1.585 -31.507  1.00  0.00     0.063 A 
HETATM   28  N   UNL     1      -8.511   0.328 -33.339  1.00  0.00    -0.306 N 
HETATM   29  N   UNL     1      -9.345   0.882 -31.325  1.00  0.00    -0.307 N 
HETATM   30  C   UNL     1      -7.536   2.480 -30.679  1.00  0.00     0.034 A 
HETATM   31  C   UNL     1      -9.580   0.095 -32.461  1.00  0.00     0.325 A 
HETATM   32  H   UNL     1      -9.956   0.912 -30.526  1.00  0.00     0.170 HD
HETATM   33  O   UNL     1     -10.530  -0.642 -32.652  1.00  0.00    -0.247 OA
HETATM   34  C   UNL     1      -6.346   3.044 -31.156  1.00  0.00     0.032 A 
HETATM   35  H   UNL     1      -8.416  -0.112 -34.240  1.00  0.00     0.170 HD
ENDBRANCH  21  24
ENDBRANCH  19  20
ENDBRANCH   1  19
TORSDOF 6
ENDMDL
MODEL 4
REMARK VINA RESULT:      -9.2      3.492      8.223
REMARK  6 active torsions:
REMARK  status: ('A' for Active; 'I' for Inactive)
REMARK    1  A    between atoms: C_3  and  C_4 
REMARK    2  A    between atoms: N_5  and  C_6 
REMARK    3  A    between atoms: C_11  and  S_12 
REMARK    4  A    between atoms: S_12  and  C_13 
REMARK    5  A    between atoms: C_13  and  C_14 
REMARK       I    between atoms: C_14  and  N_15 
REMARK    6  A    between atoms: N_15  and  C_16 
ROOT
HETATM    1  S   UNL     1      -6.036   3.149 -30.232  1.00  0.00    -0.081 SA
ENDROOT
BRANCH   1   2
HETATM    2  C   UNL     1      -4.635   3.458 -31.197  1.00  0.00     0.192 C 
HETATM    3  N   UNL     1      -4.074   4.693 -31.405  1.00  0.00    -0.302 N 
HETATM    4  C   UNL     1      -2.728   4.410 -31.610  1.00  0.00     0.166 C 
HETATM    5  N   UNL     1      -2.602   3.114 -31.839  1.00  0.00    -0.128 NA
HETATM    6  N   UNL     1      -3.800   2.515 -31.567  1.00  0.00    -0.122 NA
BRANCH   3   7
HETATM    7  C   UNL     1      -4.664   6.019 -31.328  1.00  0.00     0.094 C 
HETATM    8  C   UNL     1      -5.756   6.262 -32.387  1.00  0.00     0.026 C 
HETATM    9  C   UNL     1      -6.496   7.509 -31.926  1.00  0.00     0.002 C 
HETATM   10  C   UNL     1      -6.323   7.562 -30.417  1.00  0.00     0.002 C 
HETATM   11  C   UNL     1      -5.445   6.371 -30.050  1.00  0.00     0.026 C 
ENDBRANCH   3   7
BRANCH   4  12
HETATM   12  C   UNL     1      -1.612   5.343 -31.453  1.00  0.00     0.034 A 
HETATM   13  C   UNL     1      -0.808   5.242 -30.303  1.00  0.00     0.017 A 
HETATM   14  C   UNL     1       0.295   6.079 -30.120  1.00  0.00     0.001 A 
HETATM   15  C   UNL     1       0.610   7.028 -31.087  1.00  0.00     0.002 A 
HETATM   16  C   UNL     1      -0.174   7.137 -32.238  1.00  0.00     0.025 A 
HETATM   17  C   UNL     1      -1.277   6.296 -32.425  1.00  0.00     0.048 A 
HETATM   18 CL   UNL     1      -2.215   6.516 -33.861  1.00  0.00    -0.083 Cl
ENDBRANCH   4  12
ENDBRANCH   1   2
BRANCH   1  19
HETATM   19  C   UNL     1      -7.303   3.112 -31.539  1.00  0.00     0.185 C 
BRANCH  19  20
HETATM   20  C   UNL     1      -6.944   2.097 -32.623  1.00  0.00     0.231 C 
HETATM   21  N   UNL     1      -6.501   0.891 -32.106  1.00  0.00    -0.326 N 
HETATM   22  H   UNL     1      -6.690   0.738 -31.114  1.00  0.00     0.169 HD
HETATM   23  O   UNL     1      -7.091   2.359 -33.815  1.00  0.00    -0.272 OA
BRANCH  21  24
HETATM   24  C   UNL     1      -6.085  -0.256 -32.814  1.00  0.00     0.037 A 
HETATM   25  C   UNL     1      -6.967  -1.159 -33.416  1.00  0.00     0.061 A 
HETATM   26  C   UNL     1      -6.408  -2.255 -34.036  1.00  0.00     0.065 A 
HETATM   27  C   UNL     1      -5.033  -2.467 -34.090  1.00  0.00     0.063 A 
HETATM   28  N   UNL     1      -7.028  -3.319 -34.683  1.00  0.00    -0.306 N 
HETATM   29  N   UNL     1      -4.806  -3.655 -34.774  1.00  0.00    -0.307 N 
HETATM   30  C   UNL     1      -4.138  -1.594 -33.528  1.00  0.00     0.034 A 
HETATM   31  C   UNL     1      -6.041  -4.201 -35.148  1.00  0.00     0.325 A 
HETATM   32  H   UNL     1      -3.918  -4.081 -34.979  1.00  0.00     0.170 HD
HETATM   33  O   UNL     1      -6.223  -5.243 -35.752  1.00  0.00    -0.247 OA
HETATM   34  C   UNL     1      -4.682  -0.477 -32.882  1.00  0.00     0.032 A 
HETATM   35  H   UNL     1      -8.017  -3.460 -34.815  1.00  0.00     0.170 HD
ENDBRANCH  21  24
ENDBRANCH  19  20
ENDBRANCH   1  19
TORSDOF 6
ENDMDL
MODEL 5
REMARK VINA RESULT:      -9.2      3.951      6.903
REMARK  6 active torsions:
REMARK  status: ('A' for Active; 'I' for Inactive)
REMARK    1  A    between atoms: C_3  and  C_4 
REMARK    2  A    between atoms: N_5  and  C_6 
REMARK    3  A    between atoms: C_11  and  S_12 
REMARK    4  A    between atoms: S_12  and  C_13 
REMARK    5  A    between atoms: C_13  and  C_14 
REMARK       I    between atoms: C_14  and  N_15 
REMARK    6  A    between atoms: N_15  and  C_16 
ROOT
HETATM    1  S   UNL     1      -8.789   1.814 -32.820  1.00  0.00    -0.081 SA
ENDROOT
BRANCH   1   2
HETATM    2  C   UNL     1      -7.681   0.968 -33.842  1.00  0.00     0.192 C 
HETATM    3  N   UNL     1      -6.713   0.096 -33.411  1.00  0.00    -0.302 N 
HETATM    4  C   UNL     1      -6.568  -0.785 -34.477  1.00  0.00     0.166 C 
HETATM    5  N   UNL     1      -7.147  -0.255 -35.540  1.00  0.00    -0.128 NA
HETATM    6  N   UNL     1      -7.857   0.842 -35.138  1.00  0.00    -0.122 NA
BRANCH   3   7
HETATM    7  C   UNL     1      -6.049  -0.009 -32.122  1.00  0.00     0.094 C 
HETATM    8  C   UNL     1      -5.204   1.231 -31.771  1.00  0.00     0.026 C 
HETATM    9  C   UNL     1      -4.908   1.110 -30.283  1.00  0.00     0.002 C 
HETATM   10  C   UNL     1      -6.044   0.286 -29.699  1.00  0.00     0.002 C 
HETATM   11  C   UNL     1      -6.941  -0.092 -30.872  1.00  0.00     0.026 C 
ENDBRANCH   3   7
BRANCH   4  12
HETATM   12  C   UNL     1      -6.009  -2.135 -34.416  1.00  0.00     0.034 A 
HETATM   13  C   UNL     1      -6.856  -3.226 -34.687  1.00  0.00     0.017 A 
HETATM   14  C   UNL     1      -6.367  -4.534 -34.683  1.00  0.00     0.001 A 
HETATM   15  C   UNL     1      -5.023  -4.769 -34.411  1.00  0.00     0.002 A 
HETATM   16  C   UNL     1      -4.167  -3.698 -34.148  1.00  0.00     0.025 A 
HETATM   17  C   UNL     1      -4.654  -2.385 -34.155  1.00  0.00     0.048 A 
HETATM   18 CL   UNL     1      -3.539  -1.117 -33.788  1.00  0.00    -0.083 Cl
ENDBRANCH   4  12
ENDBRANCH   1   2
BRANCH   1  19
HETATM   19  C   UNL     1      -9.060   3.304 -33.833  1.00  0.00     0.185 C 
BRANCH  19  20
HETATM   20  C   UNL     1     -10.538   3.685 -33.864  1.00  0.00     0.231 C 
HETATM   21  N   UNL     1     -11.255   3.153 -32.804  1.00  0.00    -0.326 N 
HETATM   22  H   UNL     1     -10.696   2.791 -32.029  1.00  0.00     0.169 HD
HETATM   23  O   UNL     1     -10.988   4.424 -34.737  1.00  0.00    -0.272 OA
BRANCH  21  24
HETATM   24  C   UNL     1     -12.630   3.297 -32.527  1.00  0.00     0.037 A 
HETATM   25  C   UNL     1     -13.607   2.391 -32.951  1.00  0.00     0.061 A 
HETATM   26  C   UNL     1     -14.914   2.693 -32.638  1.00  0.00     0.065 A 
HETATM   27  C   UNL     1     -15.269   3.831 -31.917  1.00  0.00     0.063 A 
HETATM   28  N   UNL     1     -16.082   2.005 -32.949  1.00  0.00    -0.306 N 
HETATM   29  N   UNL     1     -16.652   3.840 -31.780  1.00  0.00    -0.307 N 
HETATM   30  C   UNL     1     -14.337   4.730 -31.469  1.00  0.00     0.034 A 
HETATM   31  C   UNL     1     -17.175   2.709 -32.421  1.00  0.00     0.325 A 
HETATM   32  H   UNL     1     -17.214   4.529 -31.309  1.00  0.00     0.170 HD
HETATM   33  O   UNL     1     -18.350   2.401 -32.509  1.00  0.00    -0.247 OA
HETATM   34  C   UNL     1     -13.002   4.452 -31.785  1.00  0.00     0.032 A 
HETATM   35  H   UNL     1     -16.163   1.142 -33.463  1.00  0.00     0.170 HD
ENDBRANCH  21  24
ENDBRANCH  19  20
ENDBRANCH   1  19
TORSDOF 6
ENDMDL
MODEL 6
REMARK VINA RESULT:      -9.2      4.351      8.283
REMARK  6 active torsions:
REMARK  status: ('A' for Active; 'I' for Inactive)
REMARK    1  A    between atoms: C_3  and  C_4 
REMARK    2  A    between atoms: N_5  and  C_6 
REMARK    3  A    between atoms: C_11  and  S_12 
REMARK    4  A    between atoms: S_12  and  C_13 
REMARK    5  A    between atoms: C_13  and  C_14 
REMARK       I    between atoms: C_14  and  N_15 
REMARK    6  A    between atoms: N_15  and  C_16 
ROOT
HETATM    1  S   UNL     1      -9.022   1.707 -32.437  1.00  0.00    -0.081 SA
ENDROOT
BRANCH   1   2
HETATM    2  C   UNL     1      -7.627   2.639 -32.019  1.00  0.00     0.192 C 
HETATM    3  N   UNL     1      -6.357   2.416 -32.488  1.00  0.00    -0.302 N 
HETATM    4  C   UNL     1      -5.775   3.680 -32.469  1.00  0.00     0.166 C 
HETATM    5  N   UNL     1      -6.531   4.477 -31.735  1.00  0.00    -0.128 NA
HETATM    6  N   UNL     1      -7.701   3.826 -31.462  1.00  0.00    -0.122 NA
BRANCH   3   7
HETATM    7  C   UNL     1      -5.744   1.204 -33.005  1.00  0.00     0.094 C 
HETATM    8  C   UNL     1      -5.823   0.017 -32.026  1.00  0.00     0.026 C 
HETATM    9  C   UNL     1      -5.490  -1.214 -32.857  1.00  0.00     0.002 C 
HETATM   10  C   UNL     1      -5.879  -0.871 -34.285  1.00  0.00     0.002 C 
HETATM   11  C   UNL     1      -6.380   0.568 -34.253  1.00  0.00     0.026 C 
ENDBRANCH   3   7
BRANCH   4  12
HETATM   12  C   UNL     1      -4.613   4.111 -33.244  1.00  0.00     0.034 A 
HETATM   13  C   UNL     1      -4.828   4.796 -34.455  1.00  0.00     0.017 A 
HETATM   14  C   UNL     1      -3.756   5.266 -35.215  1.00  0.00     0.001 A 
HETATM   15  C   UNL     1      -2.453   5.060 -34.775  1.00  0.00     0.002 A 
HETATM   16  C   UNL     1      -2.221   4.388 -33.573  1.00  0.00     0.025 A 
HETATM   17  C   UNL     1      -3.294   3.919 -32.806  1.00  0.00     0.048 A 
HETATM   18 CL   UNL     1      -2.924   3.070 -31.347  1.00  0.00    -0.083 Cl
ENDBRANCH   4  12
ENDBRANCH   1   2
BRANCH   1  19
HETATM   19  C   UNL     1      -9.428   2.469 -34.041  1.00  0.00     0.185 C 
BRANCH  19  20
HETATM   20  C   UNL     1     -10.899   2.878 -34.097  1.00  0.00     0.231 C 
HETATM   21  N   UNL     1     -11.553   2.707 -32.887  1.00  0.00    -0.326 N 
HETATM   22  H   UNL     1     -10.950   2.570 -32.074  1.00  0.00     0.169 HD
HETATM   23  O   UNL     1     -11.392   3.343 -35.122  1.00  0.00    -0.272 OA
BRANCH  21  24
HETATM   24  C   UNL     1     -12.903   2.977 -32.586  1.00  0.00     0.037 A 
HETATM   25  C   UNL     1     -13.969   2.179 -33.014  1.00  0.00     0.061 A 
HETATM   26  C   UNL     1     -15.237   2.598 -32.674  1.00  0.00     0.065 A 
HETATM   27  C   UNL     1     -15.471   3.748 -31.923  1.00  0.00     0.063 A 
HETATM   28  N   UNL     1     -16.470   2.032 -32.981  1.00  0.00    -0.306 N 
HETATM   29  N   UNL     1     -16.844   3.886 -31.764  1.00  0.00    -0.307 N 
HETATM   30  C   UNL     1     -14.451   4.543 -31.471  1.00  0.00     0.034 A 
HETATM   31  C   UNL     1     -17.482   2.826 -32.421  1.00  0.00     0.325 A 
HETATM   32  H   UNL     1     -17.331   4.616 -31.270  1.00  0.00     0.170 HD
HETATM   33  O   UNL     1     -18.683   2.634 -32.498  1.00  0.00    -0.247 OA
HETATM   34  C   UNL     1     -13.153   4.145 -31.814  1.00  0.00     0.032 A 
HETATM   35  H   UNL     1     -16.641   1.193 -33.511  1.00  0.00     0.170 HD
ENDBRANCH  21  24
ENDBRANCH  19  20
ENDBRANCH   1  19
TORSDOF 6
ENDMDL
MODEL 7
REMARK VINA RESULT:      -8.9      3.449      8.050
REMARK  6 active torsions:
REMARK  status: ('A' for Active; 'I' for Inactive)
REMARK    1  A    between atoms: C_3  and  C_4 
REMARK    2  A    between atoms: N_5  and  C_6 
REMARK    3  A    between atoms: C_11  and  S_12 
REMARK    4  A    between atoms: S_12  and  C_13 
REMARK    5  A    between atoms: C_13  and  C_14 
REMARK       I    between atoms: C_14  and  N_15 
REMARK    6  A    between atoms: N_15  and  C_16 
ROOT
HETATM    1  S   UNL     1      -6.352   4.151 -33.718  1.00  0.00    -0.081 SA
ENDROOT
BRANCH   1   2
HETATM    2  C   UNL     1      -5.708   5.259 -32.557  1.00  0.00     0.192 C 
HETATM    3  N   UNL     1      -4.595   5.041 -31.786  1.00  0.00    -0.302 N 
HETATM    4  C   UNL     1      -4.095   6.319 -31.565  1.00  0.00     0.166 C 
HETATM    5  N   UNL     1      -5.029   7.196 -31.888  1.00  0.00    -0.128 NA
HETATM    6  N   UNL     1      -6.039   6.529 -32.523  1.00  0.00    -0.122 NA
BRANCH   3   7
HETATM    7  C   UNL     1      -3.970   3.796 -31.369  1.00  0.00     0.094 C 
HETATM    8  C   UNL     1      -4.937   2.844 -30.639  1.00  0.00     0.026 C 
HETATM    9  C   UNL     1      -4.236   1.494 -30.620  1.00  0.00     0.002 C 
HETATM   10  C   UNL     1      -3.303   1.492 -31.820  1.00  0.00     0.002 C 
HETATM   11  C   UNL     1      -3.451   2.861 -32.474  1.00  0.00     0.026 C 
ENDBRANCH   3   7
BRANCH   4  12
HETATM   12  C   UNL     1      -2.724   6.660 -31.186  1.00  0.00     0.034 A 
HETATM   13  C   UNL     1      -2.453   6.958 -29.837  1.00  0.00     0.017 A 
HETATM   14  C   UNL     1      -1.156   7.250 -29.412  1.00  0.00     0.001 A 
HETATM   15  C   UNL     1      -0.110   7.246 -30.328  1.00  0.00     0.002 A 
HETATM   16  C   UNL     1      -0.360   6.946 -31.669  1.00  0.00     0.025 A 
HETATM   17  C   UNL     1      -1.659   6.649 -32.098  1.00  0.00     0.048 A 
HETATM   18 CL   UNL     1      -1.890   6.320 -33.779  1.00  0.00    -0.083 Cl
ENDBRANCH   4  12
ENDBRANCH   1   2
BRANCH   1  19
HETATM   19  C   UNL     1      -7.669   3.390 -32.716  1.00  0.00     0.185 C 
BRANCH  19  20
HETATM   20  C   UNL     1      -7.485   1.877 -32.626  1.00  0.00     0.231 C 
HETATM   21  N   UNL     1      -6.736   1.362 -33.672  1.00  0.00    -0.326 N 
HETATM   22  H   UNL     1      -6.210   2.046 -34.218  1.00  0.00     0.169 HD
HETATM   23  O   UNL     1      -7.941   1.234 -31.683  1.00  0.00    -0.272 OA
BRANCH  21  24
HETATM   24  C   UNL     1      -6.380   0.017 -33.904  1.00  0.00     0.037 A 
HETATM   25  C   UNL     1      -5.232  -0.584 -33.379  1.00  0.00     0.061 A 
HETATM   26  C   UNL     1      -4.999  -1.895 -33.731  1.00  0.00     0.065 A 
HETATM   27  C   UNL     1      -5.861  -2.616 -34.555  1.00  0.00     0.063 A 
HETATM   28  N   UNL     1      -3.940  -2.730 -33.391  1.00  0.00    -0.306 N 
HETATM   29  N   UNL     1      -5.336  -3.892 -34.717  1.00  0.00    -0.307 N 
HETATM   30  C   UNL     1      -7.004  -2.065 -35.072  1.00  0.00     0.034 A 
HETATM   31  C   UNL     1      -4.136  -3.979 -33.999  1.00  0.00     0.325 A 
HETATM   32  H   UNL     1      -5.726  -4.648 -35.255  1.00  0.00     0.170 HD
HETATM   33  O   UNL     1      -3.402  -4.948 -33.924  1.00  0.00    -0.247 OA
HETATM   34  C   UNL     1      -7.258  -0.729 -34.738  1.00  0.00     0.032 A 
HETATM   35  H   UNL     1      -3.151  -2.507 -32.806  1.00  0.00     0.170 HD
ENDBRANCH  21  24
ENDBRANCH  19  20
ENDBRANCH   1  19
TORSDOF 6
ENDMDL
MODEL 8
REMARK VINA RESULT:      -8.8      3.747      4.748
REMARK  6 active torsions:
REMARK  status: ('A' for Active; 'I' for Inactive)
REMARK    1  A    between atoms: C_3  and  C_4 
REMARK    2  A    between atoms: N_5  and  C_6 
REMARK    3  A    between atoms: C_11  and  S_12 
REMARK    4  A    between atoms: S_12  and  C_13 
REMARK    5  A    between atoms: C_13  and  C_14 
REMARK       I    between atoms: C_14  and  N_15 
REMARK    6  A    between atoms: N_15  and  C_16 
ROOT
HETATM    1  S   UNL     1      -9.047   1.587 -32.682  1.00  0.00    -0.081 SA
ENDROOT
BRANCH   1   2
HETATM    2  C   UNL     1      -7.936   0.810 -33.755  1.00  0.00     0.192 C 
HETATM    3  N   UNL     1      -6.885   0.017 -33.368  1.00  0.00    -0.302 N 
HETATM    4  C   UNL     1      -6.733  -0.865 -34.433  1.00  0.00     0.166 C 
HETATM    5  N   UNL     1      -7.407  -0.394 -35.467  1.00  0.00    -0.128 NA
HETATM    6  N   UNL     1      -8.172   0.653 -35.037  1.00  0.00    -0.122 NA
BRANCH   3   7
HETATM    7  C   UNL     1      -6.146  -0.020 -32.117  1.00  0.00     0.094 C 
HETATM    8  C   UNL     1      -5.387   1.288 -31.820  1.00  0.00     0.026 C 
HETATM    9  C   UNL     1      -5.002   1.206 -30.350  1.00  0.00     0.002 C 
HETATM   10  C   UNL     1      -6.034   0.299 -29.700  1.00  0.00     0.002 C 
HETATM   11  C   UNL     1      -6.960  -0.162 -30.820  1.00  0.00     0.026 C 
ENDBRANCH   3   7
BRANCH   4  12
HETATM   12  C   UNL     1      -6.074  -2.170 -34.389  1.00  0.00     0.034 A 
HETATM   13  C   UNL     1      -6.837  -3.319 -34.668  1.00  0.00     0.017 A 
HETATM   14  C   UNL     1      -6.251  -4.586 -34.681  1.00  0.00     0.001 A 
HETATM   15  C   UNL     1      -4.892  -4.722 -34.417  1.00  0.00     0.002 A 
HETATM   16  C   UNL     1      -4.118  -3.592 -34.145  1.00  0.00     0.025 A 
HETATM   17  C   UNL     1      -4.703  -2.320 -34.135  1.00  0.00     0.048 A 
HETATM   18 CL   UNL     1      -3.685  -0.975 -33.758  1.00  0.00    -0.083 Cl
ENDBRANCH   4  12
ENDBRANCH   1   2
BRANCH   1  19
HETATM   19  C   UNL     1     -10.619   1.032 -33.416  1.00  0.00     0.185 C 
BRANCH  19  20
HETATM   20  C   UNL     1     -11.209   2.106 -34.327  1.00  0.00     0.231 C 
HETATM   21  N   UNL     1     -10.792   3.385 -33.993  1.00  0.00    -0.326 N 
HETATM   22  H   UNL     1      -9.986   3.438 -33.368  1.00  0.00     0.169 HD
HETATM   23  O   UNL     1     -11.942   1.811 -35.269  1.00  0.00    -0.272 OA
BRANCH  21  24
HETATM   24  C   UNL     1     -11.142   4.601 -34.614  1.00  0.00     0.037 A 
HETATM   25  C   UNL     1     -10.214   5.479 -35.182  1.00  0.00     0.061 A 
HETATM   26  C   UNL     1     -10.708   6.650 -35.714  1.00  0.00     0.065 A 
HETATM   27  C   UNL     1     -12.066   6.958 -35.716  1.00  0.00     0.063 A 
HETATM   28  N   UNL     1     -10.031   7.708 -36.309  1.00  0.00    -0.306 N 
HETATM   29  N   UNL     1     -12.225   8.202 -36.315  1.00  0.00    -0.307 N 
HETATM   30  C   UNL     1     -13.006   6.114 -35.185  1.00  0.00     0.034 A 
HETATM   31  C   UNL     1     -10.964   8.685 -36.689  1.00  0.00     0.325 A 
HETATM   32  H   UNL     1     -13.086   8.701 -36.467  1.00  0.00     0.170 HD
HETATM   33  O   UNL     1     -10.723   9.749 -37.230  1.00  0.00    -0.247 OA
HETATM   34  C   UNL     1     -12.528   4.922 -34.628  1.00  0.00     0.032 A 
HETATM   35  H   UNL     1      -9.038   7.790 -36.460  1.00  0.00     0.170 HD
ENDBRANCH  21  24
ENDBRANCH  19  20
ENDBRANCH   1  19
TORSDOF 6
ENDMDL
MODEL 9
REMARK VINA RESULT:      -8.8      2.427      2.989
REMARK  6 active torsions:
REMARK  status: ('A' for Active; 'I' for Inactive)
REMARK    1  A    between atoms: C_3  and  C_4 
REMARK    2  A    between atoms: N_5  and  C_6 
REMARK    3  A    between atoms: C_11  and  S_12 
REMARK    4  A    between atoms: S_12  and  C_13 
REMARK    5  A    between atoms: C_13  and  C_14 
REMARK       I    between atoms: C_14  and  N_15 
REMARK    6  A    between atoms: N_15  and  C_16 
ROOT
HETATM    1  S   UNL     1      -9.068   1.594 -32.563  1.00  0.00    -0.081 SA
ENDROOT
BRANCH   1   2
HETATM    2  C   UNL     1      -7.986   0.825 -33.671  1.00  0.00     0.192 C 
HETATM    3  N   UNL     1      -6.930   0.023 -33.320  1.00  0.00    -0.302 N 
HETATM    4  C   UNL     1      -6.807  -0.847 -34.398  1.00  0.00     0.166 C 
HETATM    5  N   UNL     1      -7.503  -0.359 -35.410  1.00  0.00    -0.128 NA
HETATM    6  N   UNL     1      -8.253   0.686 -34.949  1.00  0.00    -0.122 NA
BRANCH   3   7
HETATM    7  C   UNL     1      -6.161  -0.033 -32.087  1.00  0.00     0.094 C 
HETATM    8  C   UNL     1      -5.238   1.184 -31.889  1.00  0.00     0.026 C 
HETATM    9  C   UNL     1      -4.820   1.141 -30.427  1.00  0.00     0.002 C 
HETATM   10  C   UNL     1      -5.934   0.409 -29.697  1.00  0.00     0.002 C 
HETATM   11  C   UNL     1      -6.945   0.003 -30.764  1.00  0.00     0.026 C 
ENDBRANCH   3   7
BRANCH   4  12
HETATM   12  C   UNL     1      -6.153  -2.155 -34.386  1.00  0.00     0.034 A 
HETATM   13  C   UNL     1      -6.928  -3.297 -34.660  1.00  0.00     0.017 A 
HETATM   14  C   UNL     1      -6.348  -4.566 -34.703  1.00  0.00     0.001 A 
HETATM   15  C   UNL     1      -4.984  -4.712 -34.474  1.00  0.00     0.002 A 
HETATM   16  C   UNL     1      -4.198  -3.588 -34.208  1.00  0.00     0.025 A 
HETATM   17  C   UNL     1      -4.777  -2.314 -34.169  1.00  0.00     0.048 A 
HETATM   18 CL   UNL     1      -3.743  -0.978 -33.801  1.00  0.00    -0.083 Cl
ENDBRANCH   4  12
ENDBRANCH   1   2
BRANCH   1  19
HETATM   19  C   UNL     1      -9.219   3.222 -33.365  1.00  0.00     0.185 C 
BRANCH  19  20
HETATM   20  C   UNL     1      -8.470   4.294 -32.577  1.00  0.00     0.231 C 
HETATM   21  N   UNL     1      -7.471   3.771 -31.770  1.00  0.00    -0.326 N 
HETATM   22  H   UNL     1      -7.200   2.808 -31.971  1.00  0.00     0.169 HD
HETATM   23  O   UNL     1      -8.736   5.486 -32.710  1.00  0.00    -0.272 OA
BRANCH  21  24
HETATM   24  C   UNL     1      -6.595   4.468 -30.913  1.00  0.00     0.037 A 
HETATM   25  C   UNL     1      -6.768   4.552 -29.528  1.00  0.00     0.061 A 
HETATM   26  C   UNL     1      -5.850   5.306 -28.830  1.00  0.00     0.065 A 
HETATM   27  C   UNL     1      -4.780   5.947 -29.450  1.00  0.00     0.063 A 
HETATM   28  N   UNL     1      -5.786   5.590 -27.470  1.00  0.00    -0.306 N 
HETATM   29  N   UNL     1      -4.056   6.619 -28.473  1.00  0.00    -0.307 N 
HETATM   30  C   UNL     1      -4.568   5.871 -30.802  1.00  0.00     0.034 A 
HETATM   31  C   UNL     1      -4.673   6.410 -27.232  1.00  0.00     0.325 A 
HETATM   32  H   UNL     1      -3.227   7.175 -28.602  1.00  0.00     0.170 HD
HETATM   33  O   UNL     1      -4.316   6.857 -26.157  1.00  0.00    -0.247 OA
HETATM   34  C   UNL     1      -5.495   5.120 -31.535  1.00  0.00     0.032 A 
HETATM   35  H   UNL     1      -6.416   5.273 -26.751  1.00  0.00     0.170 HD
ENDBRANCH  21  24
ENDBRANCH  19  20
ENDBRANCH   1  19
TORSDOF 6
ENDMDL
MODEL 10
REMARK VINA RESULT:      -8.8     16.222     18.060
REMARK  6 active torsions:
REMARK  status: ('A' for Active; 'I' for Inactive)
REMARK    1  A    between atoms: C_3  and  C_4 
REMARK    2  A    between atoms: N_5  and  C_6 
REMARK    3  A    between atoms: C_11  and  S_12 
REMARK    4  A    between atoms: S_12  and  C_13 
REMARK    5  A    between atoms: C_13  and  C_14 
REMARK       I    between atoms: C_14  and  N_15 
REMARK    6  A    between atoms: N_15  and  C_16 
ROOT
HETATM    1  S   UNL     1      -6.281 -12.396 -41.148  1.00  0.00    -0.081 SA
ENDROOT
BRANCH   1   2
HETATM    2  C   UNL     1      -6.088 -12.362 -39.430  1.00  0.00     0.192 C 
HETATM    3  N   UNL     1      -6.953 -12.921 -38.524  1.00  0.00    -0.302 N 
HETATM    4  C   UNL     1      -6.134 -13.246 -37.447  1.00  0.00     0.166 C 
HETATM    5  N   UNL     1      -4.982 -12.616 -37.593  1.00  0.00    -0.128 NA
HETATM    6  N   UNL     1      -4.949 -12.069 -38.845  1.00  0.00    -0.122 NA
BRANCH   3   7
HETATM    7  C   UNL     1      -8.367 -13.234 -38.644  1.00  0.00     0.094 C 
HETATM    8  C   UNL     1      -9.146 -12.214 -39.497  1.00  0.00     0.026 C 
HETATM    9  C   UNL     1     -10.473 -12.885 -39.817  1.00  0.00     0.002 C 
HETATM   10  C   UNL     1     -10.206 -14.380 -39.768  1.00  0.00     0.002 C 
HETATM   11  C   UNL     1      -8.743 -14.537 -39.371  1.00  0.00     0.026 C 
ENDBRANCH   3   7
BRANCH   4  12
HETATM   12  C   UNL     1      -6.423 -14.231 -36.406  1.00  0.00     0.034 A 
HETATM   13  C   UNL     1      -6.847 -13.772 -35.145  1.00  0.00     0.017 A 
HETATM   14  C   UNL     1      -7.175 -14.668 -34.126  1.00  0.00     0.001 A 
HETATM   15  C   UNL     1      -7.086 -16.037 -34.355  1.00  0.00     0.002 A 
HETATM   16  C   UNL     1      -6.674 -16.511 -35.602  1.00  0.00     0.025 A 
HETATM   17  C   UNL     1      -6.348 -15.614 -36.627  1.00  0.00     0.048 A 
HETATM   18 CL   UNL     1      -5.816 -16.278 -38.131  1.00  0.00    -0.083 Cl
ENDBRANCH   4  12
ENDBRANCH   1   2
BRANCH   1  19
HETATM   19  C   UNL     1      -5.645 -14.068 -41.492  1.00  0.00     0.185 C 
BRANCH  19  20
HETATM   20  C   UNL     1      -4.118 -14.089 -41.468  1.00  0.00     0.231 C 
HETATM   21  N   UNL     1      -3.603 -14.429 -40.227  1.00  0.00    -0.326 N 
HETATM   22  H   UNL     1      -4.266 -14.846 -39.572  1.00  0.00     0.169 HD
HETATM   23  O   UNL     1      -3.461 -13.861 -42.481  1.00  0.00    -0.272 OA
BRANCH  21  24
HETATM   24  C   UNL     1      -2.249 -14.539 -39.850  1.00  0.00     0.037 A 
HETATM   25  C   UNL     1      -1.453 -15.654 -40.129  1.00  0.00     0.061 A 
HETATM   26  C   UNL     1      -0.159 -15.630 -39.657  1.00  0.00     0.065 A 
HETATM   27  C   UNL     1       0.362 -14.548 -38.950  1.00  0.00     0.063 A 
HETATM   28  N   UNL     1       0.839 -16.593 -39.755  1.00  0.00    -0.306 N 
HETATM   29  N   UNL     1       1.678 -14.844 -38.618  1.00  0.00    -0.307 N 
HETATM   30  C   UNL     1      -0.383 -13.431 -38.675  1.00  0.00     0.034 A 
HETATM   31  C   UNL     1       1.990 -16.119 -39.110  1.00  0.00     0.325 A 
HETATM   32  H   UNL     1       2.323 -14.265 -38.108  1.00  0.00     0.170 HD
HETATM   33  O   UNL     1       3.053 -16.703 -38.994  1.00  0.00    -0.247 OA
HETATM   34  C   UNL     1      -1.706 -13.436 -39.134  1.00  0.00     0.032 A 
HETATM   35  H   UNL     1       0.777 -17.491 -40.209  1.00  0.00     0.170 HD
ENDBRANCH  21  24
ENDBRANCH  19  20
ENDBRANCH   1  19
TORSDOF 6
ENDMDL
