MODEL 1
REMARK VINA RESULT:      -8.3      0.000      0.000
REMARK  5 active torsions:
REMARK  status: ('A' for Active; 'I' for Inactive)
REMARK    1  A    between atoms: C_2  and  C_3 
REMARK    2  A    between atoms: C_7  and  N_8 
REMARK    3  A    between atoms: N_8  and  C_9 
REMARK    4  A    between atoms: C_11  and  N_12 
REMARK    5  A    between atoms: C_14  and  N_15 
ROOT
HETATM    1  C   UNL     1      -4.533   0.557 -32.525  1.00  0.00     0.111 A 
HETATM    2  N   UNL     1      -3.375   0.315 -31.890  1.00  0.00    -0.206 NA
HETATM    3  C   UNL     1      -2.838  -0.901 -32.008  1.00  0.00     0.202 A 
HETATM    4  N   UNL     1      -3.390  -1.919 -32.660  1.00  0.00    -0.199 NA
HETATM    5  C   UNL     1      -4.569  -1.667 -33.270  1.00  0.00     0.156 A 
HETATM    6  C   UNL     1      -5.181  -0.430 -33.236  1.00  0.00     0.096 A 
ENDROOT
BRANCH   1   7
HETATM    7  N   UNL     1      -5.154   1.811 -32.425  1.00  0.00    -0.265 NA
HETATM    8  H   UNL     1      -5.028   2.324 -33.299  1.00  0.00     0.130 HD
BRANCH   7   9
HETATM    9  C   UNL     1      -4.750   2.657 -31.296  1.00  0.00     0.133 C 
HETATM   10  C   UNL     1      -3.874   3.796 -31.738  1.00  0.00     0.142 A 
HETATM   11  N   UNL     1      -3.997   5.050 -31.218  1.00  0.00    -0.253 N 
HETATM   12  N   UNL     1      -2.878   3.788 -32.602  1.00  0.00    -0.215 NA
HETATM   13  N   UNL     1      -3.086   5.892 -31.723  1.00  0.00    -0.155 NA
HETATM   14  C   UNL     1      -5.013   5.489 -30.288  1.00  0.00     0.153 C 
HETATM   15  C   UNL     1      -2.418   5.085 -32.559  1.00  0.00     0.151 A 
HETATM   16  C   UNL     1      -5.677   4.306 -29.588  1.00  0.00     0.024 C 
HETATM   17  C   UNL     1      -6.017   3.199 -30.592  1.00  0.00     0.029 C 
BRANCH  15  18
HETATM   18  C   UNL     1      -1.249   5.553 -33.364  1.00  0.00     0.051 C 
HETATM   19  C   UNL     1      -0.976   7.040 -33.143  1.00  0.00     0.018 C 
HETATM   20  C   UNL     1      -1.451   5.259 -34.851  1.00  0.00     0.018 C 
ENDBRANCH  15  18
ENDBRANCH   7   9
ENDBRANCH   1   7
BRANCH   3  21
HETATM   21  N   UNL     1      -1.642  -1.133 -31.364  1.00  0.00    -0.271 NA
HETATM   22  H   UNL     1      -1.582  -0.564 -30.531  1.00  0.00     0.127 HD
HETATM   23  H   UNL     1      -1.491  -2.127 -31.260  1.00  0.00     0.127 HD
ENDBRANCH   3  21
BRANCH   5  24
HETATM   24  N   UNL     1      -5.209  -2.737 -33.961  1.00  0.00    -0.227 N 
HETATM   25  N   UNL     1      -4.586  -3.921 -34.217  1.00  0.00    -0.179 NA
HETATM   26  C   UNL     1      -5.492  -4.634 -34.888  1.00  0.00     0.141 A 
HETATM   27  C   UNL     1      -6.699  -3.943 -35.072  1.00  0.00     0.040 A 
HETATM   28  C   UNL     1      -6.493  -2.727 -34.467  1.00  0.00     0.122 A 
ENDBRANCH   5  24
TORSDOF 5
ENDMDL
MODEL 2
REMARK VINA RESULT:      -8.3      2.328      7.739
REMARK  5 active torsions:
REMARK  status: ('A' for Active; 'I' for Inactive)
REMARK    1  A    between atoms: C_2  and  C_3 
REMARK    2  A    between atoms: C_7  and  N_8 
REMARK    3  A    between atoms: N_8  and  C_9 
REMARK    4  A    between atoms: C_11  and  N_12 
REMARK    5  A    between atoms: C_14  and  N_15 
ROOT
HETATM    1  C   UNL     1      -3.956   3.438 -32.524  1.00  0.00     0.111 A 
HETATM    2  N   UNL     1      -4.245   4.029 -33.695  1.00  0.00    -0.206 NA
HETATM    3  C   UNL     1      -3.422   4.983 -34.134  1.00  0.00     0.202 A 
HETATM    4  N   UNL     1      -2.364   5.442 -33.475  1.00  0.00    -0.199 NA
HETATM    5  C   UNL     1      -2.102   4.857 -32.286  1.00  0.00     0.156 A 
HETATM    6  C   UNL     1      -2.874   3.836 -31.768  1.00  0.00     0.096 A 
ENDROOT
BRANCH   1   7
HETATM    7  N   UNL     1      -4.792   2.441 -32.002  1.00  0.00    -0.265 NA
HETATM    8  H   UNL     1      -4.304   1.544 -32.018  1.00  0.00     0.130 HD
BRANCH   7   9
HETATM    9  C   UNL     1      -6.111   2.292 -32.629  1.00  0.00     0.133 C 
HETATM   10  C   UNL     1      -6.343   0.888 -33.114  1.00  0.00     0.142 A 
HETATM   11  N   UNL     1      -7.548   0.265 -32.981  1.00  0.00    -0.253 N 
HETATM   12  N   UNL     1      -5.512   0.081 -33.744  1.00  0.00    -0.215 NA
HETATM   13  N   UNL     1      -7.539  -0.960 -33.523  1.00  0.00    -0.155 NA
HETATM   14  C   UNL     1      -8.704   0.787 -32.288  1.00  0.00     0.153 C 
HETATM   15  C   UNL     1      -6.282  -1.035 -33.983  1.00  0.00     0.151 A 
HETATM   16  C   UNL     1      -8.602   2.298 -32.095  1.00  0.00     0.024 C 
HETATM   17  C   UNL     1      -7.204   2.694 -31.610  1.00  0.00     0.029 C 
BRANCH  15  18
HETATM   18  C   UNL     1      -5.766  -2.229 -34.720  1.00  0.00     0.051 C 
HETATM   19  C   UNL     1      -6.791  -3.363 -34.736  1.00  0.00     0.018 C 
HETATM   20  C   UNL     1      -4.441  -2.710 -34.128  1.00  0.00     0.018 C 
ENDBRANCH  15  18
ENDBRANCH   7   9
ENDBRANCH   1   7
BRANCH   3  21
HETATM   21  N   UNL     1      -3.721   5.572 -35.345  1.00  0.00    -0.271 NA
HETATM   22  H   UNL     1      -4.715   5.742 -35.411  1.00  0.00     0.127 HD
HETATM   23  H   UNL     1      -3.104   6.355 -35.511  1.00  0.00     0.127 HD
ENDBRANCH   3  21
BRANCH   5  24
HETATM   24  N   UNL     1      -0.990   5.334 -31.533  1.00  0.00    -0.227 N 
HETATM   25  N   UNL     1      -0.317   4.550 -30.645  1.00  0.00    -0.179 NA
HETATM   26  C   UNL     1       0.620   5.354 -30.139  1.00  0.00     0.141 A 
HETATM   27  C   UNL     1       0.579   6.646 -30.683  1.00  0.00     0.040 A 
HETATM   28  C   UNL     1      -0.463   6.608 -31.577  1.00  0.00     0.122 A 
ENDBRANCH   5  24
TORSDOF 5
ENDMDL
MODEL 3
REMARK VINA RESULT:      -8.2      2.119      2.994
REMARK  5 active torsions:
REMARK  status: ('A' for Active; 'I' for Inactive)
REMARK    1  A    between atoms: C_2  and  C_3 
REMARK    2  A    between atoms: C_7  and  N_8 
REMARK    3  A    between atoms: N_8  and  C_9 
REMARK    4  A    between atoms: C_11  and  N_12 
REMARK    5  A    between atoms: C_14  and  N_15 
ROOT
HETATM    1  C   UNL     1      -3.994   1.392 -31.924  1.00  0.00     0.111 A 
HETATM    2  N   UNL     1      -4.691   1.507 -30.782  1.00  0.00    -0.206 NA
HETATM    3  C   UNL     1      -5.615   0.581 -30.517  1.00  0.00     0.202 A 
HETATM    4  N   UNL     1      -5.945  -0.421 -31.325  1.00  0.00    -0.199 NA
HETATM    5  C   UNL     1      -5.253  -0.506 -32.483  1.00  0.00     0.156 A 
HETATM    6  C   UNL     1      -4.254   0.382 -32.825  1.00  0.00     0.096 A 
ENDROOT
BRANCH   1   7
HETATM    7  N   UNL     1      -3.022   2.344 -32.266  1.00  0.00    -0.265 NA
HETATM    8  H   UNL     1      -2.198   2.217 -31.676  1.00  0.00     0.130 HD
BRANCH   7   9
HETATM    9  C   UNL     1      -3.438   3.751 -32.230  1.00  0.00     0.133 C 
HETATM   10  C   UNL     1      -2.277   4.670 -31.965  1.00  0.00     0.142 A 
HETATM   11  N   UNL     1      -2.135   5.864 -32.607  1.00  0.00    -0.253 N 
HETATM   12  N   UNL     1      -1.288   4.528 -31.104  1.00  0.00    -0.215 NA
HETATM   13  N   UNL     1      -1.057   6.534 -32.182  1.00  0.00    -0.155 NA
HETATM   14  C   UNL     1      -2.976   6.362 -33.673  1.00  0.00     0.153 C 
HETATM   15  C   UNL     1      -0.568   5.691 -31.262  1.00  0.00     0.151 A 
HETATM   16  C   UNL     1      -4.313   5.626 -33.717  1.00  0.00     0.024 C 
HETATM   17  C   UNL     1      -4.110   4.115 -33.576  1.00  0.00     0.029 C 
BRANCH  15  18
HETATM   18  C   UNL     1       0.650   6.001 -30.453  1.00  0.00     0.051 C 
HETATM   19  C   UNL     1       1.094   4.796 -29.625  1.00  0.00     0.018 C 
HETATM   20  C   UNL     1       0.418   7.216 -29.553  1.00  0.00     0.018 C 
ENDBRANCH  15  18
ENDBRANCH   7   9
ENDBRANCH   1   7
BRANCH   3  21
HETATM   21  N   UNL     1      -6.314   0.700 -29.335  1.00  0.00    -0.271 NA
HETATM   22  H   UNL     1      -7.293   0.505 -29.492  1.00  0.00     0.127 HD
HETATM   23  H   UNL     1      -5.849   0.183 -28.603  1.00  0.00     0.127 HD
ENDBRANCH   3  21
BRANCH   5  24
HETATM   24  N   UNL     1      -5.590  -1.552 -33.391  1.00  0.00    -0.227 N 
HETATM   25  N   UNL     1      -4.660  -2.404 -33.905  1.00  0.00    -0.179 NA
HETATM   26  C   UNL     1      -5.356  -3.205 -34.714  1.00  0.00     0.141 A 
HETATM   27  C   UNL     1      -6.725  -2.899 -34.735  1.00  0.00     0.040 A 
HETATM   28  C   UNL     1      -6.851  -1.835 -33.876  1.00  0.00     0.122 A 
ENDBRANCH   5  24
TORSDOF 5
ENDMDL
MODEL 4
REMARK VINA RESULT:      -8.0      4.002      7.476
REMARK  5 active torsions:
REMARK  status: ('A' for Active; 'I' for Inactive)
REMARK    1  A    between atoms: C_2  and  C_3 
REMARK    2  A    between atoms: C_7  and  N_8 
REMARK    3  A    between atoms: N_8  and  C_9 
REMARK    4  A    between atoms: C_11  and  N_12 
REMARK    5  A    between atoms: C_14  and  N_15 
ROOT
HETATM    1  C   UNL     1      -7.383   2.343 -34.063  1.00  0.00     0.111 A 
HETATM    2  N   UNL     1      -7.254   3.675 -33.950  1.00  0.00    -0.206 NA
HETATM    3  C   UNL     1      -8.367   4.406 -33.863  1.00  0.00     0.202 A 
HETATM    4  N   UNL     1      -9.604   3.927 -33.939  1.00  0.00    -0.199 NA
HETATM    5  C   UNL     1      -9.716   2.588 -34.081  1.00  0.00     0.156 A 
HETATM    6  C   UNL     1      -8.623   1.747 -34.141  1.00  0.00     0.096 A 
ENDROOT
BRANCH   1   7
HETATM    7  N   UNL     1      -6.251   1.523 -34.176  1.00  0.00    -0.265 NA
HETATM    8  H   UNL     1      -6.371   0.883 -34.962  1.00  0.00     0.130 HD
BRANCH   7   9
HETATM    9  C   UNL     1      -5.868   0.763 -32.979  1.00  0.00     0.133 C 
HETATM   10  C   UNL     1      -5.369  -0.613 -33.328  1.00  0.00     0.142 A 
HETATM   11  N   UNL     1      -4.305  -1.181 -32.694  1.00  0.00    -0.253 N 
HETATM   12  N   UNL     1      -5.853  -1.471 -34.205  1.00  0.00    -0.215 NA
HETATM   13  N   UNL     1      -4.068  -2.423 -33.133  1.00  0.00    -0.155 NA
HETATM   14  C   UNL     1      -3.459  -0.540 -31.712  1.00  0.00     0.153 C 
HETATM   15  C   UNL     1      -5.035  -2.568 -34.050  1.00  0.00     0.151 A 
HETATM   16  C   UNL     1      -4.133   0.692 -31.115  1.00  0.00     0.024 C 
HETATM   17  C   UNL     1      -4.778   1.547 -32.210  1.00  0.00     0.029 C 
BRANCH  15  18
HETATM   18  C   UNL     1      -5.224  -3.831 -34.826  1.00  0.00     0.051 C 
HETATM   19  C   UNL     1      -6.705  -4.166 -34.997  1.00  0.00     0.018 C 
HETATM   20  C   UNL     1      -4.482  -4.996 -34.170  1.00  0.00     0.018 C 
ENDBRANCH  15  18
ENDBRANCH   7   9
ENDBRANCH   1   7
BRANCH   3  21
HETATM   21  N   UNL     1      -8.222   5.771 -33.732  1.00  0.00    -0.271 NA
HETATM   22  H   UNL     1      -7.865   5.994 -32.814  1.00  0.00     0.127 HD
HETATM   23  H   UNL     1      -7.724   6.146 -34.528  1.00  0.00     0.127 HD
ENDBRANCH   3  21
BRANCH   5  24
HETATM   24  N   UNL     1     -11.024   2.032 -34.191  1.00  0.00    -0.227 N 
HETATM   25  N   UNL     1     -12.017   2.631 -34.905  1.00  0.00    -0.179 NA
HETATM   26  C   UNL     1     -13.071   1.828 -34.745  1.00  0.00     0.141 A 
HETATM   27  C   UNL     1     -12.786   0.711 -33.945  1.00  0.00     0.040 A 
HETATM   28  C   UNL     1     -11.465   0.864 -33.602  1.00  0.00     0.122 A 
ENDBRANCH   5  24
TORSDOF 5
ENDMDL
MODEL 5
REMARK VINA RESULT:      -7.7      1.623      7.703
REMARK  5 active torsions:
REMARK  status: ('A' for Active; 'I' for Inactive)
REMARK    1  A    between atoms: C_2  and  C_3 
REMARK    2  A    between atoms: C_7  and  N_8 
REMARK    3  A    between atoms: N_8  and  C_9 
REMARK    4  A    between atoms: C_11  and  N_12 
REMARK    5  A    between atoms: C_14  and  N_15 
ROOT
HETATM    1  C   UNL     1      -5.088   2.384 -31.379  1.00  0.00     0.111 A 
HETATM    2  N   UNL     1      -5.643   2.951 -30.296  1.00  0.00    -0.206 NA
HETATM    3  C   UNL     1      -5.276   4.195 -29.985  1.00  0.00     0.202 A 
HETATM    4  N   UNL     1      -4.355   4.904 -30.629  1.00  0.00    -0.199 NA
HETATM    5  C   UNL     1      -3.786   4.309 -31.700  1.00  0.00     0.156 A 
HETATM    6  C   UNL     1      -4.130   3.040 -32.121  1.00  0.00     0.096 A 
ENDROOT
BRANCH   1   7
HETATM    7  N   UNL     1      -5.421   1.072 -31.748  1.00  0.00    -0.265 NA
HETATM    8  H   UNL     1      -4.758   0.421 -31.326  1.00  0.00     0.130 HD
BRANCH   7   9
HETATM    9  C   UNL     1      -5.527   0.800 -33.187  1.00  0.00     0.133 C 
HETATM   10  C   UNL     1      -5.242  -0.642 -33.504  1.00  0.00     0.142 A 
HETATM   11  N   UNL     1      -5.960  -1.337 -34.431  1.00  0.00    -0.253 N 
HETATM   12  N   UNL     1      -4.296  -1.425 -33.022  1.00  0.00    -0.215 NA
HETATM   13  N   UNL     1      -5.504  -2.587 -34.583  1.00  0.00    -0.155 NA
HETATM   14  C   UNL     1      -7.125  -0.856 -35.140  1.00  0.00     0.153 C 
HETATM   15  C   UNL     1      -4.485  -2.602 -33.711  1.00  0.00     0.151 A 
HETATM   16  C   UNL     1      -7.219   0.667 -35.087  1.00  0.00     0.024 C 
HETATM   17  C   UNL     1      -6.946   1.183 -33.671  1.00  0.00     0.029 C 
BRANCH  15  18
HETATM   18  C   UNL     1      -3.608  -3.798 -33.521  1.00  0.00     0.051 C 
HETATM   19  C   UNL     1      -4.331  -5.089 -33.903  1.00  0.00     0.018 C 
HETATM   20  C   UNL     1      -3.089  -3.877 -32.085  1.00  0.00     0.018 C 
ENDBRANCH  15  18
ENDBRANCH   7   9
ENDBRANCH   1   7
BRANCH   3  21
HETATM   21  N   UNL     1      -5.863   4.774 -28.879  1.00  0.00    -0.271 NA
HETATM   22  H   UNL     1      -6.834   4.499 -28.820  1.00  0.00     0.127 HD
HETATM   23  H   UNL     1      -5.288   4.624 -28.062  1.00  0.00     0.127 HD
ENDBRANCH   3  21
BRANCH   5  24
HETATM   24  N   UNL     1      -2.776   5.023 -32.408  1.00  0.00    -0.227 N 
HETATM   25  N   UNL     1      -2.035   6.009 -31.829  1.00  0.00    -0.179 NA
HETATM   26  C   UNL     1      -1.233   6.436 -32.807  1.00  0.00     0.141 A 
HETATM   27  C   UNL     1      -1.430   5.745 -34.012  1.00  0.00     0.040 A 
HETATM   28  C   UNL     1      -2.425   4.842 -33.730  1.00  0.00     0.122 A 
ENDBRANCH   5  24
TORSDOF 5
ENDMDL
MODEL 6
REMARK VINA RESULT:      -7.7      3.981      7.920
REMARK  5 active torsions:
REMARK  status: ('A' for Active; 'I' for Inactive)
REMARK    1  A    between atoms: C_2  and  C_3 
REMARK    2  A    between atoms: C_7  and  N_8 
REMARK    3  A    between atoms: N_8  and  C_9 
REMARK    4  A    between atoms: C_11  and  N_12 
REMARK    5  A    between atoms: C_14  and  N_15 
ROOT
HETATM    1  C   UNL     1      -7.787   1.602 -33.769  1.00  0.00     0.111 A 
HETATM    2  N   UNL     1      -8.619   0.656 -33.303  1.00  0.00    -0.206 NA
HETATM    3  C   UNL     1      -9.925   0.927 -33.282  1.00  0.00     0.202 A 
HETATM    4  N   UNL     1     -10.470   2.088 -33.630  1.00  0.00    -0.199 NA
HETATM    5  C   UNL     1      -9.616   3.039 -34.070  1.00  0.00     0.156 A 
HETATM    6  C   UNL     1      -8.254   2.836 -34.164  1.00  0.00     0.096 A 
ENDROOT
BRANCH   1   7
HETATM    7  N   UNL     1      -6.402   1.382 -33.800  1.00  0.00    -0.265 NA
HETATM    8  H   UNL     1      -6.144   0.959 -34.693  1.00  0.00     0.130 HD
BRANCH   7   9
HETATM    9  C   UNL     1      -5.836   0.589 -32.702  1.00  0.00     0.133 C 
HETATM   10  C   UNL     1      -5.338  -0.748 -33.177  1.00  0.00     0.142 A 
HETATM   11  N   UNL     1      -4.179  -1.296 -32.715  1.00  0.00    -0.253 N 
HETATM   12  N   UNL     1      -5.901  -1.589 -34.023  1.00  0.00    -0.215 NA
HETATM   13  N   UNL     1      -3.956  -2.508 -33.240  1.00  0.00    -0.155 NA
HETATM   14  C   UNL     1      -3.235  -0.663 -31.822  1.00  0.00     0.153 C 
HETATM   15  C   UNL     1      -5.029  -2.655 -34.029  1.00  0.00     0.151 A 
HETATM   16  C   UNL     1      -3.869   0.514 -31.084  1.00  0.00     0.024 C 
HETATM   17  C   UNL     1      -4.684   1.386 -32.044  1.00  0.00     0.029 C 
BRANCH  15  18
HETATM   18  C   UNL     1      -5.272  -3.891 -34.833  1.00  0.00     0.051 C 
HETATM   19  C   UNL     1      -6.766  -4.176 -34.983  1.00  0.00     0.018 C 
HETATM   20  C   UNL     1      -4.554  -5.095 -34.222  1.00  0.00     0.018 C 
ENDBRANCH  15  18
ENDBRANCH   7   9
ENDBRANCH   1   7
BRANCH   3  21
HETATM   21  N   UNL     1     -10.771  -0.056 -32.816  1.00  0.00    -0.271 NA
HETATM   22  H   UNL     1     -11.397  -0.351 -33.552  1.00  0.00     0.127 HD
HETATM   23  H   UNL     1     -10.242  -0.774 -32.342  1.00  0.00     0.127 HD
ENDBRANCH   3  21
BRANCH   5  24
HETATM   24  N   UNL     1     -10.154   4.308 -34.433  1.00  0.00    -0.227 N 
HETATM   25  N   UNL     1      -9.383   5.315 -34.930  1.00  0.00    -0.179 NA
HETATM   26  C   UNL     1     -10.236   6.323 -35.118  1.00  0.00     0.141 A 
HETATM   27  C   UNL     1     -11.552   5.995 -34.760  1.00  0.00     0.040 A 
HETATM   28  C   UNL     1     -11.474   4.694 -34.325  1.00  0.00     0.122 A 
ENDBRANCH   5  24
TORSDOF 5
ENDMDL
MODEL 7
REMARK VINA RESULT:      -7.6      2.550      4.174
REMARK  5 active torsions:
REMARK  status: ('A' for Active; 'I' for Inactive)
REMARK    1  A    between atoms: C_2  and  C_3 
REMARK    2  A    between atoms: C_7  and  N_8 
REMARK    3  A    between atoms: N_8  and  C_9 
REMARK    4  A    between atoms: C_11  and  N_12 
REMARK    5  A    between atoms: C_14  and  N_15 
ROOT
HETATM    1  C   UNL     1      -3.736   2.877 -31.633  1.00  0.00     0.111 A 
HETATM    2  N   UNL     1      -2.923   1.901 -31.198  1.00  0.00    -0.206 NA
HETATM    3  C   UNL     1      -3.251   0.640 -31.486  1.00  0.00     0.202 A 
HETATM    4  N   UNL     1      -4.355   0.264 -32.123  1.00  0.00    -0.199 NA
HETATM    5  C   UNL     1      -5.176   1.257 -32.530  1.00  0.00     0.156 A 
HETATM    6  C   UNL     1      -4.901   2.592 -32.311  1.00  0.00     0.096 A 
ENDROOT
BRANCH   1   7
HETATM    7  N   UNL     1      -3.454   4.221 -31.347  1.00  0.00    -0.265 NA
HETATM    8  H   UNL     1      -4.175   4.597 -30.729  1.00  0.00     0.130 HD
BRANCH   7   9
HETATM    9  C   UNL     1      -3.279   5.117 -32.497  1.00  0.00     0.133 C 
HETATM   10  C   UNL     1      -3.069   6.543 -32.068  1.00  0.00     0.142 A 
HETATM   11  N   UNL     1      -2.170   7.360 -32.684  1.00  0.00    -0.253 N 
HETATM   12  N   UNL     1      -3.692   7.225 -31.126  1.00  0.00    -0.215 NA
HETATM   13  N   UNL     1      -2.184   8.596 -32.168  1.00  0.00    -0.155 NA
HETATM   14  C   UNL     1      -1.242   6.975 -33.723  1.00  0.00     0.153 C 
HETATM   15  C   UNL     1      -3.128   8.477 -31.224  1.00  0.00     0.151 A 
HETATM   16  C   UNL     1      -1.662   5.666 -34.388  1.00  0.00     0.024 C 
HETATM   17  C   UNL     1      -2.076   4.629 -33.339  1.00  0.00     0.029 C 
BRANCH  15  18
HETATM   18  C   UNL     1      -3.552   9.622 -30.362  1.00  0.00     0.051 C 
HETATM   19  C   UNL     1      -4.840  10.263 -30.877  1.00  0.00     0.018 C 
HETATM   20  C   UNL     1      -2.440  10.666 -30.248  1.00  0.00     0.018 C 
ENDBRANCH  15  18
ENDBRANCH   7   9
ENDBRANCH   1   7
BRANCH   3  21
HETATM   21  N   UNL     1      -2.401  -0.354 -31.048  1.00  0.00    -0.271 NA
HETATM   22  H   UNL     1      -2.357  -0.350 -30.038  1.00  0.00     0.127 HD
HETATM   23  H   UNL     1      -2.629  -1.229 -31.499  1.00  0.00     0.127 HD
ENDBRANCH   3  21
BRANCH   5  24
HETATM   24  N   UNL     1      -6.384   0.899 -33.196  1.00  0.00    -0.227 N 
HETATM   25  N   UNL     1      -7.455   0.375 -32.539  1.00  0.00    -0.179 NA
HETATM   26  C   UNL     1      -8.357   0.158 -33.497  1.00  0.00     0.141 A 
HETATM   27  C   UNL     1      -7.901   0.536 -34.769  1.00  0.00     0.040 A 
HETATM   28  C   UNL     1      -6.631   1.011 -34.550  1.00  0.00     0.122 A 
ENDBRANCH   5  24
TORSDOF 5
ENDMDL
MODEL 8
REMARK VINA RESULT:      -7.5      5.660      8.842
REMARK  5 active torsions:
REMARK  status: ('A' for Active; 'I' for Inactive)
REMARK    1  A    between atoms: C_2  and  C_3 
REMARK    2  A    between atoms: C_7  and  N_8 
REMARK    3  A    between atoms: N_8  and  C_9 
REMARK    4  A    between atoms: C_11  and  N_12 
REMARK    5  A    between atoms: C_14  and  N_15 
ROOT
HETATM    1  C   UNL     1     -10.597   1.279 -33.760  1.00  0.00     0.111 A 
HETATM    2  N   UNL     1     -11.372   0.191 -33.623  1.00  0.00    -0.206 NA
HETATM    3  C   UNL     1     -12.689   0.372 -33.512  1.00  0.00     0.202 A 
HETATM    4  N   UNL     1     -13.297   1.553 -33.467  1.00  0.00    -0.199 NA
HETATM    5  C   UNL     1     -12.500   2.638 -33.578  1.00  0.00     0.156 A 
HETATM    6  C   UNL     1     -11.132   2.549 -33.735  1.00  0.00     0.096 A 
ENDROOT
BRANCH   1   7
HETATM    7  N   UNL     1      -9.203   1.154 -33.863  1.00  0.00    -0.265 NA
HETATM    8  H   UNL     1      -8.970   0.639 -34.713  1.00  0.00     0.130 HD
BRANCH   7   9
HETATM    9  C   UNL     1      -8.510   0.552 -32.718  1.00  0.00     0.133 C 
HETATM   10  C   UNL     1      -7.405  -0.369 -33.157  1.00  0.00     0.142 A 
HETATM   11  N   UNL     1      -6.204  -0.418 -32.514  1.00  0.00    -0.253 N 
HETATM   12  N   UNL     1      -7.404  -1.257 -34.131  1.00  0.00    -0.215 NA
HETATM   13  N   UNL     1      -5.390  -1.339 -33.046  1.00  0.00    -0.155 NA
HETATM   14  C   UNL     1      -5.782   0.444 -31.433  1.00  0.00     0.153 C 
HETATM   15  C   UNL     1      -6.159  -1.834 -34.026  1.00  0.00     0.151 A 
HETATM   16  C   UNL     1      -6.973   1.130 -30.770  1.00  0.00     0.024 C 
HETATM   17  C   UNL     1      -7.943   1.678 -31.821  1.00  0.00     0.029 C 
BRANCH  15  18
HETATM   18  C   UNL     1      -5.706  -2.944 -34.919  1.00  0.00     0.051 C 
HETATM   19  C   UNL     1      -6.714  -4.092 -34.941  1.00  0.00     0.018 C 
HETATM   20  C   UNL     1      -4.322  -3.450 -34.510  1.00  0.00     0.018 C 
ENDBRANCH  15  18
ENDBRANCH   7   9
ENDBRANCH   1   7
BRANCH   3  21
HETATM   21  N   UNL     1     -13.477  -0.753 -33.387  1.00  0.00    -0.271 NA
HETATM   22  H   UNL     1     -13.018  -1.546 -33.812  1.00  0.00     0.127 HD
HETATM   23  H   UNL     1     -13.789  -0.854 -32.431  1.00  0.00     0.127 HD
ENDBRANCH   3  21
BRANCH   5  24
HETATM   24  N   UNL     1     -13.107   3.926 -33.511  1.00  0.00    -0.227 N 
HETATM   25  N   UNL     1     -13.960   4.282 -32.512  1.00  0.00    -0.179 NA
HETATM   26  C   UNL     1     -14.322   5.531 -32.814  1.00  0.00     0.141 A 
HETATM   27  C   UNL     1     -13.717   6.001 -33.990  1.00  0.00     0.040 A 
HETATM   28  C   UNL     1     -12.940   4.953 -34.418  1.00  0.00     0.122 A 
ENDBRANCH   5  24
TORSDOF 5
ENDMDL
MODEL 9
REMARK VINA RESULT:      -7.5      2.813      7.898
REMARK  5 active torsions:
REMARK  status: ('A' for Active; 'I' for Inactive)
REMARK    1  A    between atoms: C_2  and  C_3 
REMARK    2  A    between atoms: C_7  and  N_8 
REMARK    3  A    between atoms: N_8  and  C_9 
REMARK    4  A    between atoms: C_11  and  N_12 
REMARK    5  A    between atoms: C_14  and  N_15 
ROOT
HETATM    1  C   UNL     1      -3.213   4.038 -32.815  1.00  0.00     0.111 A 
HETATM    2  N   UNL     1      -2.743   4.378 -34.026  1.00  0.00    -0.206 NA
HETATM    3  C   UNL     1      -1.566   5.003 -34.087  1.00  0.00     0.202 A 
HETATM    4  N   UNL     1      -0.842   5.373 -33.036  1.00  0.00    -0.199 NA
HETATM    5  C   UNL     1      -1.343   5.048 -31.824  1.00  0.00     0.156 A 
HETATM    6  C   UNL     1      -2.533   4.368 -31.663  1.00  0.00     0.096 A 
ENDROOT
BRANCH   1   7
HETATM    7  N   UNL     1      -4.453   3.395 -32.685  1.00  0.00    -0.265 NA
HETATM    8  H   UNL     1      -5.154   4.067 -32.371  1.00  0.00     0.130 HD
BRANCH   7   9
HETATM    9  C   UNL     1      -4.490   2.207 -31.822  1.00  0.00     0.133 C 
HETATM   10  C   UNL     1      -5.819   1.506 -31.897  1.00  0.00     0.142 A 
HETATM   11  N   UNL     1      -5.921   0.147 -31.919  1.00  0.00    -0.253 N 
HETATM   12  N   UNL     1      -7.031   2.026 -31.907  1.00  0.00    -0.215 NA
HETATM   13  N   UNL     1      -7.197  -0.258 -31.940  1.00  0.00    -0.155 NA
HETATM   14  C   UNL     1      -4.820  -0.788 -31.985  1.00  0.00     0.153 C 
HETATM   15  C   UNL     1      -7.845   0.916 -31.926  1.00  0.00     0.151 A 
HETATM   16  C   UNL     1      -3.504  -0.129 -31.577  1.00  0.00     0.024 C 
HETATM   17  C   UNL     1      -3.353   1.244 -32.239  1.00  0.00     0.029 C 
BRANCH  15  18
HETATM   18  C   UNL     1      -9.337   1.010 -31.909  1.00  0.00     0.051 C 
HETATM   19  C   UNL     1      -9.976  -0.074 -32.776  1.00  0.00     0.018 C 
HETATM   20  C   UNL     1      -9.806   2.397 -32.349  1.00  0.00     0.018 C 
ENDBRANCH  15  18
ENDBRANCH   7   9
ENDBRANCH   1   7
BRANCH   3  21
HETATM   21  N   UNL     1      -1.085   5.333 -35.337  1.00  0.00    -0.271 NA
HETATM   22  H   UNL     1      -0.788   6.299 -35.348  1.00  0.00     0.127 HD
HETATM   23  H   UNL     1      -0.420   4.639 -35.648  1.00  0.00     0.127 HD
ENDBRANCH   3  21
BRANCH   5  24
HETATM   24  N   UNL     1      -0.611   5.447 -30.667  1.00  0.00    -0.227 N 
HETATM   25  N   UNL     1       0.305   4.638 -30.066  1.00  0.00    -0.179 NA
HETATM   26  C   UNL     1       0.743   5.350 -29.026  1.00  0.00     0.141 A 
HETATM   27  C   UNL     1       0.136   6.612 -28.937  1.00  0.00     0.040 A 
HETATM   28  C   UNL     1      -0.729   6.651 -30.003  1.00  0.00     0.122 A 
ENDBRANCH   5  24
TORSDOF 5
ENDMDL
MODEL 10
REMARK VINA RESULT:      -7.4      1.986      2.938
REMARK  5 active torsions:
REMARK  status: ('A' for Active; 'I' for Inactive)
REMARK    1  A    between atoms: C_2  and  C_3 
REMARK    2  A    between atoms: C_7  and  N_8 
REMARK    3  A    between atoms: N_8  and  C_9 
REMARK    4  A    between atoms: C_11  and  N_12 
REMARK    5  A    between atoms: C_14  and  N_15 
ROOT
HETATM    1  C   UNL     1      -7.033   1.836 -33.016  1.00  0.00     0.111 A 
HETATM    2  N   UNL     1      -8.345   1.687 -32.770  1.00  0.00    -0.206 NA
HETATM    3  C   UNL     1      -8.869   0.466 -32.894  1.00  0.00     0.202 A 
HETATM    4  N   UNL     1      -8.208  -0.612 -33.301  1.00  0.00    -0.199 NA
HETATM    5  C   UNL     1      -6.895  -0.438 -33.572  1.00  0.00     0.156 A 
HETATM    6  C   UNL     1      -6.257   0.778 -33.435  1.00  0.00     0.096 A 
ENDROOT
BRANCH   1   7
HETATM    7  N   UNL     1      -6.428   3.098 -32.919  1.00  0.00    -0.265 NA
HETATM    8  H   UNL     1      -5.824   3.249 -33.729  1.00  0.00     0.130 HD
BRANCH   7   9
HETATM    9  C   UNL     1      -5.677   3.375 -31.689  1.00  0.00     0.133 C 
HETATM   10  C   UNL     1      -4.485   4.255 -31.948  1.00  0.00     0.142 A 
HETATM   11  N   UNL     1      -4.123   5.254 -31.095  1.00  0.00    -0.253 N 
HETATM   12  N   UNL     1      -3.616   4.202 -32.938  1.00  0.00    -0.215 NA
HETATM   13  N   UNL     1      -3.008   5.877 -31.500  1.00  0.00    -0.155 NA
HETATM   14  C   UNL     1      -4.854   5.679 -29.923  1.00  0.00     0.153 C 
HETATM   15  C   UNL     1      -2.725   5.203 -32.625  1.00  0.00     0.151 A 
HETATM   16  C   UNL     1      -5.846   4.612 -29.468  1.00  0.00     0.024 C 
HETATM   17  C   UNL     1      -6.621   4.043 -30.660  1.00  0.00     0.029 C 
BRANCH  15  18
HETATM   18  C   UNL     1      -1.522   5.503 -33.459  1.00  0.00     0.051 C 
HETATM   19  C   UNL     1      -1.142   6.981 -33.384  1.00  0.00     0.018 C 
HETATM   20  C   UNL     1      -1.739   5.077 -34.912  1.00  0.00     0.018 C 
ENDBRANCH  15  18
ENDBRANCH   7   9
ENDBRANCH   1   7
BRANCH   3  21
HETATM   21  N   UNL     1     -10.214   0.321 -32.625  1.00  0.00    -0.271 NA
HETATM   22  H   UNL     1     -10.670   1.223 -32.648  1.00  0.00     0.127 HD
HETATM   23  H   UNL     1     -10.606  -0.413 -33.198  1.00  0.00     0.127 HD
ENDBRANCH   3  21
BRANCH   5  24
HETATM   24  N   UNL     1      -6.151  -1.563 -34.034  1.00  0.00    -0.227 N 
HETATM   25  N   UNL     1      -6.737  -2.623 -34.656  1.00  0.00    -0.179 NA
HETATM   26  C   UNL     1      -5.727  -3.458 -34.908  1.00  0.00     0.141 A 
HETATM   27  C   UNL     1      -4.490  -2.964 -34.468  1.00  0.00     0.040 A 
HETATM   28  C   UNL     1      -4.788  -1.743 -33.912  1.00  0.00     0.122 A 
ENDBRANCH   5  24
TORSDOF 5
ENDMDL
