MODEL 1
REMARK VINA RESULT:      -9.0      0.000      0.000
REMARK  5 active torsions:
REMARK  status: ('A' for Active; 'I' for Inactive)
REMARK    1  A    between atoms: C_2  and  C_3 
REMARK    2  A    between atoms: C_2  and  C_9 
REMARK    3  A    between atoms: C_9  and  C_10 
REMARK       I    between atoms: C_10  and  N_11 
REMARK    4  A    between atoms: N_11  and  C_12 
REMARK    5  A    between atoms: C_19  and  C_20 
REMARK       I    between atoms: C_20  and  N_21 
ROOT
HETATM    1  C   UNL     1      -8.967   1.059 -33.555  1.00  0.00     0.035 A 
HETATM    2  C   UNL     1     -10.275   0.559 -33.578  1.00  0.00     0.046 A 
HETATM    3  C   UNL     1     -11.339   1.406 -33.963  1.00  0.00     0.030 A 
HETATM    4  C   UNL     1     -11.059   2.720 -34.311  1.00  0.00     0.063 A 
HETATM    5  N   UNL     1     -12.266   3.278 -34.627  1.00  0.00    -0.277 N 
HETATM    6  H   UNL     1     -12.443   4.230 -34.924  1.00  0.00     0.189 HD
HETATM    7  N   UNL     1     -13.311   2.443 -34.518  1.00  0.00    -0.168 NA
HETATM    8  C   UNL     1     -12.754   1.278 -34.110  1.00  0.00     0.156 A 
HETATM    9  C   UNL     1      -9.768   3.251 -34.304  1.00  0.00     0.034 A 
HETATM   10  C   UNL     1      -8.730   2.392 -33.920  1.00  0.00     0.032 A 
ENDROOT
BRANCH   1  11
HETATM   11  N   UNL     1      -7.839   0.294 -33.185  1.00  0.00    -0.327 N 
HETATM   12  C   UNL     1      -7.138   0.343 -31.989  1.00  0.00     0.222 C 
HETATM   13  O   UNL     1      -7.368   1.087 -31.043  1.00  0.00    -0.273 OA
HETATM   14  H   UNL     1      -7.491  -0.350 -33.883  1.00  0.00     0.169 HD
BRANCH  12  15
HETATM   15  C   UNL     1      -5.985  -0.650 -31.980  1.00  0.00     0.112 C 
BRANCH  15  16
HETATM   16  C   UNL     1      -5.276  -0.769 -33.340  1.00  0.00     0.023 C 
HETATM   17  C   UNL     1      -3.803  -0.349 -33.257  1.00  0.00     0.015 C 
BRANCH  16  18
HETATM   18  C   UNL     1      -5.408  -2.186 -33.882  1.00  0.00    -0.054 A 
HETATM   19  C   UNL     1      -6.588  -2.640 -34.492  1.00  0.00     0.007 A 
HETATM   20  C   UNL     1      -6.678  -3.944 -34.984  1.00  0.00     0.001 A 
HETATM   21  C   UNL     1      -5.592  -4.809 -34.876  1.00  0.00     0.000 A 
HETATM   22  C   UNL     1      -4.414  -4.372 -34.277  1.00  0.00     0.001 A 
HETATM   23  C   UNL     1      -4.321  -3.068 -33.784  1.00  0.00     0.007 A 
ENDBRANCH  16  18
ENDBRANCH  15  16
ENDBRANCH  12  15
ENDBRANCH   1  11
BRANCH   8  24
HETATM   24  C   UNL     1     -13.578   0.085 -33.871  1.00  0.00     0.270 C 
HETATM   25  N   UNL     1     -14.867   0.198 -34.316  1.00  0.00    -0.365 N 
HETATM   26  H   UNL     1     -15.152   1.061 -34.762  1.00  0.00     0.159 HD
HETATM   27  H   UNL     1     -15.504  -0.574 -34.197  1.00  0.00     0.159 HD
HETATM   28  O   UNL     1     -13.183  -0.942 -33.328  1.00  0.00    -0.266 OA
ENDBRANCH   8  24
TORSDOF 5
ENDMDL
MODEL 2
REMARK VINA RESULT:      -8.6      5.805      8.951
REMARK  5 active torsions:
REMARK  status: ('A' for Active; 'I' for Inactive)
REMARK    1  A    between atoms: C_2  and  C_3 
REMARK    2  A    between atoms: C_2  and  C_9 
REMARK    3  A    between atoms: C_9  and  C_10 
REMARK       I    between atoms: C_10  and  N_11 
REMARK    4  A    between atoms: N_11  and  C_12 
REMARK    5  A    between atoms: C_19  and  C_20 
REMARK       I    between atoms: C_20  and  N_21 
ROOT
HETATM    1  C   UNL     1      -2.723   3.841 -32.535  1.00  0.00     0.035 A 
HETATM    2  C   UNL     1      -1.890   4.127 -31.445  1.00  0.00     0.046 A 
HETATM    3  C   UNL     1      -1.052   5.264 -31.486  1.00  0.00     0.030 A 
HETATM    4  C   UNL     1      -1.076   6.074 -32.614  1.00  0.00     0.063 A 
HETATM    5  N   UNL     1      -0.176   7.071 -32.363  1.00  0.00    -0.277 N 
HETATM    6  H   UNL     1       0.070   7.843 -32.972  1.00  0.00     0.189 HD
HETATM    7  N   UNL     1       0.434   6.985 -31.171  1.00  0.00    -0.168 NA
HETATM    8  C   UNL     1      -0.099   5.872 -30.614  1.00  0.00     0.156 A 
HETATM    9  C   UNL     1      -1.896   5.823 -33.715  1.00  0.00     0.034 A 
HETATM   10  C   UNL     1      -2.718   4.690 -33.649  1.00  0.00     0.032 A 
ENDROOT
BRANCH   1  11
HETATM   11  N   UNL     1      -3.594   2.730 -32.588  1.00  0.00    -0.327 N 
HETATM   12  C   UNL     1      -4.861   2.619 -32.035  1.00  0.00     0.222 C 
HETATM   13  O   UNL     1      -5.442   3.473 -31.375  1.00  0.00    -0.273 OA
HETATM   14  H   UNL     1      -3.241   1.912 -33.070  1.00  0.00     0.169 HD
BRANCH  12  15
HETATM   15  C   UNL     1      -5.476   1.258 -32.322  1.00  0.00     0.112 C 
BRANCH  15  16
HETATM   16  C   UNL     1      -4.428   0.152 -32.538  1.00  0.00     0.023 C 
HETATM   17  C   UNL     1      -3.861  -0.366 -31.210  1.00  0.00     0.015 C 
BRANCH  16  18
HETATM   18  C   UNL     1      -5.022  -0.986 -33.357  1.00  0.00    -0.054 A 
HETATM   19  C   UNL     1      -6.349  -0.958 -33.813  1.00  0.00     0.007 A 
HETATM   20  C   UNL     1      -6.866  -2.015 -34.566  1.00  0.00     0.001 A 
HETATM   21  C   UNL     1      -6.063  -3.109 -34.878  1.00  0.00     0.000 A 
HETATM   22  C   UNL     1      -4.743  -3.149 -34.437  1.00  0.00     0.001 A 
HETATM   23  C   UNL     1      -4.224  -2.094 -33.683  1.00  0.00     0.007 A 
ENDBRANCH  16  18
ENDBRANCH  15  16
ENDBRANCH  12  15
ENDBRANCH   1  11
BRANCH   8  24
HETATM   24  C   UNL     1       0.310   5.420 -29.277  1.00  0.00     0.270 C 
HETATM   25  N   UNL     1       1.091   4.296 -29.282  1.00  0.00    -0.365 N 
HETATM   26  H   UNL     1       1.324   3.872 -30.172  1.00  0.00     0.159 HD
HETATM   27  H   UNL     1       1.421   3.915 -28.410  1.00  0.00     0.159 HD
HETATM   28  O   UNL     1       0.004   5.973 -28.226  1.00  0.00    -0.266 OA
ENDBRANCH   8  24
TORSDOF 5
ENDMDL
MODEL 3
REMARK VINA RESULT:      -8.5      1.662      2.094
REMARK  5 active torsions:
REMARK  status: ('A' for Active; 'I' for Inactive)
REMARK    1  A    between atoms: C_2  and  C_3 
REMARK    2  A    between atoms: C_2  and  C_9 
REMARK    3  A    between atoms: C_9  and  C_10 
REMARK       I    between atoms: C_10  and  N_11 
REMARK    4  A    between atoms: N_11  and  C_12 
REMARK    5  A    between atoms: C_19  and  C_20 
REMARK       I    between atoms: C_20  and  N_21 
ROOT
HETATM    1  C   UNL     1      -9.161   1.666 -32.079  1.00  0.00     0.035 A 
HETATM    2  C   UNL     1     -10.183   1.572 -33.033  1.00  0.00     0.046 A 
HETATM    3  C   UNL     1     -11.235   2.516 -33.023  1.00  0.00     0.030 A 
HETATM    4  C   UNL     1     -11.228   3.518 -32.062  1.00  0.00     0.063 A 
HETATM    5  N   UNL     1     -12.352   4.258 -32.302  1.00  0.00    -0.277 N 
HETATM    6  H   UNL     1     -12.671   5.073 -31.790  1.00  0.00     0.189 HD
HETATM    7  N   UNL     1     -13.092   3.829 -33.337  1.00  0.00    -0.168 NA
HETATM    8  C   UNL     1     -12.413   2.752 -33.795  1.00  0.00     0.156 A 
HETATM    9  C   UNL     1     -10.225   3.645 -31.100  1.00  0.00     0.034 A 
HETATM   10  C   UNL     1      -9.193   2.698 -31.131  1.00  0.00     0.032 A 
ENDROOT
BRANCH   1  11
HETATM   11  N   UNL     1      -8.069   0.772 -32.006  1.00  0.00    -0.327 N 
HETATM   12  C   UNL     1      -6.980   0.695 -32.861  1.00  0.00     0.222 C 
HETATM   13  O   UNL     1      -6.786   1.385 -33.854  1.00  0.00    -0.273 OA
HETATM   14  H   UNL     1      -8.099   0.096 -31.253  1.00  0.00     0.169 HD
BRANCH  12  15
HETATM   15  C   UNL     1      -6.016  -0.403 -32.435  1.00  0.00     0.112 C 
BRANCH  15  16
HETATM   16  C   UNL     1      -5.001  -0.778 -33.528  1.00  0.00     0.023 C 
HETATM   17  C   UNL     1      -3.554  -0.575 -33.060  1.00  0.00     0.015 C 
BRANCH  16  18
HETATM   18  C   UNL     1      -5.228  -2.211 -33.991  1.00  0.00    -0.054 A 
HETATM   19  C   UNL     1      -4.239  -3.198 -33.860  1.00  0.00     0.007 A 
HETATM   20  C   UNL     1      -4.477  -4.506 -34.288  1.00  0.00     0.001 A 
HETATM   21  C   UNL     1      -5.707  -4.844 -34.849  1.00  0.00     0.000 A 
HETATM   22  C   UNL     1      -6.699  -3.877 -34.981  1.00  0.00     0.001 A 
HETATM   23  C   UNL     1      -6.463  -2.569 -34.554  1.00  0.00     0.007 A 
ENDBRANCH  16  18
ENDBRANCH  15  16
ENDBRANCH  12  15
ENDBRANCH   1  11
BRANCH   8  24
HETATM   24  C   UNL     1     -12.900   1.981 -34.948  1.00  0.00     0.270 C 
HETATM   25  N   UNL     1     -12.059   2.000 -36.028  1.00  0.00    -0.365 N 
HETATM   26  H   UNL     1     -11.194   2.523 -35.960  1.00  0.00     0.159 HD
HETATM   27  H   UNL     1     -12.310   1.497 -36.864  1.00  0.00     0.159 HD
HETATM   28  O   UNL     1     -13.956   1.360 -34.980  1.00  0.00    -0.266 OA
ENDBRANCH   8  24
TORSDOF 5
ENDMDL
MODEL 4
REMARK VINA RESULT:      -8.4      5.153      8.138
REMARK  5 active torsions:
REMARK  status: ('A' for Active; 'I' for Inactive)
REMARK    1  A    between atoms: C_2  and  C_3 
REMARK    2  A    between atoms: C_2  and  C_9 
REMARK    3  A    between atoms: C_9  and  C_10 
REMARK       I    between atoms: C_10  and  N_11 
REMARK    4  A    between atoms: N_11  and  C_12 
REMARK    5  A    between atoms: C_19  and  C_20 
REMARK       I    between atoms: C_20  and  N_21 
ROOT
HETATM    1  C   UNL     1      -4.019   3.282 -32.490  1.00  0.00     0.035 A 
HETATM    2  C   UNL     1      -2.829   3.623 -31.833  1.00  0.00     0.046 A 
HETATM    3  C   UNL     1      -2.191   4.847 -32.137  1.00  0.00     0.030 A 
HETATM    4  C   UNL     1      -2.762   5.684 -33.085  1.00  0.00     0.063 A 
HETATM    5  N   UNL     1      -1.931   6.766 -33.162  1.00  0.00    -0.277 N 
HETATM    6  H   UNL     1      -2.036   7.580 -33.758  1.00  0.00     0.189 HD
HETATM    7  N   UNL     1      -0.866   6.710 -32.346  1.00  0.00    -0.168 NA
HETATM    8  C   UNL     1      -1.013   5.529 -31.702  1.00  0.00     0.156 A 
HETATM    9  C   UNL     1      -3.947   5.379 -33.756  1.00  0.00     0.034 A 
HETATM   10  C   UNL     1      -4.562   4.161 -33.436  1.00  0.00     0.032 A 
ENDROOT
BRANCH   1  11
HETATM   11  N   UNL     1      -4.730   2.083 -32.256  1.00  0.00    -0.327 N 
HETATM   12  C   UNL     1      -4.312   0.787 -32.515  1.00  0.00     0.222 C 
HETATM   13  O   UNL     1      -3.246   0.455 -33.019  1.00  0.00    -0.273 OA
HETATM   14  H   UNL     1      -5.662   2.188 -31.875  1.00  0.00     0.169 HD
BRANCH  12  15
HETATM   15  C   UNL     1      -5.371  -0.229 -32.114  1.00  0.00     0.112 C 
BRANCH  15  16
HETATM   16  C   UNL     1      -6.339  -0.581 -33.257  1.00  0.00     0.023 C 
HETATM   17  C   UNL     1      -6.330   0.484 -34.362  1.00  0.00     0.015 C 
BRANCH  16  18
HETATM   18  C   UNL     1      -6.009  -1.956 -33.823  1.00  0.00    -0.054 A 
HETATM   19  C   UNL     1      -4.706  -2.475 -33.800  1.00  0.00     0.007 A 
HETATM   20  C   UNL     1      -4.435  -3.742 -34.323  1.00  0.00     0.001 A 
HETATM   21  C   UNL     1      -5.462  -4.507 -34.869  1.00  0.00     0.000 A 
HETATM   22  C   UNL     1      -6.761  -4.007 -34.894  1.00  0.00     0.001 A 
HETATM   23  C   UNL     1      -7.035  -2.741 -34.373  1.00  0.00     0.007 A 
ENDBRANCH  16  18
ENDBRANCH  15  16
ENDBRANCH  12  15
ENDBRANCH   1  11
BRANCH   8  24
HETATM   24  C   UNL     1      -0.037   5.083 -30.699  1.00  0.00     0.270 C 
HETATM   25  N   UNL     1      -0.400   5.355 -29.407  1.00  0.00    -0.365 N 
HETATM   26  H   UNL     1      -1.282   5.824 -29.240  1.00  0.00     0.159 HD
HETATM   27  H   UNL     1       0.208   5.083 -28.651  1.00  0.00     0.159 HD
HETATM   28  O   UNL     1       1.019   4.514 -30.952  1.00  0.00    -0.266 OA
ENDBRANCH   8  24
TORSDOF 5
ENDMDL
MODEL 5
REMARK VINA RESULT:      -8.3      4.413      6.246
REMARK  5 active torsions:
REMARK  status: ('A' for Active; 'I' for Inactive)
REMARK    1  A    between atoms: C_2  and  C_3 
REMARK    2  A    between atoms: C_2  and  C_9 
REMARK    3  A    between atoms: C_9  and  C_10 
REMARK       I    between atoms: C_10  and  N_11 
REMARK    4  A    between atoms: N_11  and  C_12 
REMARK    5  A    between atoms: C_19  and  C_20 
REMARK       I    between atoms: C_20  and  N_21 
ROOT
HETATM    1  C   UNL     1      -7.144   3.278 -31.198  1.00  0.00     0.035 A 
HETATM    2  C   UNL     1      -6.397   3.998 -30.256  1.00  0.00     0.046 A 
HETATM    3  C   UNL     1      -7.046   4.933 -29.418  1.00  0.00     0.030 A 
HETATM    4  C   UNL     1      -8.416   5.115 -29.551  1.00  0.00     0.063 A 
HETATM    5  N   UNL     1      -8.747   6.065 -28.626  1.00  0.00    -0.277 N 
HETATM    6  H   UNL     1      -9.667   6.449 -28.443  1.00  0.00     0.189 HD
HETATM    7  N   UNL     1      -7.714   6.519 -27.899  1.00  0.00    -0.168 NA
HETATM    8  C   UNL     1      -6.654   5.826 -28.375  1.00  0.00     0.156 A 
HETATM    9  C   UNL     1      -9.192   4.413 -30.475  1.00  0.00     0.034 A 
HETATM   10  C   UNL     1      -8.526   3.491 -31.293  1.00  0.00     0.032 A 
ENDROOT
BRANCH   1  11
HETATM   11  N   UNL     1      -6.588   2.324 -32.079  1.00  0.00    -0.327 N 
HETATM   12  C   UNL     1      -6.586   0.944 -31.942  1.00  0.00     0.222 C 
HETATM   13  O   UNL     1      -7.054   0.307 -31.006  1.00  0.00    -0.273 OA
HETATM   14  H   UNL     1      -6.118   2.695 -32.896  1.00  0.00     0.169 HD
BRANCH  12  15
HETATM   15  C   UNL     1      -5.888   0.270 -33.113  1.00  0.00     0.112 C 
BRANCH  15  16
HETATM   16  C   UNL     1      -6.828  -0.613 -33.953  1.00  0.00     0.023 C 
HETATM   17  C   UNL     1      -7.202   0.053 -35.284  1.00  0.00     0.015 C 
BRANCH  16  18
HETATM   18  C   UNL     1      -6.199  -1.980 -34.187  1.00  0.00    -0.054 A 
HETATM   19  C   UNL     1      -4.839  -2.224 -33.940  1.00  0.00     0.007 A 
HETATM   20  C   UNL     1      -4.291  -3.490 -34.159  1.00  0.00     0.001 A 
HETATM   21  C   UNL     1      -5.094  -4.528 -34.623  1.00  0.00     0.000 A 
HETATM   22  C   UNL     1      -6.446  -4.303 -34.868  1.00  0.00     0.001 A 
HETATM   23  C   UNL     1      -6.996  -3.038 -34.651  1.00  0.00     0.007 A 
ENDBRANCH  16  18
ENDBRANCH  15  16
ENDBRANCH  12  15
ENDBRANCH   1  11
BRANCH   8  24
HETATM   24  C   UNL     1      -5.304   6.031 -27.830  1.00  0.00     0.270 C 
HETATM   25  N   UNL     1      -5.005   5.227 -26.764  1.00  0.00    -0.365 N 
HETATM   26  H   UNL     1      -5.706   4.572 -26.438  1.00  0.00     0.159 HD
HETATM   27  H   UNL     1      -4.100   5.297 -26.326  1.00  0.00     0.159 HD
HETATM   28  O   UNL     1      -4.488   6.838 -28.263  1.00  0.00    -0.266 OA
ENDBRANCH   8  24
TORSDOF 5
ENDMDL
MODEL 6
REMARK VINA RESULT:      -8.3      4.187      6.661
REMARK  5 active torsions:
REMARK  status: ('A' for Active; 'I' for Inactive)
REMARK    1  A    between atoms: C_2  and  C_3 
REMARK    2  A    between atoms: C_2  and  C_9 
REMARK    3  A    between atoms: C_9  and  C_10 
REMARK       I    between atoms: C_10  and  N_11 
REMARK    4  A    between atoms: N_11  and  C_12 
REMARK    5  A    between atoms: C_19  and  C_20 
REMARK       I    between atoms: C_20  and  N_21 
ROOT
HETATM    1  C   UNL     1      -5.605   2.336 -32.046  1.00  0.00     0.035 A 
HETATM    2  C   UNL     1      -4.880   3.095 -32.973  1.00  0.00     0.046 A 
HETATM    3  C   UNL     1      -4.275   4.305 -32.563  1.00  0.00     0.030 A 
HETATM    4  C   UNL     1      -4.417   4.713 -31.243  1.00  0.00     0.063 A 
HETATM    5  N   UNL     1      -3.738   5.895 -31.154  1.00  0.00    -0.277 N 
HETATM    6  H   UNL     1      -3.632   6.481 -30.334  1.00  0.00     0.189 HD
HETATM    7  N   UNL     1      -3.164   6.296 -32.299  1.00  0.00    -0.168 NA
HETATM    8  C   UNL     1      -3.485   5.321 -33.181  1.00  0.00     0.156 A 
HETATM    9  C   UNL     1      -5.129   3.980 -30.292  1.00  0.00     0.034 A 
HETATM   10  C   UNL     1      -5.717   2.784 -30.722  1.00  0.00     0.032 A 
ENDROOT
BRANCH   1  11
HETATM   11  N   UNL     1      -6.246   1.116 -32.358  1.00  0.00    -0.327 N 
HETATM   12  C   UNL     1      -7.537   0.934 -32.830  1.00  0.00     0.222 C 
HETATM   13  O   UNL     1      -8.364   1.813 -33.038  1.00  0.00    -0.273 OA
HETATM   14  H   UNL     1      -5.703   0.276 -32.198  1.00  0.00     0.169 HD
BRANCH  12  15
HETATM   15  C   UNL     1      -7.846  -0.540 -33.049  1.00  0.00     0.112 C 
BRANCH  15  16
HETATM   16  C   UNL     1      -7.543  -1.018 -34.479  1.00  0.00     0.023 C 
HETATM   17  C   UNL     1      -7.038   0.125 -35.370  1.00  0.00     0.015 C 
BRANCH  16  18
HETATM   18  C   UNL     1      -6.545  -2.168 -34.451  1.00  0.00    -0.054 A 
HETATM   19  C   UNL     1      -6.903  -3.471 -34.830  1.00  0.00     0.007 A 
HETATM   20  C   UNL     1      -5.965  -4.505 -34.798  1.00  0.00     0.001 A 
HETATM   21  C   UNL     1      -4.657  -4.250 -34.392  1.00  0.00     0.000 A 
HETATM   22  C   UNL     1      -4.286  -2.962 -34.018  1.00  0.00     0.001 A 
HETATM   23  C   UNL     1      -5.222  -1.926 -34.048  1.00  0.00     0.007 A 
ENDBRANCH  16  18
ENDBRANCH  15  16
ENDBRANCH  12  15
ENDBRANCH   1  11
BRANCH   8  24
HETATM   24  C   UNL     1      -3.035   5.382 -34.579  1.00  0.00     0.270 C 
HETATM   25  N   UNL     1      -1.676   5.324 -34.731  1.00  0.00    -0.365 N 
HETATM   26  H   UNL     1      -1.098   5.244 -33.903  1.00  0.00     0.159 HD
HETATM   27  H   UNL     1      -1.276   5.357 -35.655  1.00  0.00     0.159 HD
HETATM   28  O   UNL     1      -3.776   5.475 -35.551  1.00  0.00    -0.266 OA
ENDBRANCH   8  24
TORSDOF 5
ENDMDL
MODEL 7
REMARK VINA RESULT:      -8.1      5.792      8.210
REMARK  5 active torsions:
REMARK  status: ('A' for Active; 'I' for Inactive)
REMARK    1  A    between atoms: C_2  and  C_3 
REMARK    2  A    between atoms: C_2  and  C_9 
REMARK    3  A    between atoms: C_9  and  C_10 
REMARK       I    between atoms: C_10  and  N_11 
REMARK    4  A    between atoms: N_11  and  C_12 
REMARK    5  A    between atoms: C_19  and  C_20 
REMARK       I    between atoms: C_20  and  N_21 
ROOT
HETATM    1  C   UNL     1      -2.842   4.023 -32.449  1.00  0.00     0.035 A 
HETATM    2  C   UNL     1      -2.952   5.121 -31.585  1.00  0.00     0.046 A 
HETATM    3  C   UNL     1      -2.496   6.390 -32.008  1.00  0.00     0.030 A 
HETATM    4  C   UNL     1      -1.947   6.516 -33.278  1.00  0.00     0.063 A 
HETATM    5  N   UNL     1      -1.602   7.834 -33.394  1.00  0.00    -0.277 N 
HETATM    6  H   UNL     1      -1.170   8.287 -34.191  1.00  0.00     0.189 HD
HETATM    7  N   UNL     1      -1.880   8.580 -32.313  1.00  0.00    -0.168 NA
HETATM    8  C   UNL     1      -2.435   7.701 -31.447  1.00  0.00     0.156 A 
HETATM    9  C   UNL     1      -1.825   5.446 -34.165  1.00  0.00     0.034 A 
HETATM   10  C   UNL     1      -2.286   4.199 -33.724  1.00  0.00     0.032 A 
ENDROOT
BRANCH   1  11
HETATM   11  N   UNL     1      -3.268   2.717 -32.119  1.00  0.00    -0.327 N 
HETATM   12  C   UNL     1      -4.511   2.147 -32.352  1.00  0.00     0.222 C 
HETATM   13  O   UNL     1      -5.475   2.695 -32.873  1.00  0.00    -0.273 OA
HETATM   14  H   UNL     1      -2.592   2.139 -31.636  1.00  0.00     0.169 HD
BRANCH  12  15
HETATM   15  C   UNL     1      -4.567   0.712 -31.849  1.00  0.00     0.112 C 
BRANCH  15  16
HETATM   16  C   UNL     1      -3.809  -0.278 -32.750  1.00  0.00     0.023 C 
HETATM   17  C   UNL     1      -2.749  -1.067 -31.969  1.00  0.00     0.015 C 
BRANCH  16  18
HETATM   18  C   UNL     1      -4.787  -1.217 -33.442  1.00  0.00    -0.054 A 
HETATM   19  C   UNL     1      -6.143  -0.891 -33.602  1.00  0.00     0.007 A 
HETATM   20  C   UNL     1      -7.016  -1.771 -34.245  1.00  0.00     0.001 A 
HETATM   21  C   UNL     1      -6.545  -2.984 -34.741  1.00  0.00     0.000 A 
HETATM   22  C   UNL     1      -5.202  -3.319 -34.595  1.00  0.00     0.001 A 
HETATM   23  C   UNL     1      -4.327  -2.442 -33.952  1.00  0.00     0.007 A 
ENDBRANCH  16  18
ENDBRANCH  15  16
ENDBRANCH  12  15
ENDBRANCH   1  11
BRANCH   8  24
HETATM   24  C   UNL     1      -2.890   8.130 -30.116  1.00  0.00     0.270 C 
HETATM   25  N   UNL     1      -1.959   8.844 -29.412  1.00  0.00    -0.365 N 
HETATM   26  H   UNL     1      -1.059   9.022 -29.839  1.00  0.00     0.159 HD
HETATM   27  H   UNL     1      -2.184   9.181 -28.489  1.00  0.00     0.159 HD
HETATM   28  O   UNL     1      -3.996   7.892 -29.643  1.00  0.00    -0.266 OA
ENDBRANCH   8  24
TORSDOF 5
ENDMDL
MODEL 8
REMARK VINA RESULT:      -7.8      5.706      9.192
REMARK  5 active torsions:
REMARK  status: ('A' for Active; 'I' for Inactive)
REMARK    1  A    between atoms: C_2  and  C_3 
REMARK    2  A    between atoms: C_2  and  C_9 
REMARK    3  A    between atoms: C_9  and  C_10 
REMARK       I    between atoms: C_10  and  N_11 
REMARK    4  A    between atoms: N_11  and  C_12 
REMARK    5  A    between atoms: C_19  and  C_20 
REMARK       I    between atoms: C_20  and  N_21 
ROOT
HETATM    1  C   UNL     1      -3.024   3.644 -32.202  1.00  0.00     0.035 A 
HETATM    2  C   UNL     1      -2.111   4.014 -31.205  1.00  0.00     0.046 A 
HETATM    3  C   UNL     1      -1.246   5.110 -31.422  1.00  0.00     0.030 A 
HETATM    4  C   UNL     1      -1.323   5.797 -32.627  1.00  0.00     0.063 A 
HETATM    5  N   UNL     1      -0.380   6.782 -32.543  1.00  0.00    -0.277 N 
HETATM    6  H   UNL     1      -0.154   7.477 -33.246  1.00  0.00     0.189 HD
HETATM    7  N   UNL     1       0.306   6.801 -31.390  1.00  0.00    -0.168 NA
HETATM    8  C   UNL     1      -0.219   5.773 -30.683  1.00  0.00     0.156 A 
HETATM    9  C   UNL     1      -2.222   5.460 -33.640  1.00  0.00     0.034 A 
HETATM   10  C   UNL     1      -3.070   4.371 -33.400  1.00  0.00     0.032 A 
ENDROOT
BRANCH   1  11
HETATM   11  N   UNL     1      -3.927   2.565 -32.080  1.00  0.00    -0.327 N 
HETATM   12  C   UNL     1      -3.680   1.311 -31.542  1.00  0.00     0.222 C 
HETATM   13  O   UNL     1      -2.613   0.910 -31.095  1.00  0.00    -0.273 OA
HETATM   14  H   UNL     1      -4.857   2.722 -32.448  1.00  0.00     0.169 HD
BRANCH  12  15
HETATM   15  C   UNL     1      -4.921   0.432 -31.590  1.00  0.00     0.112 C 
BRANCH  15  16
HETATM   16  C   UNL     1      -5.311   0.008 -33.017  1.00  0.00     0.023 C 
HETATM   17  C   UNL     1      -4.910  -1.443 -33.312  1.00  0.00     0.015 C 
BRANCH  16  18
HETATM   18  C   UNL     1      -6.802   0.218 -33.242  1.00  0.00    -0.054 A 
HETATM   19  C   UNL     1      -7.340   0.409 -34.524  1.00  0.00     0.007 A 
HETATM   20  C   UNL     1      -8.713   0.594 -34.700  1.00  0.00     0.001 A 
HETATM   21  C   UNL     1      -9.566   0.587 -33.599  1.00  0.00     0.000 A 
HETATM   22  C   UNL     1      -9.048   0.395 -32.321  1.00  0.00     0.001 A 
HETATM   23  C   UNL     1      -7.675   0.210 -32.143  1.00  0.00     0.007 A 
ENDBRANCH  16  18
ENDBRANCH  15  16
ENDBRANCH  12  15
ENDBRANCH   1  11
BRANCH   8  24
HETATM   24  C   UNL     1       0.266   5.451 -29.334  1.00  0.00     0.270 C 
HETATM   25  N   UNL     1       1.097   4.364 -29.285  1.00  0.00    -0.365 N 
HETATM   26  H   UNL     1       1.312   3.878 -30.147  1.00  0.00     0.159 HD
HETATM   27  H   UNL     1       1.480   4.070 -28.400  1.00  0.00     0.159 HD
HETATM   28  O   UNL     1      -0.021   6.074 -28.318  1.00  0.00    -0.266 OA
ENDBRANCH   8  24
TORSDOF 5
ENDMDL
MODEL 9
REMARK VINA RESULT:      -7.8      5.421      8.038
REMARK  5 active torsions:
REMARK  status: ('A' for Active; 'I' for Inactive)
REMARK    1  A    between atoms: C_2  and  C_3 
REMARK    2  A    between atoms: C_2  and  C_9 
REMARK    3  A    between atoms: C_9  and  C_10 
REMARK       I    between atoms: C_10  and  N_11 
REMARK    4  A    between atoms: N_11  and  C_12 
REMARK    5  A    between atoms: C_19  and  C_20 
REMARK       I    between atoms: C_20  and  N_21 
ROOT
HETATM    1  C   UNL     1      -3.724   3.790 -32.348  1.00  0.00     0.035 A 
HETATM    2  C   UNL     1      -3.868   4.681 -31.276  1.00  0.00     0.046 A 
HETATM    3  C   UNL     1      -2.893   5.682 -31.065  1.00  0.00     0.030 A 
HETATM    4  C   UNL     1      -1.810   5.757 -31.931  1.00  0.00     0.063 A 
HETATM    5  N   UNL     1      -1.054   6.801 -31.476  1.00  0.00    -0.277 N 
HETATM    6  H   UNL     1      -0.183   7.143 -31.866  1.00  0.00     0.189 HD
HETATM    7  N   UNL     1      -1.549   7.416 -30.391  1.00  0.00    -0.168 NA
HETATM    8  C   UNL     1      -2.688   6.737 -30.124  1.00  0.00     0.156 A 
HETATM    9  C   UNL     1      -1.636   4.889 -33.010  1.00  0.00     0.034 A 
HETATM   10  C   UNL     1      -2.617   3.907 -33.200  1.00  0.00     0.032 A 
ENDROOT
BRANCH   1  11
HETATM   11  N   UNL     1      -4.643   2.758 -32.641  1.00  0.00    -0.327 N 
HETATM   12  C   UNL     1      -5.811   2.850 -33.382  1.00  0.00     0.222 C 
HETATM   13  O   UNL     1      -6.266   3.863 -33.898  1.00  0.00    -0.273 OA
HETATM   14  H   UNL     1      -4.432   1.850 -32.245  1.00  0.00     0.169 HD
BRANCH  12  15
HETATM   15  C   UNL     1      -6.519   1.506 -33.471  1.00  0.00     0.112 C 
BRANCH  15  16
HETATM   16  C   UNL     1      -5.876   0.420 -32.591  1.00  0.00     0.023 C 
HETATM   17  C   UNL     1      -6.664   0.193 -31.295  1.00  0.00     0.015 C 
BRANCH  16  18
HETATM   18  C   UNL     1      -5.730  -0.877 -33.374  1.00  0.00    -0.054 A 
HETATM   19  C   UNL     1      -4.482  -1.489 -33.571  1.00  0.00     0.007 A 
HETATM   20  C   UNL     1      -4.380  -2.682 -34.290  1.00  0.00     0.001 A 
HETATM   21  C   UNL     1      -5.521  -3.280 -34.818  1.00  0.00     0.000 A 
HETATM   22  C   UNL     1      -6.766  -2.688 -34.627  1.00  0.00     0.001 A 
HETATM   23  C   UNL     1      -6.871  -1.495 -33.909  1.00  0.00     0.007 A 
ENDBRANCH  16  18
ENDBRANCH  15  16
ENDBRANCH  12  15
ENDBRANCH   1  11
BRANCH   8  24
HETATM   24  C   UNL     1      -3.546   7.107 -28.990  1.00  0.00     0.270 C 
HETATM   25  N   UNL     1      -3.048   6.738 -27.770  1.00  0.00    -0.365 N 
HETATM   26  H   UNL     1      -2.157   6.256 -27.735  1.00  0.00     0.159 HD
HETATM   27  H   UNL     1      -3.568   6.952 -26.934  1.00  0.00     0.159 HD
HETATM   28  O   UNL     1      -4.618   7.695 -29.084  1.00  0.00    -0.266 OA
ENDBRANCH   8  24
TORSDOF 5
ENDMDL
MODEL 10
REMARK VINA RESULT:      -7.7      2.582      2.970
REMARK  5 active torsions:
REMARK  status: ('A' for Active; 'I' for Inactive)
REMARK    1  A    between atoms: C_2  and  C_3 
REMARK    2  A    between atoms: C_2  and  C_9 
REMARK    3  A    between atoms: C_9  and  C_10 
REMARK       I    between atoms: C_10  and  N_11 
REMARK    4  A    between atoms: N_11  and  C_12 
REMARK    5  A    between atoms: C_19  and  C_20 
REMARK       I    between atoms: C_20  and  N_21 
ROOT
HETATM    1  C   UNL     1      -8.657   2.236 -31.806  1.00  0.00     0.035 A 
HETATM    2  C   UNL     1      -9.886   2.549 -32.402  1.00  0.00     0.046 A 
HETATM    3  C   UNL     1     -10.712   3.538 -31.820  1.00  0.00     0.030 A 
HETATM    4  C   UNL     1     -10.281   4.176 -30.665  1.00  0.00     0.063 A 
HETATM    5  N   UNL     1     -11.275   5.059 -30.347  1.00  0.00    -0.277 N 
HETATM    6  H   UNL     1     -11.301   5.695 -29.558  1.00  0.00     0.189 HD
HETATM    7  N   UNL     1     -12.317   5.055 -31.193  1.00  0.00    -0.168 NA
HETATM    8  C   UNL     1     -11.983   4.120 -32.113  1.00  0.00     0.156 A 
HETATM    9  C   UNL     1      -9.063   3.893 -30.047  1.00  0.00     0.034 A 
HETATM   10  C   UNL     1      -8.261   2.911 -30.643  1.00  0.00     0.032 A 
ENDROOT
BRANCH   1  11
HETATM   11  N   UNL     1      -7.764   1.264 -32.311  1.00  0.00    -0.327 N 
HETATM   12  C   UNL     1      -6.578   1.480 -32.996  1.00  0.00     0.222 C 
HETATM   13  O   UNL     1      -6.105   2.567 -33.305  1.00  0.00    -0.273 OA
HETATM   14  H   UNL     1      -8.034   0.299 -32.173  1.00  0.00     0.169 HD
BRANCH  12  15
HETATM   15  C   UNL     1      -5.903   0.167 -33.364  1.00  0.00     0.112 C 
BRANCH  15  16
HETATM   16  C   UNL     1      -6.844  -0.821 -34.075  1.00  0.00     0.023 C 
HETATM   17  C   UNL     1      -7.322  -0.283 -35.430  1.00  0.00     0.015 C 
BRANCH  16  18
HETATM   18  C   UNL     1      -6.165  -2.175 -34.235  1.00  0.00    -0.054 A 
HETATM   19  C   UNL     1      -6.849  -3.294 -34.735  1.00  0.00     0.007 A 
HETATM   20  C   UNL     1      -6.198  -4.522 -34.875  1.00  0.00     0.001 A 
HETATM   21  C   UNL     1      -4.857  -4.646 -34.524  1.00  0.00     0.000 A 
HETATM   22  C   UNL     1      -4.163  -3.544 -34.031  1.00  0.00     0.001 A 
HETATM   23  C   UNL     1      -4.812  -2.315 -33.889  1.00  0.00     0.007 A 
ENDBRANCH  16  18
ENDBRANCH  15  16
ENDBRANCH  12  15
ENDBRANCH   1  11
BRANCH   8  24
HETATM   24  C   UNL     1     -12.876   3.806 -33.237  1.00  0.00     0.270 C 
HETATM   25  N   UNL     1     -14.201   4.027 -32.976  1.00  0.00    -0.365 N 
HETATM   26  H   UNL     1     -14.463   4.379 -32.063  1.00  0.00     0.159 HD
HETATM   27  H   UNL     1     -14.887   3.842 -33.691  1.00  0.00     0.159 HD
HETATM   28  O   UNL     1     -12.508   3.384 -34.328  1.00  0.00    -0.266 OA
ENDBRANCH   8  24
TORSDOF 5
ENDMDL
