MODEL 1
REMARK VINA RESULT:      -8.5      0.000      0.000
REMARK  8 active torsions:
REMARK  status: ('A' for Active; 'I' for Inactive)
REMARK    1  A    between atoms: O_2  and  C_3 
REMARK    2  A    between atoms: C_5  and  N_6 
REMARK       I    between atoms: N_6  and  C_7 
REMARK    3  A    between atoms: C_7  and  C_8 
REMARK    4  A    between atoms: C_8  and  N_9 
REMARK    5  A    between atoms: C_8  and  C_25 
REMARK    6  A    between atoms: N_9  and  C_12 
REMARK    7  A    between atoms: C_12  and  C_13 
REMARK    8  A    between atoms: C_16  and  N_17 
ROOT
HETATM    1  C   UNL     1      -6.759   3.443 -32.657  1.00  0.00     0.310 C 
ENDROOT
BRANCH   1   2
HETATM    2  C   UNL     1      -6.638   4.858 -32.057  1.00  0.00     0.257 C 
HETATM    3  N   UNL     1      -5.505   5.604 -32.038  1.00  0.00    -0.325 N 
HETATM    4  H   UNL     1      -5.692   6.535 -31.669  1.00  0.00     0.169 HD
HETATM    5  O   UNL     1      -7.681   5.380 -31.626  1.00  0.00    -0.270 OA
BRANCH   3   6
HETATM    6  C   UNL     1      -4.166   5.379 -32.407  1.00  0.00     0.037 A 
HETATM    7  C   UNL     1      -3.149   4.940 -31.563  1.00  0.00     0.066 A 
HETATM    8  C   UNL     1      -1.839   4.757 -32.032  1.00  0.00     0.070 A 
HETATM    9  C   UNL     1      -1.539   5.010 -33.366  1.00  0.00     0.037 A 
HETATM   10  C   UNL     1      -2.542   5.462 -34.221  1.00  0.00     0.005 A 
HETATM   11  C   UNL     1      -3.841   5.650 -33.743  1.00  0.00     0.029 A 
BRANCH   8  12
HETATM   12  O   UNL     1      -0.958   4.324 -31.078  1.00  0.00    -0.356 OA
HETATM   13  C   UNL     1      -0.241   5.326 -30.365  1.00  0.00     0.210 C 
ENDBRANCH   8  12
ENDBRANCH   3   6
ENDBRANCH   1   2
BRANCH   1  14
HETATM   14  N   UNL     1      -8.218   3.025 -32.608  1.00  0.00    -0.054 N 
HETATM   15  H   UNL     1      -8.372   2.372 -31.831  1.00  0.00     0.278 HD
HETATM   16  H   UNL     1      -8.744   3.879 -32.361  1.00  0.00     0.278 HD
BRANCH  14  17
HETATM   17  C   UNL     1      -8.813   2.483 -33.854  1.00  0.00     0.272 C 
BRANCH  17  18
HETATM   18  C   UNL     1      -8.252   1.110 -34.092  1.00  0.00    -0.033 A 
HETATM   19  C   UNL     1      -8.453   0.094 -33.154  1.00  0.00     0.011 A 
HETATM   20  C   UNL     1      -7.780  -1.128 -33.278  1.00  0.00     0.030 A 
HETATM   21  C   UNL     1      -6.884  -1.368 -34.326  1.00  0.00     0.037 A 
HETATM   22  C   UNL     1      -6.732  -0.360 -35.289  1.00  0.00     0.030 A 
HETATM   23  C   UNL     1      -7.401   0.865 -35.174  1.00  0.00     0.011 A 
BRANCH  21  24
HETATM   24  N   UNL     1      -6.130  -2.571 -34.407  1.00  0.00    -0.318 N 
HETATM   25  C   UNL     1      -4.765  -2.712 -34.100  1.00  0.00     0.224 C 
HETATM   26  O   UNL     1      -3.986  -1.881 -33.660  1.00  0.00    -0.273 OA
HETATM   27  C   UNL     1      -4.339  -4.104 -34.504  1.00  0.00     0.105 C 
HETATM   28  C   UNL     1      -5.653  -4.851 -34.624  1.00  0.00     0.029 C 
HETATM   29  C   UNL     1      -6.635  -3.773 -35.031  1.00  0.00     0.133 C 
ENDBRANCH  21  24
ENDBRANCH  17  18
ENDBRANCH  14  17
ENDBRANCH   1  14
BRANCH   1  30
HETATM   30  C   UNL     1      -5.983   2.378 -31.901  1.00  0.00    -0.019 A 
HETATM   31  C   UNL     1      -4.860   1.784 -32.508  1.00  0.00     0.010 A 
HETATM   32  C   UNL     1      -4.180   0.740 -31.881  1.00  0.00     0.001 A 
HETATM   33  C   UNL     1      -4.619   0.264 -30.649  1.00  0.00     0.000 A 
HETATM   34  C   UNL     1      -5.737   0.829 -30.043  1.00  0.00     0.001 A 
HETATM   35  C   UNL     1      -6.421   1.875 -30.664  1.00  0.00     0.010 A 
ENDBRANCH   1  30
TORSDOF 8
ENDMDL
MODEL 2
REMARK VINA RESULT:      -8.4      1.816      5.328
REMARK  8 active torsions:
REMARK  status: ('A' for Active; 'I' for Inactive)
REMARK    1  A    between atoms: O_2  and  C_3 
REMARK    2  A    between atoms: C_5  and  N_6 
REMARK       I    between atoms: N_6  and  C_7 
REMARK    3  A    between atoms: C_7  and  C_8 
REMARK    4  A    between atoms: C_8  and  N_9 
REMARK    5  A    between atoms: C_8  and  C_25 
REMARK    6  A    between atoms: N_9  and  C_12 
REMARK    7  A    between atoms: C_12  and  C_13 
REMARK    8  A    between atoms: C_16  and  N_17 
ROOT
HETATM    1  C   UNL     1      -4.591   3.802 -32.355  1.00  0.00     0.310 C 
ENDROOT
BRANCH   1   2
HETATM    2  C   UNL     1      -5.918   4.566 -32.537  1.00  0.00     0.257 C 
HETATM    3  N   UNL     1      -7.085   4.016 -32.956  1.00  0.00    -0.325 N 
HETATM    4  H   UNL     1      -7.840   4.697 -32.914  1.00  0.00     0.169 HD
HETATM    5  O   UNL     1      -5.931   5.763 -32.200  1.00  0.00    -0.270 OA
BRANCH   3   6
HETATM    6  C   UNL     1      -7.468   2.745 -33.422  1.00  0.00     0.037 A 
HETATM    7  C   UNL     1      -8.627   2.060 -33.069  1.00  0.00     0.066 A 
HETATM    8  C   UNL     1      -8.910   0.787 -33.586  1.00  0.00     0.070 A 
HETATM    9  C   UNL     1      -8.025   0.189 -34.478  1.00  0.00     0.037 A 
HETATM   10  C   UNL     1      -6.855   0.855 -34.833  1.00  0.00     0.005 A 
HETATM   11  C   UNL     1      -6.577   2.118 -34.305  1.00  0.00     0.029 A 
BRANCH   8  12
HETATM   12  O   UNL     1     -10.086   0.248 -33.139  1.00  0.00    -0.356 OA
HETATM   13  C   UNL     1     -11.287   0.851 -33.610  1.00  0.00     0.210 C 
ENDBRANCH   8  12
ENDBRANCH   3   6
ENDBRANCH   1   2
BRANCH   1  14
HETATM   14  N   UNL     1      -4.322   3.656 -30.867  1.00  0.00    -0.054 N 
HETATM   15  H   UNL     1      -3.326   3.464 -30.707  1.00  0.00     0.278 HD
HETATM   16  H   UNL     1      -4.492   4.591 -30.462  1.00  0.00     0.278 HD
BRANCH  14  17
HETATM   17  C   UNL     1      -5.156   2.688 -30.116  1.00  0.00     0.272 C 
BRANCH  17  18
HETATM   18  C   UNL     1      -4.927   1.318 -30.689  1.00  0.00    -0.033 A 
HETATM   19  C   UNL     1      -3.653   0.935 -31.115  1.00  0.00     0.011 A 
HETATM   20  C   UNL     1      -3.471  -0.263 -31.817  1.00  0.00     0.030 A 
HETATM   21  C   UNL     1      -4.547  -1.104 -32.124  1.00  0.00     0.037 A 
HETATM   22  C   UNL     1      -5.812  -0.735 -31.645  1.00  0.00     0.030 A 
HETATM   23  C   UNL     1      -6.004   0.461 -30.942  1.00  0.00     0.011 A 
BRANCH  21  24
HETATM   24  N   UNL     1      -4.382  -2.275 -32.914  1.00  0.00    -0.318 N 
HETATM   25  C   UNL     1      -3.541  -3.362 -32.615  1.00  0.00     0.224 C 
HETATM   26  O   UNL     1      -2.851  -3.550 -31.626  1.00  0.00    -0.273 OA
HETATM   27  C   UNL     1      -3.536  -4.287 -33.809  1.00  0.00     0.105 C 
HETATM   28  C   UNL     1      -4.771  -3.869 -34.582  1.00  0.00     0.029 C 
HETATM   29  C   UNL     1      -4.909  -2.397 -34.255  1.00  0.00     0.133 C 
ENDBRANCH  21  24
ENDBRANCH  17  18
ENDBRANCH  14  17
ENDBRANCH   1  14
BRANCH   1  30
HETATM   30  C   UNL     1      -3.381   4.508 -32.942  1.00  0.00    -0.019 A 
HETATM   31  C   UNL     1      -3.395   4.884 -34.299  1.00  0.00     0.010 A 
HETATM   32  C   UNL     1      -2.267   5.452 -34.892  1.00  0.00     0.001 A 
HETATM   33  C   UNL     1      -1.106   5.636 -34.147  1.00  0.00     0.000 A 
HETATM   34  C   UNL     1      -1.071   5.255 -32.809  1.00  0.00     0.001 A 
HETATM   35  C   UNL     1      -2.196   4.689 -32.208  1.00  0.00     0.010 A 
ENDBRANCH   1  30
TORSDOF 8
ENDMDL
MODEL 3
REMARK VINA RESULT:      -8.2      2.967      5.498
REMARK  8 active torsions:
REMARK  status: ('A' for Active; 'I' for Inactive)
REMARK    1  A    between atoms: O_2  and  C_3 
REMARK    2  A    between atoms: C_5  and  N_6 
REMARK       I    between atoms: N_6  and  C_7 
REMARK    3  A    between atoms: C_7  and  C_8 
REMARK    4  A    between atoms: C_8  and  N_9 
REMARK    5  A    between atoms: C_8  and  C_25 
REMARK    6  A    between atoms: N_9  and  C_12 
REMARK    7  A    between atoms: C_12  and  C_13 
REMARK    8  A    between atoms: C_16  and  N_17 
ROOT
HETATM    1  C   UNL     1      -5.178  -0.262 -33.370  1.00  0.00     0.310 C 
ENDROOT
BRANCH   1   2
HETATM    2  C   UNL     1      -5.586   0.282 -31.986  1.00  0.00     0.257 C 
HETATM    3  N   UNL     1      -5.271   1.511 -31.506  1.00  0.00    -0.325 N 
HETATM    4  H   UNL     1      -5.724   1.675 -30.609  1.00  0.00     0.169 HD
HETATM    5  O   UNL     1      -6.327  -0.437 -31.293  1.00  0.00    -0.270 OA
BRANCH   3   6
HETATM    6  C   UNL     1      -4.475   2.577 -31.964  1.00  0.00     0.037 A 
HETATM    7  C   UNL     1      -3.238   2.953 -31.449  1.00  0.00     0.066 A 
HETATM    8  C   UNL     1      -2.528   4.044 -31.974  1.00  0.00     0.070 A 
HETATM    9  C   UNL     1      -3.060   4.770 -33.035  1.00  0.00     0.037 A 
HETATM   10  C   UNL     1      -4.303   4.415 -33.554  1.00  0.00     0.005 A 
HETATM   11  C   UNL     1      -5.006   3.333 -33.019  1.00  0.00     0.029 A 
BRANCH   8  12
HETATM   12  O   UNL     1      -1.331   4.284 -31.356  1.00  0.00    -0.356 OA
HETATM   13  C   UNL     1      -0.612   5.439 -31.777  1.00  0.00     0.210 C 
ENDBRANCH   8  12
ENDBRANCH   3   6
ENDBRANCH   1   2
BRANCH   1  14
HETATM   14  N   UNL     1      -6.431  -0.414 -34.215  1.00  0.00    -0.054 N 
HETATM   15  H   UNL     1      -6.301  -1.162 -34.905  1.00  0.00     0.278 HD
HETATM   16  H   UNL     1      -7.161  -0.756 -33.569  1.00  0.00     0.278 HD
BRANCH  14  17
HETATM   17  C   UNL     1      -6.957   0.804 -34.876  1.00  0.00     0.272 C 
BRANCH  17  18
HETATM   18  C   UNL     1      -8.310   1.112 -34.300  1.00  0.00    -0.033 A 
HETATM   19  C   UNL     1      -9.020   0.130 -33.603  1.00  0.00     0.011 A 
HETATM   20  C   UNL     1     -10.351   0.350 -33.228  1.00  0.00     0.030 A 
HETATM   21  C   UNL     1     -11.015   1.541 -33.545  1.00  0.00     0.037 A 
HETATM   22  C   UNL     1     -10.275   2.538 -34.197  1.00  0.00     0.030 A 
HETATM   23  C   UNL     1      -8.943   2.328 -34.576  1.00  0.00     0.011 A 
BRANCH  21  24
HETATM   24  N   UNL     1     -12.391   1.734 -33.247  1.00  0.00    -0.318 N 
HETATM   25  C   UNL     1     -13.432   0.831 -33.529  1.00  0.00     0.224 C 
HETATM   26  O   UNL     1     -13.368  -0.289 -34.012  1.00  0.00    -0.273 OA
HETATM   27  C   UNL     1     -14.741   1.517 -33.216  1.00  0.00     0.105 C 
HETATM   28  C   UNL     1     -14.327   2.671 -32.325  1.00  0.00     0.029 C 
HETATM   29  C   UNL     1     -12.929   3.000 -32.802  1.00  0.00     0.133 C 
ENDBRANCH  21  24
ENDBRANCH  17  18
ENDBRANCH  14  17
ENDBRANCH   1  14
BRANCH   1  30
HETATM   30  C   UNL     1      -4.520  -1.631 -33.329  1.00  0.00    -0.019 A 
HETATM   31  C   UNL     1      -4.880  -2.596 -34.290  1.00  0.00     0.010 A 
HETATM   32  C   UNL     1      -4.364  -3.890 -34.227  1.00  0.00     0.001 A 
HETATM   33  C   UNL     1      -3.497  -4.246 -33.198  1.00  0.00     0.000 A 
HETATM   34  C   UNL     1      -3.145  -3.308 -32.230  1.00  0.00     0.001 A 
HETATM   35  C   UNL     1      -3.655  -2.011 -32.289  1.00  0.00     0.010 A 
ENDBRANCH   1  30
TORSDOF 8
ENDMDL
MODEL 4
REMARK VINA RESULT:      -8.2      1.856      5.183
REMARK  8 active torsions:
REMARK  status: ('A' for Active; 'I' for Inactive)
REMARK    1  A    between atoms: O_2  and  C_3 
REMARK    2  A    between atoms: C_5  and  N_6 
REMARK       I    between atoms: N_6  and  C_7 
REMARK    3  A    between atoms: C_7  and  C_8 
REMARK    4  A    between atoms: C_8  and  N_9 
REMARK    5  A    between atoms: C_8  and  C_25 
REMARK    6  A    between atoms: N_9  and  C_12 
REMARK    7  A    between atoms: C_12  and  C_13 
REMARK    8  A    between atoms: C_16  and  N_17 
ROOT
HETATM    1  C   UNL     1      -4.539   3.913 -32.274  1.00  0.00     0.310 C 
ENDROOT
BRANCH   1   2
HETATM    2  C   UNL     1      -5.721   4.893 -32.129  1.00  0.00     0.257 C 
HETATM    3  N   UNL     1      -7.031   4.545 -32.160  1.00  0.00    -0.325 N 
HETATM    4  H   UNL     1      -7.623   5.349 -31.956  1.00  0.00     0.169 HD
HETATM    5  O   UNL     1      -5.443   6.080 -31.889  1.00  0.00    -0.270 OA
BRANCH   3   6
HETATM    6  C   UNL     1      -7.733   3.351 -32.407  1.00  0.00     0.037 A 
HETATM    7  C   UNL     1      -7.723   2.628 -33.597  1.00  0.00     0.066 A 
HETATM    8  C   UNL     1      -8.470   1.449 -33.742  1.00  0.00     0.070 A 
HETATM    9  C   UNL     1      -9.236   0.979 -32.680  1.00  0.00     0.037 A 
HETATM   10  C   UNL     1      -9.267   1.697 -31.487  1.00  0.00     0.005 A 
HETATM   11  C   UNL     1      -8.527   2.874 -31.354  1.00  0.00     0.029 A 
BRANCH   8  12
HETATM   12  O   UNL     1      -8.355   0.860 -34.972  1.00  0.00    -0.356 OA
HETATM   13  C   UNL     1      -7.148   0.151 -35.232  1.00  0.00     0.210 C 
ENDBRANCH   8  12
ENDBRANCH   3   6
ENDBRANCH   1   2
BRANCH   1  14
HETATM   14  N   UNL     1      -4.105   3.476 -30.886  1.00  0.00    -0.054 N 
HETATM   15  H   UNL     1      -3.097   3.283 -30.877  1.00  0.00     0.278 HD
HETATM   16  H   UNL     1      -4.234   4.303 -30.282  1.00  0.00     0.278 HD
BRANCH  14  17
HETATM   17  C   UNL     1      -4.845   2.352 -30.264  1.00  0.00     0.272 C 
BRANCH  17  18
HETATM   18  C   UNL     1      -4.700   1.142 -31.143  1.00  0.00    -0.033 A 
HETATM   19  C   UNL     1      -5.798   0.313 -31.388  1.00  0.00     0.011 A 
HETATM   20  C   UNL     1      -5.628  -0.910 -32.049  1.00  0.00     0.030 A 
HETATM   21  C   UNL     1      -4.367  -1.347 -32.472  1.00  0.00     0.037 A 
HETATM   22  C   UNL     1      -3.283  -0.482 -32.267  1.00  0.00     0.030 A 
HETATM   23  C   UNL     1      -3.442   0.744 -31.607  1.00  0.00     0.011 A 
BRANCH  21  24
HETATM   24  N   UNL     1      -4.175  -2.626 -33.061  1.00  0.00    -0.318 N 
HETATM   25  C   UNL     1      -3.402  -3.673 -32.528  1.00  0.00     0.224 C 
HETATM   26  O   UNL     1      -2.806  -3.724 -31.463  1.00  0.00    -0.273 OA
HETATM   27  C   UNL     1      -3.325  -4.769 -33.565  1.00  0.00     0.105 C 
HETATM   28  C   UNL     1      -4.473  -4.446 -34.501  1.00  0.00     0.029 C 
HETATM   29  C   UNL     1      -4.588  -2.939 -34.410  1.00  0.00     0.133 C 
ENDBRANCH  21  24
ENDBRANCH  17  18
ENDBRANCH  14  17
ENDBRANCH   1  14
BRANCH   1  30
HETATM   30  C   UNL     1      -3.311   4.513 -32.938  1.00  0.00    -0.019 A 
HETATM   31  C   UNL     1      -2.154   4.738 -32.168  1.00  0.00     0.010 A 
HETATM   32  C   UNL     1      -1.042   5.371 -32.723  1.00  0.00     0.001 A 
HETATM   33  C   UNL     1      -1.074   5.804 -34.045  1.00  0.00     0.000 A 
HETATM   34  C   UNL     1      -2.216   5.603 -34.815  1.00  0.00     0.001 A 
HETATM   35  C   UNL     1      -3.332   4.969 -34.267  1.00  0.00     0.010 A 
ENDBRANCH   1  30
TORSDOF 8
ENDMDL
MODEL 5
REMARK VINA RESULT:      -8.2      2.342      7.985
REMARK  8 active torsions:
REMARK  status: ('A' for Active; 'I' for Inactive)
REMARK    1  A    between atoms: O_2  and  C_3 
REMARK    2  A    between atoms: C_5  and  N_6 
REMARK       I    between atoms: N_6  and  C_7 
REMARK    3  A    between atoms: C_7  and  C_8 
REMARK    4  A    between atoms: C_8  and  N_9 
REMARK    5  A    between atoms: C_8  and  C_25 
REMARK    6  A    between atoms: N_9  and  C_12 
REMARK    7  A    between atoms: C_12  and  C_13 
REMARK    8  A    between atoms: C_16  and  N_17 
ROOT
HETATM    1  C   UNL     1      -5.666   2.200 -32.547  1.00  0.00     0.310 C 
ENDROOT
BRANCH   1   2
HETATM    2  C   UNL     1      -6.358   2.171 -31.169  1.00  0.00     0.257 C 
HETATM    3  N   UNL     1      -7.664   1.870 -30.957  1.00  0.00    -0.325 N 
HETATM    4  H   UNL     1      -7.867   1.830 -29.960  1.00  0.00     0.169 HD
HETATM    5  O   UNL     1      -5.640   2.363 -30.173  1.00  0.00    -0.270 OA
BRANCH   3   6
HETATM    6  C   UNL     1      -8.767   1.610 -31.791  1.00  0.00     0.037 A 
HETATM    7  C   UNL     1      -9.554   2.566 -32.427  1.00  0.00     0.066 A 
HETATM    8  C   UNL     1     -10.643   2.199 -33.232  1.00  0.00     0.070 A 
HETATM    9  C   UNL     1     -10.949   0.853 -33.411  1.00  0.00     0.037 A 
HETATM   10  C   UNL     1     -10.180  -0.116 -32.771  1.00  0.00     0.005 A 
HETATM   11  C   UNL     1      -9.103   0.260 -31.965  1.00  0.00     0.029 A 
BRANCH   8  12
HETATM   12  O   UNL     1     -11.315   3.256 -33.783  1.00  0.00    -0.356 OA
HETATM   13  C   UNL     1     -10.880   3.692 -35.067  1.00  0.00     0.210 C 
ENDBRANCH   8  12
ENDBRANCH   3   6
ENDBRANCH   1   2
BRANCH   1  14
HETATM   14  N   UNL     1      -6.138   3.436 -33.294  1.00  0.00    -0.054 N 
HETATM   15  H   UNL     1      -6.841   3.176 -33.995  1.00  0.00     0.278 HD
HETATM   16  H   UNL     1      -6.641   4.007 -32.596  1.00  0.00     0.278 HD
BRANCH  14  17
HETATM   17  C   UNL     1      -5.099   4.297 -33.908  1.00  0.00     0.272 C 
BRANCH  17  18
HETATM   18  C   UNL     1      -4.068   4.618 -32.864  1.00  0.00    -0.033 A 
HETATM   19  C   UNL     1      -4.411   5.382 -31.745  1.00  0.00     0.011 A 
HETATM   20  C   UNL     1      -3.419   5.839 -30.868  1.00  0.00     0.030 A 
HETATM   21  C   UNL     1      -2.064   5.561 -31.084  1.00  0.00     0.037 A 
HETATM   22  C   UNL     1      -1.739   4.749 -32.180  1.00  0.00     0.030 A 
HETATM   23  C   UNL     1      -2.724   4.287 -33.063  1.00  0.00     0.011 A 
BRANCH  21  24
HETATM   24  N   UNL     1      -1.046   6.098 -30.250  1.00  0.00    -0.318 N 
HETATM   25  C   UNL     1       0.074   5.402 -29.762  1.00  0.00     0.224 C 
HETATM   26  O   UNL     1       0.428   4.256 -29.991  1.00  0.00    -0.273 OA
HETATM   27  C   UNL     1       0.783   6.298 -28.773  1.00  0.00     0.105 C 
HETATM   28  C   UNL     1       0.241   7.676 -29.096  1.00  0.00     0.029 C 
HETATM   29  C   UNL     1      -1.153   7.393 -29.615  1.00  0.00     0.133 C 
ENDBRANCH  21  24
ENDBRANCH  17  18
ENDBRANCH  14  17
ENDBRANCH   1  14
BRANCH   1  30
HETATM   30  C   UNL     1      -5.996   1.012 -33.434  1.00  0.00    -0.019 A 
HETATM   31  C   UNL     1      -6.775   1.211 -34.590  1.00  0.00     0.010 A 
HETATM   32  C   UNL     1      -7.172   0.129 -35.376  1.00  0.00     0.001 A 
HETATM   33  C   UNL     1      -6.814  -1.165 -35.012  1.00  0.00     0.000 A 
HETATM   34  C   UNL     1      -6.057  -1.381 -33.863  1.00  0.00     0.001 A 
HETATM   35  C   UNL     1      -5.655  -0.303 -33.073  1.00  0.00     0.010 A 
ENDBRANCH   1  30
TORSDOF 8
ENDMDL
MODEL 6
REMARK VINA RESULT:      -8.2      3.401      6.280
REMARK  8 active torsions:
REMARK  status: ('A' for Active; 'I' for Inactive)
REMARK    1  A    between atoms: O_2  and  C_3 
REMARK    2  A    between atoms: C_5  and  N_6 
REMARK       I    between atoms: N_6  and  C_7 
REMARK    3  A    between atoms: C_7  and  C_8 
REMARK    4  A    between atoms: C_8  and  N_9 
REMARK    5  A    between atoms: C_8  and  C_25 
REMARK    6  A    between atoms: N_9  and  C_12 
REMARK    7  A    between atoms: C_12  and  C_13 
REMARK    8  A    between atoms: C_16  and  N_17 
ROOT
HETATM    1  C   UNL     1      -5.997   0.005 -33.817  1.00  0.00     0.310 C 
ENDROOT
BRANCH   1   2
HETATM    2  C   UNL     1      -5.971   0.312 -32.307  1.00  0.00     0.257 C 
HETATM    3  N   UNL     1      -5.488   1.450 -31.749  1.00  0.00    -0.325 N 
HETATM    4  H   UNL     1      -5.658   1.461 -30.745  1.00  0.00     0.169 HD
HETATM    5  O   UNL     1      -6.504  -0.520 -31.552  1.00  0.00    -0.270 OA
BRANCH   3   6
HETATM    6  C   UNL     1      -4.822   2.588 -32.242  1.00  0.00     0.037 A 
HETATM    7  C   UNL     1      -5.424   3.775 -32.649  1.00  0.00     0.066 A 
HETATM    8  C   UNL     1      -4.665   4.850 -33.137  1.00  0.00     0.070 A 
HETATM    9  C   UNL     1      -3.280   4.741 -33.214  1.00  0.00     0.037 A 
HETATM   10  C   UNL     1      -2.662   3.555 -32.822  1.00  0.00     0.005 A 
HETATM   11  C   UNL     1      -3.427   2.488 -32.347  1.00  0.00     0.029 A 
BRANCH   8  12
HETATM   12  O   UNL     1      -5.406   5.942 -33.497  1.00  0.00    -0.356 OA
HETATM   13  C   UNL     1      -6.709   6.047 -32.932  1.00  0.00     0.210 C 
ENDBRANCH   8  12
ENDBRANCH   3   6
ENDBRANCH   1   2
BRANCH   1  14
HETATM   14  N   UNL     1      -7.391   0.301 -34.343  1.00  0.00    -0.054 N 
HETATM   15  H   UNL     1      -7.493  -0.064 -35.296  1.00  0.00     0.278 HD
HETATM   16  H   UNL     1      -8.032  -0.261 -33.760  1.00  0.00     0.278 HD
BRANCH  14  17
HETATM   17  C   UNL     1      -7.856   1.708 -34.284  1.00  0.00     0.272 C 
BRANCH  17  18
HETATM   18  C   UNL     1      -9.352   1.710 -34.149  1.00  0.00    -0.033 A 
HETATM   19  C   UNL     1     -10.082   2.871 -34.414  1.00  0.00     0.011 A 
HETATM   20  C   UNL     1     -11.448   2.934 -34.112  1.00  0.00     0.030 A 
HETATM   21  C   UNL     1     -12.121   1.853 -33.530  1.00  0.00     0.037 A 
HETATM   22  C   UNL     1     -11.389   0.675 -33.319  1.00  0.00     0.030 A 
HETATM   23  C   UNL     1     -10.022   0.603 -33.617  1.00  0.00     0.011 A 
BRANCH  21  24
HETATM   24  N   UNL     1     -13.484   1.941 -33.138  1.00  0.00    -0.318 N 
HETATM   25  C   UNL     1     -14.573   1.334 -33.791  1.00  0.00     0.224 C 
HETATM   26  O   UNL     1     -14.570   0.584 -34.755  1.00  0.00    -0.273 OA
HETATM   27  C   UNL     1     -15.842   1.843 -33.149  1.00  0.00     0.105 C 
HETATM   28  C   UNL     1     -15.364   2.404 -31.825  1.00  0.00     0.029 C 
HETATM   29  C   UNL     1     -13.952   2.859 -32.123  1.00  0.00     0.133 C 
ENDBRANCH  21  24
ENDBRANCH  17  18
ENDBRANCH  14  17
ENDBRANCH   1  14
BRANCH   1  30
HETATM   30  C   UNL     1      -5.709  -1.446 -34.162  1.00  0.00    -0.019 A 
HETATM   31  C   UNL     1      -6.757  -2.265 -34.625  1.00  0.00     0.010 A 
HETATM   32  C   UNL     1      -6.548  -3.623 -34.863  1.00  0.00     0.001 A 
HETATM   33  C   UNL     1      -5.298  -4.187 -34.627  1.00  0.00     0.000 A 
HETATM   34  C   UNL     1      -4.255  -3.396 -34.154  1.00  0.00     0.001 A 
HETATM   35  C   UNL     1      -4.457  -2.035 -33.916  1.00  0.00     0.010 A 
ENDBRANCH   1  30
TORSDOF 8
ENDMDL
MODEL 7
REMARK VINA RESULT:      -8.1      2.602      5.764
REMARK  8 active torsions:
REMARK  status: ('A' for Active; 'I' for Inactive)
REMARK    1  A    between atoms: O_2  and  C_3 
REMARK    2  A    between atoms: C_5  and  N_6 
REMARK       I    between atoms: N_6  and  C_7 
REMARK    3  A    between atoms: C_7  and  C_8 
REMARK    4  A    between atoms: C_8  and  N_9 
REMARK    5  A    between atoms: C_8  and  C_25 
REMARK    6  A    between atoms: N_9  and  C_12 
REMARK    7  A    between atoms: C_12  and  C_13 
REMARK    8  A    between atoms: C_16  and  N_17 
ROOT
HETATM    1  C   UNL     1      -7.038   3.556 -32.529  1.00  0.00     0.310 C 
ENDROOT
BRANCH   1   2
HETATM    2  C   UNL     1      -7.387   4.800 -33.372  1.00  0.00     0.257 C 
HETATM    3  N   UNL     1      -8.629   5.124 -33.809  1.00  0.00    -0.325 N 
HETATM    4  H   UNL     1      -8.624   6.032 -34.269  1.00  0.00     0.169 HD
HETATM    5  O   UNL     1      -6.466   5.604 -33.599  1.00  0.00    -0.270 OA
BRANCH   3   6
HETATM    6  C   UNL     1      -9.887   4.496 -33.768  1.00  0.00     0.037 A 
HETATM    7  C   UNL     1     -10.744   4.455 -32.672  1.00  0.00     0.066 A 
HETATM    8  C   UNL     1     -11.978   3.789 -32.734  1.00  0.00     0.070 A 
HETATM    9  C   UNL     1     -12.367   3.159 -33.911  1.00  0.00     0.037 A 
HETATM   10  C   UNL     1     -11.516   3.180 -35.014  1.00  0.00     0.005 A 
HETATM   11  C   UNL     1     -10.286   3.837 -34.940  1.00  0.00     0.029 A 
BRANCH   8  12
HETATM   12  O   UNL     1     -12.701   3.839 -31.572  1.00  0.00    -0.356 OA
HETATM   13  C   UNL     1     -14.071   3.458 -31.653  1.00  0.00     0.210 C 
ENDBRANCH   8  12
ENDBRANCH   3   6
ENDBRANCH   1   2
BRANCH   1  14
HETATM   14  N   UNL     1      -5.540   3.549 -32.283  1.00  0.00    -0.054 N 
HETATM   15  H   UNL     1      -5.047   3.208 -33.117  1.00  0.00     0.278 HD
HETATM   16  H   UNL     1      -5.269   4.541 -32.187  1.00  0.00     0.278 HD
BRANCH  14  17
HETATM   17  C   UNL     1      -5.052   2.837 -31.077  1.00  0.00     0.272 C 
BRANCH  17  18
HETATM   18  C   UNL     1      -4.716   1.424 -31.461  1.00  0.00    -0.033 A 
HETATM   19  C   UNL     1      -3.687   1.167 -32.372  1.00  0.00     0.011 A 
HETATM   20  C   UNL     1      -3.493  -0.126 -32.873  1.00  0.00     0.030 A 
HETATM   21  C   UNL     1      -4.318  -1.192 -32.495  1.00  0.00     0.037 A 
HETATM   22  C   UNL     1      -5.312  -0.931 -31.540  1.00  0.00     0.030 A 
HETATM   23  C   UNL     1      -5.514   0.359 -31.033  1.00  0.00     0.011 A 
BRANCH  21  24
HETATM   24  N   UNL     1      -4.183  -2.485 -33.069  1.00  0.00    -0.318 N 
HETATM   25  C   UNL     1      -3.403  -3.538 -32.558  1.00  0.00     0.224 C 
HETATM   26  O   UNL     1      -2.753  -3.583 -31.525  1.00  0.00    -0.273 OA
HETATM   27  C   UNL     1      -3.404  -4.653 -33.577  1.00  0.00     0.105 C 
HETATM   28  C   UNL     1      -4.592  -4.323 -34.458  1.00  0.00     0.029 C 
HETATM   29  C   UNL     1      -4.673  -2.813 -34.389  1.00  0.00     0.133 C 
ENDBRANCH  21  24
ENDBRANCH  17  18
ENDBRANCH  14  17
ENDBRANCH   1  14
BRANCH   1  30
HETATM   30  C   UNL     1      -7.368   2.236 -33.204  1.00  0.00    -0.019 A 
HETATM   31  C   UNL     1      -6.704   1.888 -34.396  1.00  0.00     0.010 A 
HETATM   32  C   UNL     1      -7.048   0.727 -35.090  1.00  0.00     0.001 A 
HETATM   33  C   UNL     1      -8.068  -0.092 -34.615  1.00  0.00     0.000 A 
HETATM   34  C   UNL     1      -8.746   0.247 -33.447  1.00  0.00     0.001 A 
HETATM   35  C   UNL     1      -8.405   1.405 -32.747  1.00  0.00     0.010 A 
ENDBRANCH   1  30
TORSDOF 8
ENDMDL
MODEL 8
REMARK VINA RESULT:      -8.0      2.889      5.999
REMARK  8 active torsions:
REMARK  status: ('A' for Active; 'I' for Inactive)
REMARK    1  A    between atoms: O_2  and  C_3 
REMARK    2  A    between atoms: C_5  and  N_6 
REMARK       I    between atoms: N_6  and  C_7 
REMARK    3  A    between atoms: C_7  and  C_8 
REMARK    4  A    between atoms: C_8  and  N_9 
REMARK    5  A    between atoms: C_8  and  C_25 
REMARK    6  A    between atoms: N_9  and  C_12 
REMARK    7  A    between atoms: C_12  and  C_13 
REMARK    8  A    between atoms: C_16  and  N_17 
ROOT
HETATM    1  C   UNL     1      -4.995  -0.682 -33.490  1.00  0.00     0.310 C 
ENDROOT
BRANCH   1   2
HETATM    2  C   UNL     1      -4.077  -0.682 -32.251  1.00  0.00     0.257 C 
HETATM    3  N   UNL     1      -3.694   0.423 -31.564  1.00  0.00    -0.325 N 
HETATM    4  H   UNL     1      -3.161   0.166 -30.735  1.00  0.00     0.169 HD
HETATM    5  O   UNL     1      -3.725  -1.789 -31.809  1.00  0.00    -0.270 OA
BRANCH   3   6
HETATM    6  C   UNL     1      -3.868   1.808 -31.740  1.00  0.00     0.037 A 
HETATM    7  C   UNL     1      -3.172   2.611 -32.641  1.00  0.00     0.066 A 
HETATM    8  C   UNL     1      -3.416   3.990 -32.730  1.00  0.00     0.070 A 
HETATM    9  C   UNL     1      -4.375   4.578 -31.912  1.00  0.00     0.037 A 
HETATM   10  C   UNL     1      -5.072   3.792 -30.997  1.00  0.00     0.005 A 
HETATM   11  C   UNL     1      -4.816   2.422 -30.908  1.00  0.00     0.029 A 
BRANCH   8  12
HETATM   12  O   UNL     1      -2.649   4.635 -33.661  1.00  0.00    -0.356 OA
HETATM   13  C   UNL     1      -3.342   5.324 -34.697  1.00  0.00     0.210 C 
ENDBRANCH   8  12
ENDBRANCH   3   6
ENDBRANCH   1   2
BRANCH   1  14
HETATM   14  N   UNL     1      -6.337  -0.093 -33.092  1.00  0.00    -0.054 N 
HETATM   15  H   UNL     1      -7.050  -0.831 -33.057  1.00  0.00     0.278 HD
HETATM   16  H   UNL     1      -6.222   0.227 -32.117  1.00  0.00     0.278 HD
BRANCH  14  17
HETATM   17  C   UNL     1      -6.836   1.059 -33.881  1.00  0.00     0.272 C 
BRANCH  17  18
HETATM   18  C   UNL     1      -8.316   1.185 -33.658  1.00  0.00    -0.033 A 
HETATM   19  C   UNL     1      -9.016   0.178 -32.988  1.00  0.00     0.011 A 
HETATM   20  C   UNL     1     -10.416   0.200 -32.940  1.00  0.00     0.030 A 
HETATM   21  C   UNL     1     -11.155   1.212 -33.564  1.00  0.00     0.037 A 
HETATM   22  C   UNL     1     -10.439   2.244 -34.187  1.00  0.00     0.030 A 
HETATM   23  C   UNL     1      -9.039   2.231 -34.240  1.00  0.00     0.011 A 
BRANCH  21  24
HETATM   24  N   UNL     1     -12.576   1.191 -33.597  1.00  0.00    -0.318 N 
HETATM   25  C   UNL     1     -13.430   2.165 -33.048  1.00  0.00     0.224 C 
HETATM   26  O   UNL     1     -13.143   3.220 -32.505  1.00  0.00    -0.273 OA
HETATM   27  C   UNL     1     -14.846   1.650 -33.147  1.00  0.00     0.105 C 
HETATM   28  C   UNL     1     -14.748   0.550 -34.186  1.00  0.00     0.029 C 
HETATM   29  C   UNL     1     -13.335   0.035 -34.020  1.00  0.00     0.133 C 
ENDBRANCH  21  24
ENDBRANCH  17  18
ENDBRANCH  14  17
ENDBRANCH   1  14
BRANCH   1  30
HETATM   30  C   UNL     1      -5.284  -2.065 -34.049  1.00  0.00    -0.019 A 
HETATM   31  C   UNL     1      -6.614  -2.428 -34.336  1.00  0.00     0.010 A 
HETATM   32  C   UNL     1      -6.923  -3.719 -34.764  1.00  0.00     0.001 A 
HETATM   33  C   UNL     1      -5.915  -4.670 -34.894  1.00  0.00     0.000 A 
HETATM   34  C   UNL     1      -4.597  -4.332 -34.599  1.00  0.00     0.001 A 
HETATM   35  C   UNL     1      -4.280  -3.042 -34.173  1.00  0.00     0.010 A 
ENDBRANCH   1  30
TORSDOF 8
ENDMDL
MODEL 9
REMARK VINA RESULT:      -8.0      2.269      3.648
REMARK  8 active torsions:
REMARK  status: ('A' for Active; 'I' for Inactive)
REMARK    1  A    between atoms: O_2  and  C_3 
REMARK    2  A    between atoms: C_5  and  N_6 
REMARK       I    between atoms: N_6  and  C_7 
REMARK    3  A    between atoms: C_7  and  C_8 
REMARK    4  A    between atoms: C_8  and  N_9 
REMARK    5  A    between atoms: C_8  and  C_25 
REMARK    6  A    between atoms: N_9  and  C_12 
REMARK    7  A    between atoms: C_12  and  C_13 
REMARK    8  A    between atoms: C_16  and  N_17 
ROOT
HETATM    1  C   UNL     1      -5.069   4.248 -31.952  1.00  0.00     0.310 C 
ENDROOT
BRANCH   1   2
HETATM    2  C   UNL     1      -5.757   5.521 -31.420  1.00  0.00     0.257 C 
HETATM    3  N   UNL     1      -5.118   6.660 -31.056  1.00  0.00    -0.325 N 
HETATM    4  H   UNL     1      -5.787   7.391 -30.822  1.00  0.00     0.169 HD
HETATM    5  O   UNL     1      -7.000   5.523 -31.398  1.00  0.00    -0.270 OA
BRANCH   3   6
HETATM    6  C   UNL     1      -3.769   7.042 -30.935  1.00  0.00     0.037 A 
HETATM    7  C   UNL     1      -2.921   6.723 -29.877  1.00  0.00     0.066 A 
HETATM    8  C   UNL     1      -1.590   7.166 -29.849  1.00  0.00     0.070 A 
HETATM    9  C   UNL     1      -1.093   7.934 -30.896  1.00  0.00     0.037 A 
HETATM   10  C   UNL     1      -1.931   8.273 -31.956  1.00  0.00     0.005 A 
HETATM   11  C   UNL     1      -3.257   7.836 -31.971  1.00  0.00     0.029 A 
BRANCH   8  12
HETATM   12  O   UNL     1      -0.891   6.769 -28.741  1.00  0.00    -0.356 OA
HETATM   13  C   UNL     1       0.450   7.235 -28.628  1.00  0.00     0.210 C 
ENDBRANCH   8  12
ENDBRANCH   3   6
ENDBRANCH   1   2
BRANCH   1  14
HETATM   14  N   UNL     1      -4.354   3.570 -30.795  1.00  0.00    -0.054 N 
HETATM   15  H   UNL     1      -3.401   3.309 -31.075  1.00  0.00     0.278 HD
HETATM   16  H   UNL     1      -4.240   4.300 -30.074  1.00  0.00     0.278 HD
BRANCH  14  17
HETATM   17  C   UNL     1      -5.033   2.417 -30.158  1.00  0.00     0.272 C 
BRANCH  17  18
HETATM   18  C   UNL     1      -4.881   1.221 -31.053  1.00  0.00    -0.033 A 
HETATM   19  C   UNL     1      -5.954   0.347 -31.252  1.00  0.00     0.011 A 
HETATM   20  C   UNL     1      -5.766  -0.863 -31.931  1.00  0.00     0.030 A 
HETATM   21  C   UNL     1      -4.511  -1.243 -32.420  1.00  0.00     0.037 A 
HETATM   22  C   UNL     1      -3.455  -0.334 -32.261  1.00  0.00     0.030 A 
HETATM   23  C   UNL     1      -3.632   0.879 -31.584  1.00  0.00     0.011 A 
BRANCH  21  24
HETATM   24  N   UNL     1      -4.295  -2.509 -33.029  1.00  0.00    -0.318 N 
HETATM   25  C   UNL     1      -3.446  -3.522 -32.550  1.00  0.00     0.224 C 
HETATM   26  O   UNL     1      -2.789  -3.552 -31.520  1.00  0.00    -0.273 OA
HETATM   27  C   UNL     1      -3.379  -4.607 -33.598  1.00  0.00     0.105 C 
HETATM   28  C   UNL     1      -4.592  -4.332 -34.465  1.00  0.00     0.029 C 
HETATM   29  C   UNL     1      -4.770  -2.833 -34.356  1.00  0.00     0.133 C 
ENDBRANCH  21  24
ENDBRANCH  17  18
ENDBRANCH  14  17
ENDBRANCH   1  14
BRANCH   1  30
HETATM   30  C   UNL     1      -4.014   4.508 -33.014  1.00  0.00    -0.019 A 
HETATM   31  C   UNL     1      -2.656   4.314 -32.697  1.00  0.00     0.010 A 
HETATM   32  C   UNL     1      -1.657   4.630 -33.618  1.00  0.00     0.001 A 
HETATM   33  C   UNL     1      -1.997   5.161 -34.859  1.00  0.00     0.000 A 
HETATM   34  C   UNL     1      -3.334   5.375 -35.182  1.00  0.00     0.001 A 
HETATM   35  C   UNL     1      -4.339   5.058 -34.266  1.00  0.00     0.010 A 
ENDBRANCH   1  30
TORSDOF 8
ENDMDL
MODEL 10
REMARK VINA RESULT:      -7.9      2.075      7.017
REMARK  8 active torsions:
REMARK  status: ('A' for Active; 'I' for Inactive)
REMARK    1  A    between atoms: O_2  and  C_3 
REMARK    2  A    between atoms: C_5  and  N_6 
REMARK       I    between atoms: N_6  and  C_7 
REMARK    3  A    between atoms: C_7  and  C_8 
REMARK    4  A    between atoms: C_8  and  N_9 
REMARK    5  A    between atoms: C_8  and  C_25 
REMARK    6  A    between atoms: N_9  and  C_12 
REMARK    7  A    between atoms: C_12  and  C_13 
REMARK    8  A    between atoms: C_16  and  N_17 
ROOT
HETATM    1  C   UNL     1      -8.203   2.888 -32.306  1.00  0.00     0.310 C 
ENDROOT
BRANCH   1   2
HETATM    2  C   UNL     1      -7.186   3.268 -33.401  1.00  0.00     0.257 C 
HETATM    3  N   UNL     1      -6.455   2.387 -34.128  1.00  0.00    -0.325 N 
HETATM    4  H   UNL     1      -5.921   2.869 -34.848  1.00  0.00     0.169 HD
HETATM    5  O   UNL     1      -7.091   4.474 -33.688  1.00  0.00    -0.270 OA
BRANCH   3   6
HETATM    6  C   UNL     1      -6.278   0.992 -34.104  1.00  0.00     0.037 A 
HETATM    7  C   UNL     1      -5.390   0.295 -33.289  1.00  0.00     0.066 A 
HETATM    8  C   UNL     1      -5.284  -1.103 -33.352  1.00  0.00     0.070 A 
HETATM    9  C   UNL     1      -6.081  -1.819 -34.239  1.00  0.00     0.037 A 
HETATM   10  C   UNL     1      -6.966  -1.136 -35.071  1.00  0.00     0.005 A 
HETATM   11  C   UNL     1      -7.058   0.256 -35.007  1.00  0.00     0.029 A 
BRANCH   8  12
HETATM   12  O   UNL     1      -4.365  -1.635 -32.488  1.00  0.00    -0.356 OA
HETATM   13  C   UNL     1      -3.576  -0.713 -31.744  1.00  0.00     0.210 C 
ENDBRANCH   8  12
ENDBRANCH   3   6
ENDBRANCH   1   2
BRANCH   1  14
HETATM   14  N   UNL     1      -7.468   2.135 -31.210  1.00  0.00    -0.054 N 
HETATM   15  H   UNL     1      -8.013   1.315 -30.920  1.00  0.00     0.278 HD
HETATM   16  H   UNL     1      -6.616   1.757 -31.657  1.00  0.00     0.278 HD
BRANCH  14  17
HETATM   17  C   UNL     1      -7.040   2.909 -30.021  1.00  0.00     0.272 C 
BRANCH  17  18
HETATM   18  C   UNL     1      -5.780   3.652 -30.364  1.00  0.00    -0.033 A 
HETATM   19  C   UNL     1      -5.755   5.049 -30.339  1.00  0.00     0.011 A 
HETATM   20  C   UNL     1      -4.648   5.747 -30.835  1.00  0.00     0.030 A 
HETATM   21  C   UNL     1      -3.543   5.080 -31.378  1.00  0.00     0.037 A 
HETATM   22  C   UNL     1      -3.557   3.678 -31.348  1.00  0.00     0.030 A 
HETATM   23  C   UNL     1      -4.661   2.970 -30.854  1.00  0.00     0.011 A 
BRANCH  21  24
HETATM   24  N   UNL     1      -2.456   5.783 -31.965  1.00  0.00    -0.318 N 
HETATM   25  C   UNL     1      -2.432   6.336 -33.258  1.00  0.00     0.224 C 
HETATM   26  O   UNL     1      -3.323   6.381 -34.092  1.00  0.00    -0.273 OA
HETATM   27  C   UNL     1      -1.027   6.821 -33.530  1.00  0.00     0.105 C 
HETATM   28  C   UNL     1      -0.413   6.909 -32.147  1.00  0.00     0.029 C 
HETATM   29  C   UNL     1      -1.139   5.832 -31.370  1.00  0.00     0.133 C 
ENDBRANCH  21  24
ENDBRANCH  17  18
ENDBRANCH  14  17
ENDBRANCH   1  14
BRANCH   1  30
HETATM   30  C   UNL     1      -9.317   1.971 -32.783  1.00  0.00    -0.019 A 
HETATM   31  C   UNL     1     -10.377   2.511 -33.535  1.00  0.00     0.010 A 
HETATM   32  C   UNL     1     -11.460   1.716 -33.911  1.00  0.00     0.001 A 
HETATM   33  C   UNL     1     -11.510   0.380 -33.527  1.00  0.00     0.000 A 
HETATM   34  C   UNL     1     -10.478  -0.165 -32.769  1.00  0.00     0.001 A 
HETATM   35  C   UNL     1      -9.390   0.623 -32.392  1.00  0.00     0.010 A 
ENDBRANCH   1  30
TORSDOF 8
ENDMDL
