MODEL 1
REMARK VINA RESULT:      -8.8      0.000      0.000
REMARK  9 active torsions:
REMARK  status: ('A' for Active; 'I' for Inactive)
REMARK    1  A    between atoms: C_3  and  N_4 
REMARK       I    between atoms: N_4  and  C_5 
REMARK    2  A    between atoms: C_5  and  C_6 
REMARK    3  A    between atoms: C_6  and  O_7 
REMARK    4  A    between atoms: O_7  and  C_8 
REMARK    5  A    between atoms: C_8  and  C_9 
REMARK    6  A    between atoms: C_9  and  N_10 
REMARK    7  A    between atoms: C_9  and  C_18 
REMARK       I    between atoms: N_10  and  C_11 
REMARK    8  A    between atoms: C_11  and  C_12 
REMARK    9  A    between atoms: C_18  and  C_19 
ROOT
HETATM    1  C   UNL     1      -7.843   1.249 -32.519  1.00  0.00     0.189 C 
ENDROOT
BRANCH   1   2
HETATM    2  C   UNL     1      -7.254   2.314 -31.580  1.00  0.00     0.282 C 
HETATM    3  O   UNL     1      -7.495   3.517 -31.643  1.00  0.00    -0.263 OA
BRANCH   2   4
HETATM    4  O   UNL     1      -6.445   1.749 -30.646  1.00  0.00    -0.311 OA
BRANCH   4   5
HETATM    5  C   UNL     1      -5.369   2.554 -30.171  1.00  0.00     0.281 C 
BRANCH   5   6
HETATM    6  C   UNL     1      -4.191   2.800 -31.132  1.00  0.00     0.246 C 
HETATM    7  N   UNL     1      -4.198   4.070 -31.682  1.00  0.00    -0.324 N 
HETATM    8  H   UNL     1      -5.053   4.600 -31.522  1.00  0.00     0.169 HD
HETATM    9  O   UNL     1      -3.424   1.887 -31.430  1.00  0.00    -0.271 OA
BRANCH   7  10
HETATM   10  C   UNL     1      -3.332   4.578 -32.677  1.00  0.00     0.046 A 
HETATM   11  C   UNL     1      -3.887   4.796 -33.964  1.00  0.00    -0.035 A 
HETATM   12  C   UNL     1      -5.319   4.459 -34.289  1.00  0.00     0.050 C 
HETATM   13  C   UNL     1      -3.082   5.309 -34.993  1.00  0.00     0.009 A 
HETATM   14  C   UNL     1      -1.744   5.604 -34.764  1.00  0.00     0.001 A 
HETATM   15  C   UNL     1      -1.204   5.415 -33.497  1.00  0.00     0.009 A 
HETATM   16  C   UNL     1      -1.988   4.931 -32.432  1.00  0.00    -0.035 A 
HETATM   17  C   UNL     1      -1.333   4.883 -31.079  1.00  0.00     0.050 C 
ENDBRANCH   7  10
ENDBRANCH   5   6
ENDBRANCH   4   5
ENDBRANCH   2   4
ENDBRANCH   1   2
BRANCH   1  18
HETATM   18  N   UNL     1      -9.198   1.614 -32.924  1.00  0.00    -0.341 N 
HETATM   19  C   UNL     1     -10.184   0.653 -33.027  1.00  0.00     0.276 C 
HETATM   20  O   UNL     1     -10.039  -0.478 -32.572  1.00  0.00    -0.265 OA
HETATM   21  H   UNL     1      -9.347   2.458 -33.469  1.00  0.00     0.163 HD
BRANCH  19  22
HETATM   22  C   UNL     1     -11.367   1.077 -33.744  1.00  0.00     0.142 A 
HETATM   23  O   UNL     1     -11.275   2.087 -34.668  1.00  0.00    -0.317 OA
HETATM   24  C   UNL     1     -12.513   2.250 -35.204  1.00  0.00     0.143 A 
HETATM   25  C   UNL     1     -13.405   1.369 -34.641  1.00  0.00     0.027 A 
HETATM   26  C   UNL     1     -12.668   0.612 -33.700  1.00  0.00     0.045 A 
ENDBRANCH  19  22
ENDBRANCH   1  18
BRANCH   1  27
HETATM   27  C   UNL     1      -6.893   1.134 -33.728  1.00  0.00     0.074 C 
BRANCH  27  28
HETATM   28  C   UNL     1      -6.286  -0.232 -33.972  1.00  0.00    -0.056 A 
HETATM   29  C   UNL     1      -4.981  -0.491 -33.527  1.00  0.00     0.007 A 
HETATM   30  C   UNL     1      -4.402  -1.749 -33.703  1.00  0.00     0.001 A 
HETATM   31  C   UNL     1      -5.125  -2.766 -34.319  1.00  0.00     0.000 A 
HETATM   32  C   UNL     1      -6.427  -2.526 -34.754  1.00  0.00     0.001 A 
HETATM   33  C   UNL     1      -7.008  -1.269 -34.576  1.00  0.00     0.007 A 
ENDBRANCH  27  28
ENDBRANCH   1  27
TORSDOF 9
ENDMDL
MODEL 2
REMARK VINA RESULT:      -8.6      1.509      2.130
REMARK  9 active torsions:
REMARK  status: ('A' for Active; 'I' for Inactive)
REMARK    1  A    between atoms: C_3  and  N_4 
REMARK       I    between atoms: N_4  and  C_5 
REMARK    2  A    between atoms: C_5  and  C_6 
REMARK    3  A    between atoms: C_6  and  O_7 
REMARK    4  A    between atoms: O_7  and  C_8 
REMARK    5  A    between atoms: C_8  and  C_9 
REMARK    6  A    between atoms: C_9  and  N_10 
REMARK    7  A    between atoms: C_9  and  C_18 
REMARK       I    between atoms: N_10  and  C_11 
REMARK    8  A    between atoms: C_11  and  C_12 
REMARK    9  A    between atoms: C_18  and  C_19 
ROOT
HETATM    1  C   UNL     1      -7.192  -0.303 -33.348  1.00  0.00     0.189 C 
ENDROOT
BRANCH   1   2
HETATM    2  C   UNL     1      -6.185   0.201 -32.302  1.00  0.00     0.282 C 
HETATM    3  O   UNL     1      -5.905  -0.382 -31.258  1.00  0.00    -0.263 OA
BRANCH   2   4
HETATM    4  O   UNL     1      -5.616   1.371 -32.695  1.00  0.00    -0.311 OA
BRANCH   4   5
HETATM    5  C   UNL     1      -4.415   1.747 -32.025  1.00  0.00     0.281 C 
BRANCH   5   6
HETATM    6  C   UNL     1      -4.053   3.245 -32.009  1.00  0.00     0.246 C 
HETATM    7  N   UNL     1      -2.979   3.550 -32.826  1.00  0.00    -0.324 N 
HETATM    8  H   UNL     1      -2.471   2.743 -33.184  1.00  0.00     0.169 HD
HETATM    9  O   UNL     1      -4.622   4.017 -31.242  1.00  0.00    -0.271 OA
BRANCH   7  10
HETATM   10  C   UNL     1      -2.328   4.798 -32.955  1.00  0.00     0.046 A 
HETATM   11  C   UNL     1      -2.746   5.635 -34.021  1.00  0.00    -0.035 A 
HETATM   12  C   UNL     1      -3.797   5.209 -35.013  1.00  0.00     0.050 C 
HETATM   13  C   UNL     1      -2.146   6.892 -34.197  1.00  0.00     0.009 A 
HETATM   14  C   UNL     1      -1.144   7.325 -33.337  1.00  0.00     0.001 A 
HETATM   15  C   UNL     1      -0.752   6.517 -32.276  1.00  0.00     0.009 A 
HETATM   16  C   UNL     1      -1.351   5.263 -32.050  1.00  0.00    -0.035 A 
HETATM   17  C   UNL     1      -0.935   4.531 -30.803  1.00  0.00     0.050 C 
ENDBRANCH   7  10
ENDBRANCH   5   6
ENDBRANCH   4   5
ENDBRANCH   2   4
ENDBRANCH   1   2
BRANCH   1  18
HETATM   18  N   UNL     1      -8.127   0.757 -33.714  1.00  0.00    -0.341 N 
HETATM   19  C   UNL     1      -9.461   0.670 -33.368  1.00  0.00     0.276 C 
HETATM   20  O   UNL     1      -9.869  -0.159 -32.560  1.00  0.00    -0.265 OA
HETATM   21  H   UNL     1      -7.915   1.359 -34.504  1.00  0.00     0.163 HD
BRANCH  19  22
HETATM   22  C   UNL     1     -10.326   1.598 -34.062  1.00  0.00     0.142 A 
HETATM   23  O   UNL     1      -9.883   2.868 -34.330  1.00  0.00    -0.317 OA
HETATM   24  C   UNL     1     -10.874   3.500 -35.013  1.00  0.00     0.143 A 
HETATM   25  C   UNL     1     -11.950   2.664 -35.188  1.00  0.00     0.027 A 
HETATM   26  C   UNL     1     -11.600   1.438 -34.576  1.00  0.00     0.045 A 
ENDBRANCH  19  22
ENDBRANCH   1  18
BRANCH   1  27
HETATM   27  C   UNL     1      -6.378  -0.797 -34.561  1.00  0.00     0.074 C 
BRANCH  27  28
HETATM   28  C   UNL     1      -5.901  -2.233 -34.505  1.00  0.00    -0.056 A 
HETATM   29  C   UNL     1      -6.799  -3.266 -34.815  1.00  0.00     0.007 A 
HETATM   30  C   UNL     1      -6.386  -4.599 -34.808  1.00  0.00     0.001 A 
HETATM   31  C   UNL     1      -5.066  -4.916 -34.499  1.00  0.00     0.000 A 
HETATM   32  C   UNL     1      -4.161  -3.899 -34.203  1.00  0.00     0.001 A 
HETATM   33  C   UNL     1      -4.572  -2.565 -34.212  1.00  0.00     0.007 A 
ENDBRANCH  27  28
ENDBRANCH   1  27
TORSDOF 9
ENDMDL
MODEL 3
REMARK VINA RESULT:      -8.5      1.491      2.397
REMARK  9 active torsions:
REMARK  status: ('A' for Active; 'I' for Inactive)
REMARK    1  A    between atoms: C_3  and  N_4 
REMARK       I    between atoms: N_4  and  C_5 
REMARK    2  A    between atoms: C_5  and  C_6 
REMARK    3  A    between atoms: C_6  and  O_7 
REMARK    4  A    between atoms: O_7  and  C_8 
REMARK    5  A    between atoms: C_8  and  C_9 
REMARK    6  A    between atoms: C_9  and  N_10 
REMARK    7  A    between atoms: C_9  and  C_18 
REMARK       I    between atoms: N_10  and  C_11 
REMARK    8  A    between atoms: C_11  and  C_12 
REMARK    9  A    between atoms: C_18  and  C_19 
ROOT
HETATM    1  C   UNL     1      -7.338  -0.282 -33.413  1.00  0.00     0.189 C 
ENDROOT
BRANCH   1   2
HETATM    2  C   UNL     1      -6.380   0.545 -32.540  1.00  0.00     0.282 C 
HETATM    3  O   UNL     1      -6.370   0.544 -31.312  1.00  0.00    -0.263 OA
BRANCH   2   4
HETATM    4  O   UNL     1      -5.520   1.267 -33.305  1.00  0.00    -0.311 OA
BRANCH   4   5
HETATM    5  C   UNL     1      -5.534   2.679 -33.113  1.00  0.00     0.281 C 
BRANCH   5   6
HETATM    6  C   UNL     1      -4.220   3.345 -32.661  1.00  0.00     0.246 C 
HETATM    7  N   UNL     1      -4.199   4.710 -32.887  1.00  0.00    -0.324 N 
HETATM    8  H   UNL     1      -4.960   5.058 -33.468  1.00  0.00     0.169 HD
HETATM    9  O   UNL     1      -3.282   2.664 -32.255  1.00  0.00    -0.271 OA
BRANCH   7  10
HETATM   10  C   UNL     1      -3.114   5.594 -32.693  1.00  0.00     0.046 A 
HETATM   11  C   UNL     1      -3.045   6.263 -31.444  1.00  0.00    -0.035 A 
HETATM   12  C   UNL     1      -4.099   6.092 -30.381  1.00  0.00     0.050 C 
HETATM   13  C   UNL     1      -1.986   7.147 -31.184  1.00  0.00     0.009 A 
HETATM   14  C   UNL     1      -1.004   7.375 -32.140  1.00  0.00     0.001 A 
HETATM   15  C   UNL     1      -1.055   6.700 -33.355  1.00  0.00     0.009 A 
HETATM   16  C   UNL     1      -2.086   5.784 -33.640  1.00  0.00    -0.035 A 
HETATM   17  C   UNL     1      -1.973   5.022 -34.932  1.00  0.00     0.050 C 
ENDBRANCH   7  10
ENDBRANCH   5   6
ENDBRANCH   4   5
ENDBRANCH   2   4
ENDBRANCH   1   2
BRANCH   1  18
HETATM   18  N   UNL     1      -8.488   0.521 -33.817  1.00  0.00    -0.341 N 
HETATM   19  C   UNL     1      -9.641   0.531 -33.056  1.00  0.00     0.276 C 
HETATM   20  O   UNL     1      -9.673   0.068 -31.919  1.00  0.00    -0.265 OA
HETATM   21  H   UNL     1      -8.603   0.775 -34.793  1.00  0.00     0.163 HD
BRANCH  19  22
HETATM   22  C   UNL     1     -10.798   1.086 -33.723  1.00  0.00     0.142 A 
HETATM   23  O   UNL     1     -10.653   2.181 -34.535  1.00  0.00    -0.317 OA
HETATM   24  C   UNL     1     -11.879   2.461 -35.050  1.00  0.00     0.143 A 
HETATM   25  C   UNL     1     -12.816   1.570 -34.583  1.00  0.00     0.027 A 
HETATM   26  C   UNL     1     -12.121   0.683 -33.727  1.00  0.00     0.045 A 
ENDBRANCH  19  22
ENDBRANCH   1  18
BRANCH   1  27
HETATM   27  C   UNL     1      -6.528  -0.780 -34.627  1.00  0.00     0.074 C 
BRANCH  27  28
HETATM   28  C   UNL     1      -5.978  -2.187 -34.531  1.00  0.00    -0.056 A 
HETATM   29  C   UNL     1      -6.810  -3.271 -34.850  1.00  0.00     0.007 A 
HETATM   30  C   UNL     1      -6.327  -4.580 -34.807  1.00  0.00     0.001 A 
HETATM   31  C   UNL     1      -5.003  -4.821 -34.452  1.00  0.00     0.000 A 
HETATM   32  C   UNL     1      -4.162  -3.753 -34.147  1.00  0.00     0.001 A 
HETATM   33  C   UNL     1      -4.643  -2.442 -34.192  1.00  0.00     0.007 A 
ENDBRANCH  27  28
ENDBRANCH   1  27
TORSDOF 9
ENDMDL
MODEL 4
REMARK VINA RESULT:      -8.4      1.750      7.605
REMARK  9 active torsions:
REMARK  status: ('A' for Active; 'I' for Inactive)
REMARK    1  A    between atoms: C_3  and  N_4 
REMARK       I    between atoms: N_4  and  C_5 
REMARK    2  A    between atoms: C_5  and  C_6 
REMARK    3  A    between atoms: C_6  and  O_7 
REMARK    4  A    between atoms: O_7  and  C_8 
REMARK    5  A    between atoms: C_8  and  C_9 
REMARK    6  A    between atoms: C_9  and  N_10 
REMARK    7  A    between atoms: C_9  and  C_18 
REMARK       I    between atoms: N_10  and  C_11 
REMARK    8  A    between atoms: C_11  and  C_12 
REMARK    9  A    between atoms: C_18  and  C_19 
ROOT
HETATM    1  C   UNL     1      -5.815   3.211 -32.302  1.00  0.00     0.189 C 
ENDROOT
BRANCH   1   2
HETATM    2  C   UNL     1      -6.569   3.645 -31.035  1.00  0.00     0.282 C 
HETATM    3  O   UNL     1      -6.321   3.251 -29.898  1.00  0.00    -0.263 OA
BRANCH   2   4
HETATM    4  O   UNL     1      -7.539   4.550 -31.329  1.00  0.00    -0.311 OA
BRANCH   4   5
HETATM    5  C   UNL     1      -8.312   4.293 -32.499  1.00  0.00     0.281 C 
BRANCH   5   6
HETATM    6  C   UNL     1      -9.558   3.401 -32.341  1.00  0.00     0.246 C 
HETATM    7  N   UNL     1      -9.936   2.786 -33.523  1.00  0.00    -0.324 N 
HETATM    8  H   UNL     1      -9.461   3.132 -34.355  1.00  0.00     0.169 HD
HETATM    9  O   UNL     1     -10.176   3.370 -31.281  1.00  0.00    -0.271 OA
BRANCH   7  10
HETATM   10  C   UNL     1     -11.087   1.998 -33.749  1.00  0.00     0.046 A 
HETATM   11  C   UNL     1     -12.153   2.606 -34.461  1.00  0.00    -0.035 A 
HETATM   12  C   UNL     1     -12.099   4.041 -34.918  1.00  0.00     0.050 C 
HETATM   13  C   UNL     1     -13.321   1.874 -34.727  1.00  0.00     0.009 A 
HETATM   14  C   UNL     1     -13.444   0.559 -34.298  1.00  0.00     0.001 A 
HETATM   15  C   UNL     1     -12.391  -0.047 -33.623  1.00  0.00     0.009 A 
HETATM   16  C   UNL     1     -11.192   0.645 -33.364  1.00  0.00    -0.035 A 
HETATM   17  C   UNL     1     -10.077  -0.146 -32.737  1.00  0.00     0.050 C 
ENDBRANCH   7  10
ENDBRANCH   5   6
ENDBRANCH   4   5
ENDBRANCH   2   4
ENDBRANCH   1   2
BRANCH   1  18
HETATM   18  N   UNL     1      -4.629   4.039 -32.502  1.00  0.00    -0.341 N 
HETATM   19  C   UNL     1      -4.434   4.713 -33.692  1.00  0.00     0.276 C 
HETATM   20  O   UNL     1      -5.329   4.835 -34.523  1.00  0.00    -0.265 OA
HETATM   21  H   UNL     1      -3.791   3.852 -31.959  1.00  0.00     0.163 HD
BRANCH  19  22
HETATM   22  C   UNL     1      -3.092   5.215 -33.887  1.00  0.00     0.142 A 
HETATM   23  O   UNL     1      -2.456   5.869 -32.863  1.00  0.00    -0.317 OA
HETATM   24  C   UNL     1      -1.214   6.194 -33.308  1.00  0.00     0.143 A 
HETATM   25  C   UNL     1      -1.035   5.766 -34.601  1.00  0.00     0.027 A 
HETATM   26  C   UNL     1      -2.244   5.135 -34.977  1.00  0.00     0.045 A 
ENDBRANCH  19  22
ENDBRANCH   1  18
BRANCH   1  27
HETATM   27  C   UNL     1      -5.455   1.722 -32.127  1.00  0.00     0.074 C 
BRANCH  27  28
HETATM   28  C   UNL     1      -6.071   0.765 -33.126  1.00  0.00    -0.056 A 
HETATM   29  C   UNL     1      -6.687   1.280 -34.277  1.00  0.00     0.007 A 
HETATM   30  C   UNL     1      -7.234   0.427 -35.237  1.00  0.00     0.001 A 
HETATM   31  C   UNL     1      -7.164  -0.952 -35.062  1.00  0.00     0.000 A 
HETATM   32  C   UNL     1      -6.542  -1.477 -33.931  1.00  0.00     0.001 A 
HETATM   33  C   UNL     1      -5.992  -0.624 -32.971  1.00  0.00     0.007 A 
ENDBRANCH  27  28
ENDBRANCH   1  27
TORSDOF 9
ENDMDL
MODEL 5
REMARK VINA RESULT:      -8.3      1.447      4.719
REMARK  9 active torsions:
REMARK  status: ('A' for Active; 'I' for Inactive)
REMARK    1  A    between atoms: C_3  and  N_4 
REMARK       I    between atoms: N_4  and  C_5 
REMARK    2  A    between atoms: C_5  and  C_6 
REMARK    3  A    between atoms: C_6  and  O_7 
REMARK    4  A    between atoms: O_7  and  C_8 
REMARK    5  A    between atoms: C_8  and  C_9 
REMARK    6  A    between atoms: C_9  and  N_10 
REMARK    7  A    between atoms: C_9  and  C_18 
REMARK       I    between atoms: N_10  and  C_11 
REMARK    8  A    between atoms: C_11  and  C_12 
REMARK    9  A    between atoms: C_18  and  C_19 
ROOT
HETATM    1  C   UNL     1      -8.288   1.029 -32.934  1.00  0.00     0.189 C 
ENDROOT
BRANCH   1   2
HETATM    2  C   UNL     1      -7.937   1.963 -31.766  1.00  0.00     0.282 C 
HETATM    3  O   UNL     1      -8.332   3.120 -31.648  1.00  0.00    -0.263 OA
BRANCH   2   4
HETATM    4  O   UNL     1      -7.148   1.334 -30.856  1.00  0.00    -0.311 OA
BRANCH   4   5
HETATM    5  C   UNL     1      -5.944   2.005 -30.490  1.00  0.00     0.281 C 
BRANCH   5   6
HETATM    6  C   UNL     1      -4.920   2.281 -31.607  1.00  0.00     0.246 C 
HETATM    7  N   UNL     1      -4.665   3.630 -31.785  1.00  0.00    -0.324 N 
HETATM    8  H   UNL     1      -5.300   4.254 -31.291  1.00  0.00     0.169 HD
HETATM    9  O   UNL     1      -4.497   1.366 -32.308  1.00  0.00    -0.271 OA
BRANCH   7  10
HETATM   10  C   UNL     1      -3.868   4.225 -32.789  1.00  0.00     0.046 A 
HETATM   11  C   UNL     1      -4.521   4.597 -33.993  1.00  0.00    -0.035 A 
HETATM   12  C   UNL     1      -5.985   4.330 -34.228  1.00  0.00     0.050 C 
HETATM   13  C   UNL     1      -3.788   5.203 -35.025  1.00  0.00     0.009 A 
HETATM   14  C   UNL     1      -2.427   5.441 -34.881  1.00  0.00     0.001 A 
HETATM   15  C   UNL     1      -1.790   5.101 -33.692  1.00  0.00     0.009 A 
HETATM   16  C   UNL     1      -2.498   4.519 -32.623  1.00  0.00    -0.035 A 
HETATM   17  C   UNL     1      -1.736   4.308 -31.344  1.00  0.00     0.050 C 
ENDBRANCH   7  10
ENDBRANCH   5   6
ENDBRANCH   4   5
ENDBRANCH   2   4
ENDBRANCH   1   2
BRANCH   1  18
HETATM   18  N   UNL     1      -7.257   0.008 -33.103  1.00  0.00    -0.341 N 
HETATM   19  C   UNL     1      -6.843  -0.371 -34.365  1.00  0.00     0.276 C 
HETATM   20  O   UNL     1      -7.139   0.274 -35.367  1.00  0.00    -0.265 OA
HETATM   21  H   UNL     1      -7.102  -0.672 -32.366  1.00  0.00     0.163 HD
BRANCH  19  22
HETATM   22  C   UNL     1      -6.079  -1.598 -34.405  1.00  0.00     0.142 A 
HETATM   23  O   UNL     1      -6.636  -2.728 -34.947  1.00  0.00    -0.317 OA
HETATM   24  C   UNL     1      -5.695  -3.706 -34.885  1.00  0.00     0.143 A 
HETATM   25  C   UNL     1      -4.541  -3.232 -34.309  1.00  0.00     0.027 A 
HETATM   26  C   UNL     1      -4.786  -1.874 -33.999  1.00  0.00     0.045 A 
ENDBRANCH  19  22
ENDBRANCH   1  18
BRANCH   1  27
HETATM   27  C   UNL     1      -9.665   0.410 -32.622  1.00  0.00     0.074 C 
BRANCH  27  28
HETATM   28  C   UNL     1     -10.829   0.921 -33.446  1.00  0.00    -0.056 A 
HETATM   29  C   UNL     1     -10.655   2.064 -34.242  1.00  0.00     0.007 A 
HETATM   30  C   UNL     1     -11.694   2.542 -35.041  1.00  0.00     0.001 A 
HETATM   31  C   UNL     1     -12.918   1.880 -35.061  1.00  0.00     0.000 A 
HETATM   32  C   UNL     1     -13.099   0.736 -34.287  1.00  0.00     0.001 A 
HETATM   33  C   UNL     1     -12.059   0.254 -33.489  1.00  0.00     0.007 A 
ENDBRANCH  27  28
ENDBRANCH   1  27
TORSDOF 9
ENDMDL
MODEL 6
REMARK VINA RESULT:      -8.1      1.832      6.687
REMARK  9 active torsions:
REMARK  status: ('A' for Active; 'I' for Inactive)
REMARK    1  A    between atoms: C_3  and  N_4 
REMARK       I    between atoms: N_4  and  C_5 
REMARK    2  A    between atoms: C_5  and  C_6 
REMARK    3  A    between atoms: C_6  and  O_7 
REMARK    4  A    between atoms: O_7  and  C_8 
REMARK    5  A    between atoms: C_8  and  C_9 
REMARK    6  A    between atoms: C_9  and  N_10 
REMARK    7  A    between atoms: C_9  and  C_18 
REMARK       I    between atoms: N_10  and  C_11 
REMARK    8  A    between atoms: C_11  and  C_12 
REMARK    9  A    between atoms: C_18  and  C_19 
ROOT
HETATM    1  C   UNL     1      -5.484   1.035 -32.106  1.00  0.00     0.189 C 
ENDROOT
BRANCH   1   2
HETATM    2  C   UNL     1      -6.211   1.061 -30.752  1.00  0.00     0.282 C 
HETATM    3  O   UNL     1      -5.661   0.978 -29.657  1.00  0.00    -0.263 OA
BRANCH   2   4
HETATM    4  O   UNL     1      -7.551   1.215 -30.918  1.00  0.00    -0.311 OA
BRANCH   4   5
HETATM    5  C   UNL     1      -8.048   2.549 -30.849  1.00  0.00     0.281 C 
BRANCH   5   6
HETATM    6  C   UNL     1      -9.344   2.862 -31.620  1.00  0.00     0.246 C 
HETATM    7  N   UNL     1      -9.291   2.474 -32.947  1.00  0.00    -0.324 N 
HETATM    8  H   UNL     1      -8.367   2.201 -33.276  1.00  0.00     0.169 HD
HETATM    9  O   UNL     1     -10.251   3.497 -31.088  1.00  0.00    -0.271 OA
BRANCH   7  10
HETATM   10  C   UNL     1     -10.259   2.712 -33.949  1.00  0.00     0.046 A 
HETATM   11  C   UNL     1     -11.230   1.700 -34.160  1.00  0.00    -0.035 A 
HETATM   12  C   UNL     1     -11.215   0.400 -33.398  1.00  0.00     0.050 C 
HETATM   13  C   UNL     1     -12.225   1.880 -35.134  1.00  0.00     0.009 A 
HETATM   14  C   UNL     1     -12.268   3.042 -35.895  1.00  0.00     0.001 A 
HETATM   15  C   UNL     1     -11.333   4.046 -35.671  1.00  0.00     0.009 A 
HETATM   16  C   UNL     1     -10.338   3.914 -34.683  1.00  0.00    -0.035 A 
HETATM   17  C   UNL     1      -9.460   5.112 -34.445  1.00  0.00     0.050 C 
ENDBRANCH   7  10
ENDBRANCH   5   6
ENDBRANCH   4   5
ENDBRANCH   2   4
ENDBRANCH   1   2
BRANCH   1  18
HETATM   18  N   UNL     1      -4.616   2.201 -32.245  1.00  0.00    -0.341 N 
HETATM   19  C   UNL     1      -4.983   3.259 -33.052  1.00  0.00     0.276 C 
HETATM   20  O   UNL     1      -6.123   3.376 -33.492  1.00  0.00    -0.265 OA
HETATM   21  H   UNL     1      -3.620   2.106 -32.068  1.00  0.00     0.163 HD
BRANCH  19  22
HETATM   22  C   UNL     1      -3.911   4.180 -33.362  1.00  0.00     0.142 A 
HETATM   23  O   UNL     1      -4.189   5.344 -34.033  1.00  0.00    -0.317 OA
HETATM   24  C   UNL     1      -3.018   6.022 -34.156  1.00  0.00     0.143 A 
HETATM   25  C   UNL     1      -1.987   5.318 -33.581  1.00  0.00     0.027 A 
HETATM   26  C   UNL     1      -2.561   4.130 -33.069  1.00  0.00     0.045 A 
ENDBRANCH  19  22
ENDBRANCH   1  18
BRANCH   1  27
HETATM   27  C   UNL     1      -4.691  -0.285 -32.170  1.00  0.00     0.074 C 
BRANCH  27  28
HETATM   28  C   UNL     1      -5.177  -1.308 -33.175  1.00  0.00    -0.056 A 
HETATM   29  C   UNL     1      -4.297  -2.310 -33.614  1.00  0.00     0.007 A 
HETATM   30  C   UNL     1      -4.721  -3.290 -34.512  1.00  0.00     0.001 A 
HETATM   31  C   UNL     1      -6.032  -3.286 -34.978  1.00  0.00     0.000 A 
HETATM   32  C   UNL     1      -6.920  -2.306 -34.540  1.00  0.00     0.001 A 
HETATM   33  C   UNL     1      -6.499  -1.326 -33.638  1.00  0.00     0.007 A 
ENDBRANCH  27  28
ENDBRANCH   1  27
TORSDOF 9
ENDMDL
MODEL 7
REMARK VINA RESULT:      -8.1      1.276      2.358
REMARK  9 active torsions:
REMARK  status: ('A' for Active; 'I' for Inactive)
REMARK    1  A    between atoms: C_3  and  N_4 
REMARK       I    between atoms: N_4  and  C_5 
REMARK    2  A    between atoms: C_5  and  C_6 
REMARK    3  A    between atoms: C_6  and  O_7 
REMARK    4  A    between atoms: O_7  and  C_8 
REMARK    5  A    between atoms: C_8  and  C_9 
REMARK    6  A    between atoms: C_9  and  N_10 
REMARK    7  A    between atoms: C_9  and  C_18 
REMARK       I    between atoms: N_10  and  C_11 
REMARK    8  A    between atoms: C_11  and  C_12 
REMARK    9  A    between atoms: C_18  and  C_19 
ROOT
HETATM    1  C   UNL     1      -7.599   0.798 -33.316  1.00  0.00     0.189 C 
ENDROOT
BRANCH   1   2
HETATM    2  C   UNL     1      -6.664   1.895 -32.782  1.00  0.00     0.282 C 
HETATM    3  O   UNL     1      -5.685   1.698 -32.067  1.00  0.00    -0.263 OA
BRANCH   2   4
HETATM    4  O   UNL     1      -7.045   3.122 -33.226  1.00  0.00    -0.311 OA
BRANCH   4   5
HETATM    5  C   UNL     1      -6.190   3.742 -34.183  1.00  0.00     0.281 C 
BRANCH   5   6
HETATM    6  C   UNL     1      -5.272   4.874 -33.683  1.00  0.00     0.246 C 
HETATM    7  N   UNL     1      -4.054   4.414 -33.213  1.00  0.00    -0.324 N 
HETATM    8  H   UNL     1      -3.995   3.403 -33.097  1.00  0.00     0.169 HD
HETATM    9  O   UNL     1      -5.679   6.031 -33.626  1.00  0.00    -0.271 OA
BRANCH   7  10
HETATM   10  C   UNL     1      -3.036   5.169 -32.587  1.00  0.00     0.046 A 
HETATM   11  C   UNL     1      -1.916   5.522 -33.382  1.00  0.00    -0.035 A 
HETATM   12  C   UNL     1      -1.774   5.076 -34.814  1.00  0.00     0.050 C 
HETATM   13  C   UNL     1      -0.875   6.281 -32.823  1.00  0.00     0.009 A 
HETATM   14  C   UNL     1      -0.932   6.689 -31.496  1.00  0.00     0.001 A 
HETATM   15  C   UNL     1      -2.041   6.367 -30.723  1.00  0.00     0.009 A 
HETATM   16  C   UNL     1      -3.118   5.633 -31.257  1.00  0.00    -0.035 A 
HETATM   17  C   UNL     1      -4.317   5.449 -30.368  1.00  0.00     0.050 C 
ENDBRANCH   7  10
ENDBRANCH   5   6
ENDBRANCH   4   5
ENDBRANCH   2   4
ENDBRANCH   1   2
BRANCH   1  18
HETATM   18  N   UNL     1      -8.928   1.341 -33.581  1.00  0.00    -0.341 N 
HETATM   19  C   UNL     1     -10.060   0.617 -33.259  1.00  0.00     0.276 C 
HETATM   20  O   UNL     1     -10.012  -0.380 -32.544  1.00  0.00    -0.265 OA
HETATM   21  H   UNL     1      -9.046   2.045 -34.303  1.00  0.00     0.163 HD
BRANCH  19  22
HETATM   22  C   UNL     1     -11.280   1.106 -33.864  1.00  0.00     0.142 A 
HETATM   23  O   UNL     1     -11.224   2.141 -34.762  1.00  0.00    -0.317 OA
HETATM   24  C   UNL     1     -12.495   2.365 -35.190  1.00  0.00     0.143 A 
HETATM   25  C   UNL     1     -13.371   1.497 -34.583  1.00  0.00     0.027 A 
HETATM   26  C   UNL     1     -12.590   0.685 -33.728  1.00  0.00     0.045 A 
ENDBRANCH  19  22
ENDBRANCH   1  18
BRANCH   1  27
HETATM   27  C   UNL     1      -6.945   0.227 -34.591  1.00  0.00     0.074 C 
BRANCH  27  28
HETATM   28  C   UNL     1      -6.248  -1.109 -34.442  1.00  0.00    -0.056 A 
HETATM   29  C   UNL     1      -6.893  -2.272 -34.889  1.00  0.00     0.007 A 
HETATM   30  C   UNL     1      -6.266  -3.516 -34.801  1.00  0.00     0.001 A 
HETATM   31  C   UNL     1      -4.983  -3.611 -34.272  1.00  0.00     0.000 A 
HETATM   32  C   UNL     1      -4.325  -2.463 -33.837  1.00  0.00     0.001 A 
HETATM   33  C   UNL     1      -4.949  -1.217 -33.927  1.00  0.00     0.007 A 
ENDBRANCH  27  28
ENDBRANCH   1  27
TORSDOF 9
ENDMDL
MODEL 8
REMARK VINA RESULT:      -8.1      1.981      8.202
REMARK  9 active torsions:
REMARK  status: ('A' for Active; 'I' for Inactive)
REMARK    1  A    between atoms: C_3  and  N_4 
REMARK       I    between atoms: N_4  and  C_5 
REMARK    2  A    between atoms: C_5  and  C_6 
REMARK    3  A    between atoms: C_6  and  O_7 
REMARK    4  A    between atoms: O_7  and  C_8 
REMARK    5  A    between atoms: C_8  and  C_9 
REMARK    6  A    between atoms: C_9  and  N_10 
REMARK    7  A    between atoms: C_9  and  C_18 
REMARK       I    between atoms: N_10  and  C_11 
REMARK    8  A    between atoms: C_11  and  C_12 
REMARK    9  A    between atoms: C_18  and  C_19 
ROOT
HETATM    1  C   UNL     1      -4.323   3.566 -33.251  1.00  0.00     0.189 C 
ENDROOT
BRANCH   1   2
HETATM    2  C   UNL     1      -5.412   4.436 -33.900  1.00  0.00     0.282 C 
HETATM    3  O   UNL     1      -5.235   5.567 -34.344  1.00  0.00    -0.263 OA
BRANCH   2   4
HETATM    4  O   UNL     1      -6.601   3.779 -33.945  1.00  0.00    -0.311 OA
BRANCH   4   5
HETATM    5  C   UNL     1      -7.770   4.572 -33.752  1.00  0.00     0.281 C 
BRANCH   5   6
HETATM    6  C   UNL     1      -9.055   3.843 -33.317  1.00  0.00     0.246 C 
HETATM    7  N   UNL     1      -9.449   2.862 -34.211  1.00  0.00    -0.324 N 
HETATM    8  H   UNL     1      -8.953   2.870 -35.101  1.00  0.00     0.169 HD
HETATM    9  O   UNL     1      -9.683   4.217 -32.330  1.00  0.00    -0.271 OA
BRANCH   7  10
HETATM   10  C   UNL     1     -10.633   2.091 -34.169  1.00  0.00     0.046 A 
HETATM   11  C   UNL     1     -11.743   2.574 -34.909  1.00  0.00    -0.035 A 
HETATM   12  C   UNL     1     -11.697   3.875 -35.667  1.00  0.00     0.050 C 
HETATM   13  C   UNL     1     -12.944   1.849 -34.917  1.00  0.00     0.009 A 
HETATM   14  C   UNL     1     -13.059   0.661 -34.206  1.00  0.00     0.001 A 
HETATM   15  C   UNL     1     -11.964   0.172 -33.502  1.00  0.00     0.009 A 
HETATM   16  C   UNL     1     -10.733   0.856 -33.494  1.00  0.00    -0.035 A 
HETATM   17  C   UNL     1      -9.585   0.173 -32.803  1.00  0.00     0.050 C 
ENDBRANCH   7  10
ENDBRANCH   5   6
ENDBRANCH   4   5
ENDBRANCH   2   4
ENDBRANCH   1   2
BRANCH   1  18
HETATM   18  N   UNL     1      -3.389   4.393 -32.492  1.00  0.00    -0.341 N 
HETATM   19  C   UNL     1      -2.168   4.749 -33.030  1.00  0.00     0.276 C 
HETATM   20  O   UNL     1      -1.911   4.592 -34.220  1.00  0.00    -0.265 OA
HETATM   21  H   UNL     1      -3.446   4.410 -31.478  1.00  0.00     0.163 HD
BRANCH  19  22
HETATM   22  C   UNL     1      -1.219   5.274 -32.073  1.00  0.00     0.142 A 
HETATM   23  O   UNL     1      -0.810   4.492 -31.023  1.00  0.00    -0.317 OA
HETATM   24  C   UNL     1       0.096   5.217 -30.316  1.00  0.00     0.143 A 
HETATM   25  C   UNL     1       0.279   6.454 -30.886  1.00  0.00     0.027 A 
HETATM   26  C   UNL     1      -0.568   6.493 -32.019  1.00  0.00     0.045 A 
ENDBRANCH  19  22
ENDBRANCH   1  18
BRANCH   1  27
HETATM   27  C   UNL     1      -5.040   2.536 -32.355  1.00  0.00     0.074 C 
BRANCH  27  28
HETATM   28  C   UNL     1      -4.840   1.080 -32.719  1.00  0.00    -0.056 A 
HETATM   29  C   UNL     1      -5.838   0.413 -33.446  1.00  0.00     0.007 A 
HETATM   30  C   UNL     1      -5.672  -0.919 -33.831  1.00  0.00     0.001 A 
HETATM   31  C   UNL     1      -4.504  -1.598 -33.499  1.00  0.00     0.000 A 
HETATM   32  C   UNL     1      -3.499  -0.943 -32.789  1.00  0.00     0.001 A 
HETATM   33  C   UNL     1      -3.662   0.390 -32.407  1.00  0.00     0.007 A 
ENDBRANCH  27  28
ENDBRANCH   1  27
TORSDOF 9
ENDMDL
MODEL 9
REMARK VINA RESULT:      -7.8      2.982      7.816
REMARK  9 active torsions:
REMARK  status: ('A' for Active; 'I' for Inactive)
REMARK    1  A    between atoms: C_3  and  N_4 
REMARK       I    between atoms: N_4  and  C_5 
REMARK    2  A    between atoms: C_5  and  C_6 
REMARK    3  A    between atoms: C_6  and  O_7 
REMARK    4  A    between atoms: O_7  and  C_8 
REMARK    5  A    between atoms: C_8  and  C_9 
REMARK    6  A    between atoms: C_9  and  N_10 
REMARK    7  A    between atoms: C_9  and  C_18 
REMARK       I    between atoms: N_10  and  C_11 
REMARK    8  A    between atoms: C_11  and  C_12 
REMARK    9  A    between atoms: C_18  and  C_19 
ROOT
HETATM    1  C   UNL     1      -3.802   4.016 -32.430  1.00  0.00     0.189 C 
ENDROOT
BRANCH   1   2
HETATM    2  C   UNL     1      -3.886   2.796 -31.499  1.00  0.00     0.282 C 
HETATM    3  O   UNL     1      -2.990   1.970 -31.339  1.00  0.00    -0.263 OA
BRANCH   2   4
HETATM    4  O   UNL     1      -5.078   2.758 -30.848  1.00  0.00    -0.311 OA
BRANCH   4   5
HETATM    5  C   UNL     1      -6.144   2.088 -31.517  1.00  0.00     0.281 C 
BRANCH   5   6
HETATM    6  C   UNL     1      -6.017   0.563 -31.701  1.00  0.00     0.246 C 
HETATM    7  N   UNL     1      -5.317   0.213 -32.843  1.00  0.00    -0.324 N 
HETATM    8  H   UNL     1      -5.136   0.982 -33.486  1.00  0.00     0.169 HD
HETATM    9  O   UNL     1      -6.596  -0.209 -30.942  1.00  0.00    -0.271 OA
BRANCH   7  10
HETATM   10  C   UNL     1      -5.118  -1.087 -33.360  1.00  0.00     0.046 A 
HETATM   11  C   UNL     1      -6.000  -1.513 -34.386  1.00  0.00    -0.035 A 
HETATM   12  C   UNL     1      -7.135  -0.654 -34.879  1.00  0.00     0.050 C 
HETATM   13  C   UNL     1      -5.849  -2.790 -34.950  1.00  0.00     0.009 A 
HETATM   14  C   UNL     1      -4.843  -3.643 -34.511  1.00  0.00     0.001 A 
HETATM   15  C   UNL     1      -3.962  -3.217 -33.523  1.00  0.00     0.009 A 
HETATM   16  C   UNL     1      -4.064  -1.932 -32.956  1.00  0.00    -0.035 A 
HETATM   17  C   UNL     1      -2.983  -1.535 -31.987  1.00  0.00     0.050 C 
ENDBRANCH   7  10
ENDBRANCH   5   6
ENDBRANCH   4   5
ENDBRANCH   2   4
ENDBRANCH   1   2
BRANCH   1  18
HETATM   18  N   UNL     1      -4.190   5.231 -31.719  1.00  0.00    -0.341 N 
HETATM   19  C   UNL     1      -4.932   6.210 -32.352  1.00  0.00     0.276 C 
HETATM   20  O   UNL     1      -5.485   6.011 -33.430  1.00  0.00    -0.265 OA
HETATM   21  H   UNL     1      -3.643   5.540 -30.921  1.00  0.00     0.163 HD
BRANCH  19  22
HETATM   22  C   UNL     1      -4.964   7.481 -31.663  1.00  0.00     0.142 A 
HETATM   23  O   UNL     1      -3.794   8.045 -31.224  1.00  0.00    -0.317 OA
HETATM   24  C   UNL     1      -4.115   9.236 -30.653  1.00  0.00     0.143 A 
HETATM   25  C   UNL     1      -5.470   9.451 -30.711  1.00  0.00     0.027 A 
HETATM   26  C   UNL     1      -6.020   8.322 -31.362  1.00  0.00     0.045 A 
ENDBRANCH  19  22
ENDBRANCH   1  18
BRANCH   1  27
HETATM   27  C   UNL     1      -2.352   4.091 -32.950  1.00  0.00     0.074 C 
BRANCH  27  28
HETATM   28  C   UNL     1      -1.443   5.080 -32.251  1.00  0.00    -0.056 A 
HETATM   29  C   UNL     1      -0.820   4.708 -31.050  1.00  0.00     0.007 A 
HETATM   30  C   UNL     1       0.052   5.580 -30.397  1.00  0.00     0.001 A 
HETATM   31  C   UNL     1       0.319   6.833 -30.941  1.00  0.00     0.000 A 
HETATM   32  C   UNL     1      -0.282   7.210 -32.140  1.00  0.00     0.001 A 
HETATM   33  C   UNL     1      -1.152   6.337 -32.797  1.00  0.00     0.007 A 
ENDBRANCH  27  28
ENDBRANCH   1  27
TORSDOF 9
ENDMDL
MODEL 10
REMARK VINA RESULT:      -7.8      1.574      7.672
REMARK  9 active torsions:
REMARK  status: ('A' for Active; 'I' for Inactive)
REMARK    1  A    between atoms: C_3  and  N_4 
REMARK       I    between atoms: N_4  and  C_5 
REMARK    2  A    between atoms: C_5  and  C_6 
REMARK    3  A    between atoms: C_6  and  O_7 
REMARK    4  A    between atoms: O_7  and  C_8 
REMARK    5  A    between atoms: C_8  and  C_9 
REMARK    6  A    between atoms: C_9  and  N_10 
REMARK    7  A    between atoms: C_9  and  C_18 
REMARK       I    between atoms: N_10  and  C_11 
REMARK    8  A    between atoms: C_11  and  C_12 
REMARK    9  A    between atoms: C_18  and  C_19 
ROOT
HETATM    1  C   UNL     1      -5.376   2.084 -32.591  1.00  0.00     0.189 C 
ENDROOT
BRANCH   1   2
HETATM    2  C   UNL     1      -6.279   2.596 -31.458  1.00  0.00     0.282 C 
HETATM    3  O   UNL     1      -6.443   2.032 -30.379  1.00  0.00    -0.263 OA
BRANCH   2   4
HETATM    4  O   UNL     1      -6.860   3.778 -31.792  1.00  0.00    -0.311 OA
BRANCH   4   5
HETATM    5  C   UNL     1      -7.666   3.778 -32.968  1.00  0.00     0.281 C 
BRANCH   5   6
HETATM    6  C   UNL     1      -9.125   3.304 -32.826  1.00  0.00     0.246 C 
HETATM    7  N   UNL     1      -9.522   2.462 -33.850  1.00  0.00    -0.324 N 
HETATM    8  H   UNL     1      -8.875   2.408 -34.635  1.00  0.00     0.169 HD
HETATM    9  O   UNL     1      -9.845   3.753 -31.939  1.00  0.00    -0.271 OA
BRANCH   7  10
HETATM   10  C   UNL     1     -10.817   1.943 -34.079  1.00  0.00     0.046 A 
HETATM   11  C   UNL     1     -11.124   0.693 -33.483  1.00  0.00    -0.035 A 
HETATM   12  C   UNL     1     -10.113  -0.086 -32.682  1.00  0.00     0.050 C 
HETATM   13  C   UNL     1     -12.396   0.128 -33.663  1.00  0.00     0.009 A 
HETATM   14  C   UNL     1     -13.359   0.781 -34.423  1.00  0.00     0.001 A 
HETATM   15  C   UNL     1     -13.069   2.018 -34.986  1.00  0.00     0.009 A 
HETATM   16  C   UNL     1     -11.814   2.630 -34.802  1.00  0.00    -0.035 A 
HETATM   17  C   UNL     1     -11.654   4.021 -35.353  1.00  0.00     0.050 C 
ENDBRANCH   7  10
ENDBRANCH   5   6
ENDBRANCH   4   5
ENDBRANCH   2   4
ENDBRANCH   1   2
BRANCH   1  18
HETATM   18  N   UNL     1      -4.284   3.021 -32.841  1.00  0.00    -0.341 N 
HETATM   19  C   UNL     1      -3.189   3.066 -32.000  1.00  0.00     0.276 C 
HETATM   20  O   UNL     1      -2.974   2.191 -31.166  1.00  0.00    -0.265 OA
HETATM   21  H   UNL     1      -4.462   3.864 -33.378  1.00  0.00     0.163 HD
BRANCH  19  22
HETATM   22  C   UNL     1      -2.357   4.238 -32.157  1.00  0.00     0.142 A 
HETATM   23  O   UNL     1      -1.989   4.963 -31.053  1.00  0.00    -0.317 OA
HETATM   24  C   UNL     1      -1.191   5.974 -31.487  1.00  0.00     0.143 A 
HETATM   25  C   UNL     1      -1.038   5.918 -32.852  1.00  0.00     0.027 A 
HETATM   26  C   UNL     1      -1.788   4.800 -33.286  1.00  0.00     0.045 A 
ENDBRANCH  19  22
ENDBRANCH   1  18
BRANCH   1  27
HETATM   27  C   UNL     1      -4.858   0.695 -32.165  1.00  0.00     0.074 C 
BRANCH  27  28
HETATM   28  C   UNL     1      -5.251  -0.465 -33.054  1.00  0.00    -0.056 A 
HETATM   29  C   UNL     1      -6.523  -0.475 -33.646  1.00  0.00     0.007 A 
HETATM   30  C   UNL     1      -6.907  -1.510 -34.499  1.00  0.00     0.001 A 
HETATM   31  C   UNL     1      -6.021  -2.546 -34.778  1.00  0.00     0.000 A 
HETATM   32  C   UNL     1      -4.749  -2.542 -34.208  1.00  0.00     0.001 A 
HETATM   33  C   UNL     1      -4.362  -1.505 -33.357  1.00  0.00     0.007 A 
ENDBRANCH  27  28
ENDBRANCH   1  27
TORSDOF 9
ENDMDL
