MODEL 1
REMARK VINA RESULT:      -8.6      0.000      0.000
REMARK  4 active torsions:
REMARK  status: ('A' for Active; 'I' for Inactive)
REMARK    1  A    between atoms: C_2  and  C_3 
REMARK    2  A    between atoms: C_6  and  C_7 
REMARK    3  A    between atoms: C_10  and  N_11 
REMARK    4  A    between atoms: N_11  and  C_12 
ROOT
HETATM    1  C   UNL     1      -8.933   0.457 -33.319  1.00  0.00     0.076 C 
HETATM    2  C   UNL     1      -8.943   1.402 -34.501  1.00  0.00     0.144 C 
HETATM    3  S   UNL     1     -10.315   2.566 -34.459  1.00  0.00    -0.087 SA
HETATM    4  C   UNL     1     -11.560   1.469 -34.008  1.00  0.00     0.157 C 
HETATM    5  N   UNL     1     -11.257   0.406 -33.277  1.00  0.00    -0.257 N 
HETATM    6  H   UNL     1     -12.055  -0.149 -32.982  1.00  0.00     0.191 HD
HETATM    7  N   UNL     1     -10.007  -0.040 -32.772  1.00  0.00    -0.176 NA
ENDROOT
BRANCH   1   8
HETATM    8  C   UNL     1      -7.654  -0.058 -32.815  1.00  0.00     0.019 A 
HETATM    9  C   UNL     1      -6.736  -0.985 -33.437  1.00  0.00     0.005 A 
HETATM   10  C   UNL     1      -5.623  -1.111 -32.600  1.00  0.00     0.049 A 
HETATM   11  C   UNL     1      -6.739  -1.720 -34.644  1.00  0.00     0.014 A 
HETATM   12  C   UNL     1      -4.499  -1.904 -32.908  1.00  0.00    -0.031 A 
HETATM   13  N   UNL     1      -5.866  -0.333 -31.493  1.00  0.00    -0.364 N 
HETATM   14  C   UNL     1      -4.553  -2.620 -34.116  1.00  0.00     0.009 A 
HETATM   15  C   UNL     1      -5.649  -2.533 -34.967  1.00  0.00     0.002 A 
HETATM   16  C   UNL     1      -7.070   0.307 -31.613  1.00  0.00     0.102 A 
HETATM   17  H   UNL     1      -5.230  -0.243 -30.712  1.00  0.00     0.165 HD
BRANCH  12  18
HETATM   18  C   UNL     1      -3.287  -2.027 -32.016  1.00  0.00     0.036 C 
HETATM   19  C   UNL     1      -2.920  -3.479 -31.754  1.00  0.00     0.010 C 
ENDBRANCH  12  18
ENDBRANCH   1   8
BRANCH   4  20
HETATM   20  N   UNL     1     -12.768   1.788 -34.431  1.00  0.00    -0.365 N 
HETATM   21  H   UNL     1     -12.941   1.490 -35.388  1.00  0.00     0.162 HD
BRANCH  20  22
HETATM   22  C   UNL     1     -13.811   2.516 -33.705  1.00  0.00     0.083 C 
HETATM   23  C   UNL     1     -14.752   1.531 -33.023  1.00  0.00     0.025 C 
HETATM   24  C   UNL     1     -15.363   2.362 -31.910  1.00  0.00     0.002 C 
HETATM   25  C   UNL     1     -14.190   3.176 -31.381  1.00  0.00     0.002 C 
HETATM   26  C   UNL     1     -13.230   3.343 -32.560  1.00  0.00     0.025 C 
ENDBRANCH  20  22
ENDBRANCH   4  20
TORSDOF 4
ENDMDL
MODEL 2
REMARK VINA RESULT:      -8.6      5.278      8.340
REMARK  4 active torsions:
REMARK  status: ('A' for Active; 'I' for Inactive)
REMARK    1  A    between atoms: C_2  and  C_3 
REMARK    2  A    between atoms: C_6  and  C_7 
REMARK    3  A    between atoms: C_10  and  N_11 
REMARK    4  A    between atoms: N_11  and  C_12 
ROOT
HETATM    1  C   UNL     1      -3.954   1.845 -32.226  1.00  0.00     0.076 C 
HETATM    2  C   UNL     1      -4.920   2.912 -32.694  1.00  0.00     0.144 C 
HETATM    3  S   UNL     1      -4.151   4.531 -32.864  1.00  0.00    -0.087 SA
HETATM    4  C   UNL     1      -3.245   4.532 -31.402  1.00  0.00     0.157 C 
HETATM    5  N   UNL     1      -2.821   3.382 -30.898  1.00  0.00    -0.257 N 
HETATM    6  H   UNL     1      -2.225   3.470 -30.081  1.00  0.00     0.191 HD
HETATM    7  N   UNL     1      -3.001   2.052 -31.361  1.00  0.00    -0.176 NA
ENDROOT
BRANCH   1   8
HETATM    8  C   UNL     1      -4.153   0.453 -32.650  1.00  0.00     0.019 A 
HETATM    9  C   UNL     1      -5.220  -0.114 -33.441  1.00  0.00     0.005 A 
HETATM   10  C   UNL     1      -4.932  -1.468 -33.639  1.00  0.00     0.049 A 
HETATM   11  C   UNL     1      -6.402   0.399 -34.022  1.00  0.00     0.014 A 
HETATM   12  C   UNL     1      -5.737  -2.335 -34.406  1.00  0.00    -0.031 A 
HETATM   13  N   UNL     1      -3.765  -1.731 -32.962  1.00  0.00    -0.364 N 
HETATM   14  C   UNL     1      -6.903  -1.778 -34.958  1.00  0.00     0.009 A 
HETATM   15  C   UNL     1      -7.232  -0.440 -34.770  1.00  0.00     0.002 A 
HETATM   16  C   UNL     1      -3.285  -0.591 -32.375  1.00  0.00     0.102 A 
HETATM   17  H   UNL     1      -3.324  -2.641 -32.922  1.00  0.00     0.165 HD
BRANCH  12  18
HETATM   18  C   UNL     1      -5.419  -3.792 -34.638  1.00  0.00     0.036 C 
HETATM   19  C   UNL     1      -6.558  -4.518 -35.334  1.00  0.00     0.010 C 
ENDBRANCH  12  18
ENDBRANCH   1   8
BRANCH   4  20
HETATM   20  N   UNL     1      -3.023   5.724 -30.883  1.00  0.00    -0.365 N 
HETATM   21  H   UNL     1      -3.824   6.086 -30.373  1.00  0.00     0.162 HD
BRANCH  20  22
HETATM   22  C   UNL     1      -1.811   6.539 -30.991  1.00  0.00     0.083 C 
HETATM   23  C   UNL     1      -1.170   6.701 -29.618  1.00  0.00     0.025 C 
HETATM   24  C   UNL     1       0.274   7.026 -29.955  1.00  0.00     0.002 C 
HETATM   25  C   UNL     1       0.591   6.098 -31.119  1.00  0.00     0.002 C 
HETATM   26  C   UNL     1      -0.739   5.850 -31.833  1.00  0.00     0.025 C 
ENDBRANCH  20  22
ENDBRANCH   4  20
TORSDOF 4
ENDMDL
MODEL 3
REMARK VINA RESULT:      -7.9      6.253      9.147
REMARK  4 active torsions:
REMARK  status: ('A' for Active; 'I' for Inactive)
REMARK    1  A    between atoms: C_2  and  C_3 
REMARK    2  A    between atoms: C_6  and  C_7 
REMARK    3  A    between atoms: C_10  and  N_11 
REMARK    4  A    between atoms: N_11  and  C_12 
ROOT
HETATM    1  C   UNL     1      -3.996   3.704 -32.250  1.00  0.00     0.076 C 
HETATM    2  C   UNL     1      -2.978   4.336 -33.174  1.00  0.00     0.144 C 
HETATM    3  S   UNL     1      -1.531   4.961 -32.305  1.00  0.00    -0.087 SA
HETATM    4  C   UNL     1      -2.338   5.720 -30.988  1.00  0.00     0.157 C 
HETATM    5  N   UNL     1      -3.500   5.237 -30.573  1.00  0.00    -0.257 N 
HETATM    6  H   UNL     1      -3.874   5.685 -29.742  1.00  0.00     0.191 HD
HETATM    7  N   UNL     1      -4.269   4.145 -31.054  1.00  0.00    -0.176 NA
ENDROOT
BRANCH   1   8
HETATM    8  C   UNL     1      -4.838   2.608 -32.744  1.00  0.00     0.019 A 
HETATM    9  C   UNL     1      -4.556   1.192 -32.791  1.00  0.00     0.005 A 
HETATM   10  C   UNL     1      -5.695   0.544 -33.278  1.00  0.00     0.049 A 
HETATM   11  C   UNL     1      -3.440   0.394 -32.450  1.00  0.00     0.014 A 
HETATM   12  C   UNL     1      -5.799  -0.855 -33.420  1.00  0.00    -0.031 A 
HETATM   13  N   UNL     1      -6.619   1.522 -33.561  1.00  0.00    -0.364 N 
HETATM   14  C   UNL     1      -4.661  -1.603 -33.073  1.00  0.00     0.009 A 
HETATM   15  C   UNL     1      -3.504  -0.995 -32.599  1.00  0.00     0.002 A 
HETATM   16  C   UNL     1      -6.124   2.756 -33.239  1.00  0.00     0.102 A 
HETATM   17  H   UNL     1      -7.539   1.340 -33.942  1.00  0.00     0.165 HD
BRANCH  12  18
HETATM   18  C   UNL     1      -7.034  -1.558 -33.928  1.00  0.00     0.036 C 
HETATM   19  C   UNL     1      -6.695  -2.860 -34.637  1.00  0.00     0.010 C 
ENDBRANCH  12  18
ENDBRANCH   1   8
BRANCH   4  20
HETATM   20  N   UNL     1      -1.708   6.754 -30.467  1.00  0.00    -0.365 N 
HETATM   21  H   UNL     1      -1.626   7.532 -31.116  1.00  0.00     0.162 HD
BRANCH  20  22
HETATM   22  C   UNL     1      -1.123   6.869 -29.129  1.00  0.00     0.083 C 
HETATM   23  C   UNL     1       0.098   5.966 -29.017  1.00  0.00     0.025 C 
HETATM   24  C   UNL     1       0.882   6.597 -27.881  1.00  0.00     0.002 C 
HETATM   25  C   UNL     1       0.747   8.092 -28.135  1.00  0.00     0.002 C 
HETATM   26  C   UNL     1      -0.584   8.274 -28.867  1.00  0.00     0.025 C 
ENDBRANCH  20  22
ENDBRANCH   4  20
TORSDOF 4
ENDMDL
MODEL 4
REMARK VINA RESULT:      -7.5      1.621      2.104
REMARK  4 active torsions:
REMARK  status: ('A' for Active; 'I' for Inactive)
REMARK    1  A    between atoms: C_2  and  C_3 
REMARK    2  A    between atoms: C_6  and  C_7 
REMARK    3  A    between atoms: C_10  and  N_11 
REMARK    4  A    between atoms: N_11  and  C_12 
ROOT
HETATM    1  C   UNL     1      -8.753   1.052 -32.484  1.00  0.00     0.076 C 
HETATM    2  C   UNL     1      -8.808   2.563 -32.556  1.00  0.00     0.144 C 
HETATM    3  S   UNL     1     -10.409   3.232 -32.077  1.00  0.00    -0.087 SA
HETATM    4  C   UNL     1     -11.409   2.122 -32.931  1.00  0.00     0.157 C 
HETATM    5  N   UNL     1     -10.975   0.888 -33.146  1.00  0.00    -0.257 N 
HETATM    6  H   UNL     1     -11.653   0.270 -33.582  1.00  0.00     0.191 HD
HETATM    7  N   UNL     1      -9.747   0.269 -32.795  1.00  0.00    -0.176 NA
ENDROOT
BRANCH   1   8
HETATM    8  C   UNL     1      -7.479   0.389 -32.175  1.00  0.00     0.019 A 
HETATM    9  C   UNL     1      -6.721  -0.545 -32.975  1.00  0.00     0.005 A 
HETATM   10  C   UNL     1      -5.542  -0.840 -32.284  1.00  0.00     0.049 A 
HETATM   11  C   UNL     1      -6.919  -1.159 -34.232  1.00  0.00     0.014 A 
HETATM   12  C   UNL     1      -4.534  -1.690 -32.785  1.00  0.00    -0.031 A 
HETATM   13  N   UNL     1      -5.594  -0.155 -31.094  1.00  0.00    -0.364 N 
HETATM   14  C   UNL     1      -4.781  -2.279 -34.036  1.00  0.00     0.009 A 
HETATM   15  C   UNL     1      -5.948  -2.023 -34.747  1.00  0.00     0.002 A 
HETATM   16  C   UNL     1      -6.741   0.589 -31.020  1.00  0.00     0.102 A 
HETATM   17  H   UNL     1      -4.873  -0.193 -30.385  1.00  0.00     0.165 HD
BRANCH  12  18
HETATM   18  C   UNL     1      -3.251  -1.996 -32.051  1.00  0.00     0.036 C 
HETATM   19  C   UNL     1      -3.029  -3.492 -31.895  1.00  0.00     0.010 C 
ENDBRANCH  12  18
ENDBRANCH   1   8
BRANCH   4  20
HETATM   20  N   UNL     1     -12.579   2.600 -33.308  1.00  0.00    -0.365 N 
HETATM   21  H   UNL     1     -13.348   2.245 -32.745  1.00  0.00     0.162 HD
BRANCH  20  22
HETATM   22  C   UNL     1     -12.861   3.515 -34.415  1.00  0.00     0.083 C 
HETATM   23  C   UNL     1     -13.287   4.873 -33.871  1.00  0.00     0.025 C 
HETATM   24  C   UNL     1     -12.982   5.811 -35.025  1.00  0.00     0.002 C 
HETATM   25  C   UNL     1     -11.648   5.306 -35.558  1.00  0.00     0.002 C 
HETATM   26  C   UNL     1     -11.607   3.811 -35.237  1.00  0.00     0.025 C 
ENDBRANCH  20  22
ENDBRANCH   4  20
TORSDOF 4
ENDMDL
MODEL 5
REMARK VINA RESULT:      -7.5      5.191      7.725
REMARK  4 active torsions:
REMARK  status: ('A' for Active; 'I' for Inactive)
REMARK    1  A    between atoms: C_2  and  C_3 
REMARK    2  A    between atoms: C_6  and  C_7 
REMARK    3  A    between atoms: C_10  and  N_11 
REMARK    4  A    between atoms: N_11  and  C_12 
ROOT
HETATM    1  C   UNL     1      -5.207   2.445 -32.543  1.00  0.00     0.076 C 
HETATM    2  C   UNL     1      -5.181   3.762 -33.288  1.00  0.00     0.144 C 
HETATM    3  S   UNL     1      -3.831   4.835 -32.771  1.00  0.00    -0.087 SA
HETATM    4  C   UNL     1      -3.975   4.616 -31.071  1.00  0.00     0.157 C 
HETATM    5  N   UNL     1      -4.446   3.471 -30.600  1.00  0.00    -0.257 N 
HETATM    6  H   UNL     1      -4.424   3.386 -29.589  1.00  0.00     0.191 HD
HETATM    7  N   UNL     1      -4.904   2.313 -31.282  1.00  0.00    -0.176 NA
ENDROOT
BRANCH   1   8
HETATM    8  C   UNL     1      -5.727   1.246 -33.212  1.00  0.00     0.019 A 
HETATM    9  C   UNL     1      -5.131  -0.066 -33.323  1.00  0.00     0.005 A 
HETATM   10  C   UNL     1      -6.038  -0.893 -33.992  1.00  0.00     0.049 A 
HETATM   11  C   UNL     1      -3.907  -0.635 -32.905  1.00  0.00     0.014 A 
HETATM   12  C   UNL     1      -5.812  -2.261 -34.243  1.00  0.00    -0.031 A 
HETATM   13  N   UNL     1      -7.123  -0.113 -34.317  1.00  0.00    -0.364 N 
HETATM   14  C   UNL     1      -4.578  -2.778 -33.812  1.00  0.00     0.009 A 
HETATM   15  C   UNL     1      -3.643  -1.984 -33.157  1.00  0.00     0.002 A 
HETATM   16  C   UNL     1      -6.953   1.162 -33.850  1.00  0.00     0.102 A 
HETATM   17  H   UNL     1      -7.934  -0.450 -34.820  1.00  0.00     0.165 HD
BRANCH  12  18
HETATM   18  C   UNL     1      -6.797  -3.161 -34.947  1.00  0.00     0.036 C 
HETATM   19  C   UNL     1      -6.208  -4.532 -35.238  1.00  0.00     0.010 C 
ENDBRANCH  12  18
ENDBRANCH   1   8
BRANCH   4  20
HETATM   20  N   UNL     1      -3.578   5.640 -30.339  1.00  0.00    -0.365 N 
HETATM   21  H   UNL     1      -4.008   5.655 -29.419  1.00  0.00     0.162 HD
BRANCH  20  22
HETATM   22  C   UNL     1      -2.652   6.710 -30.719  1.00  0.00     0.083 C 
HETATM   23  C   UNL     1      -3.392   8.041 -30.773  1.00  0.00     0.025 C 
HETATM   24  C   UNL     1      -2.276   9.055 -30.598  1.00  0.00     0.002 C 
HETATM   25  C   UNL     1      -1.386   8.432 -29.531  1.00  0.00     0.002 C 
HETATM   26  C   UNL     1      -1.567   6.919 -29.663  1.00  0.00     0.025 C 
ENDBRANCH  20  22
ENDBRANCH   4  20
TORSDOF 4
ENDMDL
MODEL 6
REMARK VINA RESULT:      -7.4      2.338      3.148
REMARK  4 active torsions:
REMARK  status: ('A' for Active; 'I' for Inactive)
REMARK    1  A    between atoms: C_2  and  C_3 
REMARK    2  A    between atoms: C_6  and  C_7 
REMARK    3  A    between atoms: C_10  and  N_11 
REMARK    4  A    between atoms: N_11  and  C_12 
ROOT
HETATM    1  C   UNL     1      -7.902   1.194 -32.182  1.00  0.00     0.076 C 
HETATM    2  C   UNL     1      -7.453   2.624 -32.393  1.00  0.00     0.144 C 
HETATM    3  S   UNL     1      -7.810   3.688 -30.986  1.00  0.00    -0.087 SA
HETATM    4  C   UNL     1      -9.411   3.148 -30.663  1.00  0.00     0.157 C 
HETATM    5  N   UNL     1      -9.749   1.900 -30.958  1.00  0.00    -0.257 N 
HETATM    6  H   UNL     1     -10.682   1.633 -30.664  1.00  0.00     0.191 HD
HETATM    7  N   UNL     1      -8.990   0.856 -31.549  1.00  0.00    -0.176 NA
ENDROOT
BRANCH   1   8
HETATM    8  C   UNL     1      -7.163   0.102 -32.827  1.00  0.00     0.019 A 
HETATM    9  C   UNL     1      -5.833  -0.390 -32.545  1.00  0.00     0.005 A 
HETATM   10  C   UNL     1      -5.599  -1.489 -33.376  1.00  0.00     0.049 A 
HETATM   11  C   UNL     1      -4.809  -0.012 -31.648  1.00  0.00     0.014 A 
HETATM   12  C   UNL     1      -4.414  -2.253 -33.347  1.00  0.00    -0.031 A 
HETATM   13  N   UNL     1      -6.715  -1.639 -34.164  1.00  0.00    -0.364 N 
HETATM   14  C   UNL     1      -3.424  -1.834 -32.442  1.00  0.00     0.009 A 
HETATM   15  C   UNL     1      -3.614  -0.736 -31.610  1.00  0.00     0.002 A 
HETATM   16  C   UNL     1      -7.658  -0.701 -33.841  1.00  0.00     0.102 A 
HETATM   17  H   UNL     1      -6.818  -2.354 -34.873  1.00  0.00     0.165 HD
BRANCH  12  18
HETATM   18  C   UNL     1      -4.165  -3.453 -34.228  1.00  0.00     0.036 C 
HETATM   19  C   UNL     1      -3.528  -4.599 -33.461  1.00  0.00     0.010 C 
ENDBRANCH  12  18
ENDBRANCH   1   8
BRANCH   4  20
HETATM   20  N   UNL     1     -10.205   4.047 -30.114  1.00  0.00    -0.365 N 
HETATM   21  H   UNL     1      -9.991   4.214 -29.135  1.00  0.00     0.162 HD
BRANCH  20  22
HETATM   22  C   UNL     1     -11.319   4.762 -30.740  1.00  0.00     0.083 C 
HETATM   23  C   UNL     1     -11.206   4.675 -32.256  1.00  0.00     0.025 C 
HETATM   24  C   UNL     1     -12.632   4.919 -32.717  1.00  0.00     0.002 C 
HETATM   25  C   UNL     1     -13.473   4.138 -31.716  1.00  0.00     0.002 C 
HETATM   26  C   UNL     1     -12.662   4.108 -30.419  1.00  0.00     0.025 C 
ENDBRANCH  20  22
ENDBRANCH   4  20
TORSDOF 4
ENDMDL
MODEL 7
REMARK VINA RESULT:      -7.4      2.127      8.377
REMARK  4 active torsions:
REMARK  status: ('A' for Active; 'I' for Inactive)
REMARK    1  A    between atoms: C_2  and  C_3 
REMARK    2  A    between atoms: C_6  and  C_7 
REMARK    3  A    between atoms: C_10  and  N_11 
REMARK    4  A    between atoms: N_11  and  C_12 
ROOT
HETATM    1  C   UNL     1      -8.653   1.198 -33.406  1.00  0.00     0.076 C 
HETATM    2  C   UNL     1      -8.304   0.282 -32.253  1.00  0.00     0.144 C 
HETATM    3  S   UNL     1      -6.544  -0.080 -32.149  1.00  0.00    -0.087 SA
HETATM    4  C   UNL     1      -6.249  -0.369 -33.819  1.00  0.00     0.157 C 
HETATM    5  N   UNL     1      -6.990   0.250 -34.727  1.00  0.00    -0.257 N 
HETATM    6  H   UNL     1      -6.703   0.092 -35.688  1.00  0.00     0.191 HD
HETATM    7  N   UNL     1      -8.070   1.159 -34.572  1.00  0.00    -0.176 NA
ENDROOT
BRANCH   1   8
HETATM    8  C   UNL     1      -9.798   2.108 -33.286  1.00  0.00     0.019 A 
HETATM    9  C   UNL     1     -11.209   1.818 -33.405  1.00  0.00     0.005 A 
HETATM   10  C   UNL     1     -11.912   2.997 -33.139  1.00  0.00     0.049 A 
HETATM   11  C   UNL     1     -11.959   0.657 -33.699  1.00  0.00     0.014 A 
HETATM   12  C   UNL     1     -13.319   3.082 -33.121  1.00  0.00    -0.031 A 
HETATM   13  N   UNL     1     -10.975   3.978 -32.913  1.00  0.00    -0.364 N 
HETATM   14  C   UNL     1     -14.018   1.902 -33.425  1.00  0.00     0.009 A 
HETATM   15  C   UNL     1     -13.355   0.713 -33.710  1.00  0.00     0.002 A 
HETATM   16  C   UNL     1      -9.711   3.458 -32.990  1.00  0.00     0.102 A 
HETATM   17  H   UNL     1     -11.201   4.942 -32.707  1.00  0.00     0.165 HD
BRANCH  12  18
HETATM   18  C   UNL     1     -14.081   4.348 -32.816  1.00  0.00     0.036 C 
HETATM   19  C   UNL     1     -15.090   4.148 -31.697  1.00  0.00     0.010 C 
ENDBRANCH  12  18
ENDBRANCH   1   8
BRANCH   4  20
HETATM   20  N   UNL     1      -5.263  -1.207 -34.077  1.00  0.00    -0.365 N 
HETATM   21  H   UNL     1      -4.371  -0.889 -33.707  1.00  0.00     0.162 HD
BRANCH  20  22
HETATM   22  C   UNL     1      -5.325  -2.463 -34.826  1.00  0.00     0.083 C 
HETATM   23  C   UNL     1      -4.475  -3.522 -34.136  1.00  0.00     0.025 C 
HETATM   24  C   UNL     1      -5.072  -4.821 -34.646  1.00  0.00     0.002 C 
HETATM   25  C   UNL     1      -6.571  -4.558 -34.634  1.00  0.00     0.002 C 
HETATM   26  C   UNL     1      -6.735  -3.051 -34.831  1.00  0.00     0.025 C 
ENDBRANCH  20  22
ENDBRANCH   4  20
TORSDOF 4
ENDMDL
MODEL 8
REMARK VINA RESULT:      -7.4      1.464      2.563
REMARK  4 active torsions:
REMARK  status: ('A' for Active; 'I' for Inactive)
REMARK    1  A    between atoms: C_2  and  C_3 
REMARK    2  A    between atoms: C_6  and  C_7 
REMARK    3  A    between atoms: C_10  and  N_11 
REMARK    4  A    between atoms: N_11  and  C_12 
ROOT
HETATM    1  C   UNL     1      -9.864   1.315 -33.964  1.00  0.00     0.076 C 
HETATM    2  C   UNL     1     -10.075   2.730 -34.458  1.00  0.00     0.144 C 
HETATM    3  S   UNL     1     -11.379   3.597 -33.572  1.00  0.00    -0.087 SA
HETATM    4  C   UNL     1     -12.545   2.332 -33.543  1.00  0.00     0.157 C 
HETATM    5  N   UNL     1     -12.137   1.071 -33.538  1.00  0.00    -0.257 N 
HETATM    6  H   UNL     1     -12.878   0.385 -33.438  1.00  0.00     0.191 HD
HETATM    7  N   UNL     1     -10.826   0.527 -33.573  1.00  0.00    -0.176 NA
ENDROOT
BRANCH   1   8
HETATM    8  C   UNL     1      -8.526   0.714 -34.040  1.00  0.00     0.019 A 
HETATM    9  C   UNL     1      -7.617   0.377 -32.968  1.00  0.00     0.005 A 
HETATM   10  C   UNL     1      -6.497  -0.239 -33.535  1.00  0.00     0.049 A 
HETATM   11  C   UNL     1      -7.646   0.524 -31.563  1.00  0.00     0.014 A 
HETATM   12  C   UNL     1      -5.417  -0.742 -32.783  1.00  0.00    -0.031 A 
HETATM   13  N   UNL     1      -6.689  -0.238 -34.897  1.00  0.00    -0.364 N 
HETATM   14  C   UNL     1      -5.491  -0.567 -31.391  1.00  0.00     0.009 A 
HETATM   15  C   UNL     1      -6.581   0.054 -30.790  1.00  0.00     0.002 A 
HETATM   16  C   UNL     1      -7.899   0.319 -35.210  1.00  0.00     0.102 A 
HETATM   17  H   UNL     1      -6.026  -0.613 -35.563  1.00  0.00     0.165 HD
BRANCH  12  18
HETATM   18  C   UNL     1      -4.215  -1.425 -33.391  1.00  0.00     0.036 C 
HETATM   19  C   UNL     1      -4.588  -2.732 -34.071  1.00  0.00     0.010 C 
ENDBRANCH  12  18
ENDBRANCH   1   8
BRANCH   4  20
HETATM   20  N   UNL     1     -13.802   2.730 -33.514  1.00  0.00    -0.365 N 
HETATM   21  H   UNL     1     -14.202   2.838 -34.443  1.00  0.00     0.162 HD
BRANCH  20  22
HETATM   22  C   UNL     1     -14.619   3.043 -32.339  1.00  0.00     0.083 C 
HETATM   23  C   UNL     1     -15.054   4.502 -32.383  1.00  0.00     0.025 C 
HETATM   24  C   UNL     1     -16.287   4.514 -31.497  1.00  0.00     0.002 C 
HETATM   25  C   UNL     1     -17.012   3.228 -31.869  1.00  0.00     0.002 C 
HETATM   26  C   UNL     1     -15.928   2.254 -32.335  1.00  0.00     0.025 C 
ENDBRANCH  20  22
ENDBRANCH   4  20
TORSDOF 4
ENDMDL
MODEL 9
REMARK VINA RESULT:      -7.2      1.584      1.829
REMARK  4 active torsions:
REMARK  status: ('A' for Active; 'I' for Inactive)
REMARK    1  A    between atoms: C_2  and  C_3 
REMARK    2  A    between atoms: C_6  and  C_7 
REMARK    3  A    between atoms: C_10  and  N_11 
REMARK    4  A    between atoms: N_11  and  C_12 
ROOT
HETATM    1  C   UNL     1      -8.257   1.257 -32.723  1.00  0.00     0.076 C 
HETATM    2  C   UNL     1      -8.319   2.102 -33.977  1.00  0.00     0.144 C 
HETATM    3  S   UNL     1      -9.187   3.660 -33.733  1.00  0.00    -0.087 SA
HETATM    4  C   UNL     1     -10.522   3.063 -32.827  1.00  0.00     0.157 C 
HETATM    5  N   UNL     1     -10.363   1.990 -32.064  1.00  0.00    -0.257 N 
HETATM    6  H   UNL     1     -11.170   1.749 -31.499  1.00  0.00     0.191 HD
HETATM    7  N   UNL     1      -9.222   1.172 -31.851  1.00  0.00    -0.176 NA
ENDROOT
BRANCH   1   8
HETATM    8  C   UNL     1      -7.112   0.363 -32.509  1.00  0.00     0.019 A 
HETATM    9  C   UNL     1      -6.635  -0.721 -33.336  1.00  0.00     0.005 A 
HETATM   10  C   UNL     1      -5.471  -1.227 -32.750  1.00  0.00     0.049 A 
HETATM   11  C   UNL     1      -7.076  -1.314 -34.541  1.00  0.00     0.014 A 
HETATM   12  C   UNL     1      -4.703  -2.270 -33.307  1.00  0.00    -0.031 A 
HETATM   13  N   UNL     1      -5.267  -0.516 -31.590  1.00  0.00    -0.364 N 
HETATM   14  C   UNL     1      -5.187  -2.829 -34.502  1.00  0.00     0.009 A 
HETATM   15  C   UNL     1      -6.349  -2.365 -35.108  1.00  0.00     0.002 A 
HETATM   16  C   UNL     1      -6.234   0.441 -31.440  1.00  0.00     0.102 A 
HETATM   17  H   UNL     1      -4.499  -0.678 -30.953  1.00  0.00     0.165 HD
BRANCH  12  18
HETATM   18  C   UNL     1      -3.436  -2.805 -32.686  1.00  0.00     0.036 C 
HETATM   19  C   UNL     1      -3.289  -4.303 -32.898  1.00  0.00     0.010 C 
ENDBRANCH  12  18
ENDBRANCH   1   8
BRANCH   4  20
HETATM   20  N   UNL     1     -11.639   3.752 -32.956  1.00  0.00    -0.365 N 
HETATM   21  H   UNL     1     -11.652   4.324 -33.797  1.00  0.00     0.162 HD
BRANCH  20  22
HETATM   22  C   UNL     1     -12.782   3.791 -32.042  1.00  0.00     0.083 C 
HETATM   23  C   UNL     1     -12.422   4.588 -30.795  1.00  0.00     0.025 C 
HETATM   24  C   UNL     1     -13.778   5.018 -30.265  1.00  0.00     0.002 C 
HETATM   25  C   UNL     1     -14.553   5.394 -31.520  1.00  0.00     0.002 C 
HETATM   26  C   UNL     1     -13.965   4.544 -32.647  1.00  0.00     0.025 C 
ENDBRANCH  20  22
ENDBRANCH   4  20
TORSDOF 4
ENDMDL
MODEL 10
REMARK VINA RESULT:      -7.0     14.696     17.971
REMARK  4 active torsions:
REMARK  status: ('A' for Active; 'I' for Inactive)
REMARK    1  A    between atoms: C_2  and  C_3 
REMARK    2  A    between atoms: C_6  and  C_7 
REMARK    3  A    between atoms: C_10  and  N_11 
REMARK    4  A    between atoms: N_11  and  C_12 
ROOT
HETATM    1  C   UNL     1      -4.047 -13.188 -39.631  1.00  0.00     0.076 C 
HETATM    2  C   UNL     1      -3.472 -12.743 -38.304  1.00  0.00     0.144 C 
HETATM    3  S   UNL     1      -1.711 -12.381 -38.387  1.00  0.00    -0.087 SA
HETATM    4  C   UNL     1      -1.220 -13.742 -39.319  1.00  0.00     0.157 C 
HETATM    5  N   UNL     1      -2.071 -14.281 -40.180  1.00  0.00    -0.257 N 
HETATM    6  H   UNL     1      -1.682 -15.026 -40.750  1.00  0.00     0.191 HD
HETATM    7  N   UNL     1      -3.412 -13.936 -40.488  1.00  0.00    -0.176 NA
ENDROOT
BRANCH   1   8
HETATM    8  C   UNL     1      -5.449 -12.887 -39.948  1.00  0.00     0.019 A 
HETATM    9  C   UNL     1      -6.647 -13.272 -39.237  1.00  0.00     0.005 A 
HETATM   10  C   UNL     1      -7.737 -12.686 -39.888  1.00  0.00     0.049 A 
HETATM   11  C   UNL     1      -6.908 -14.053 -38.089  1.00  0.00     0.014 A 
HETATM   12  C   UNL     1      -9.070 -12.809 -39.446  1.00  0.00    -0.031 A 
HETATM   13  N   UNL     1      -7.237 -12.010 -40.975  1.00  0.00    -0.364 N 
HETATM   14  C   UNL     1      -9.277 -13.601 -38.304  1.00  0.00     0.009 A 
HETATM   15  C   UNL     1      -8.221 -14.213 -37.638  1.00  0.00     0.002 A 
HETATM   16  C   UNL     1      -5.873 -12.115 -41.017  1.00  0.00     0.102 A 
HETATM   17  H   UNL     1      -7.806 -11.499 -41.637  1.00  0.00     0.165 HD
BRANCH  12  18
HETATM   18  C   UNL     1     -10.247 -12.162 -40.135  1.00  0.00     0.036 C 
HETATM   19  C   UNL     1     -11.296 -13.183 -40.547  1.00  0.00     0.010 C 
ENDBRANCH  12  18
ENDBRANCH   1   8
BRANCH   4  20
HETATM   20  N   UNL     1       0.017 -14.149 -39.105  1.00  0.00    -0.365 N 
HETATM   21  H   UNL     1       0.611 -14.046 -39.923  1.00  0.00     0.162 HD
BRANCH  20  22
HETATM   22  C   UNL     1       0.572 -14.730 -37.881  1.00  0.00     0.083 C 
HETATM   23  C   UNL     1      -0.367 -15.803 -37.343  1.00  0.00     0.025 C 
HETATM   24  C   UNL     1       0.551 -16.660 -36.492  1.00  0.00     0.002 C 
HETATM   25  C   UNL     1       1.828 -16.751 -37.316  1.00  0.00     0.002 C 
HETATM   26  C   UNL     1       1.881 -15.470 -38.150  1.00  0.00     0.025 C 
ENDBRANCH  20  22
ENDBRANCH   4  20
TORSDOF 4
ENDMDL
