MODEL 1
REMARK VINA RESULT:      -9.8      0.000      0.000
REMARK  3 active torsions:
REMARK  status: ('A' for Active; 'I' for Inactive)
REMARK    1  A    between atoms: C_4  and  C_5 
REMARK    2  A    between atoms: C_9  and  N_10 
REMARK       I    between atoms: N_10  and  C_11 
REMARK    3  A    between atoms: C_11  and  C_12 
ROOT
HETATM    1  C   UNL     1      -8.094  -0.016 -34.024  1.00  0.00     0.090 A 
HETATM    2  N   UNL     1      -8.110   1.092 -34.788  1.00  0.00    -0.173 NA
HETATM    3  N   UNL     1      -9.319   1.633 -34.577  1.00  0.00    -0.262 N 
HETATM    4  H   UNL     1      -9.574   2.494 -35.055  1.00  0.00     0.191 HD
HETATM    5  C   UNL     1     -10.090   0.930 -33.692  1.00  0.00     0.126 A 
HETATM    6  C   UNL     1      -9.327  -0.149 -33.319  1.00  0.00     0.084 A 
ENDROOT
BRANCH   5   7
HETATM    7  N   UNL     1     -11.359   1.297 -33.302  1.00  0.00    -0.306 N 
HETATM    8  C   UNL     1     -12.365   1.565 -34.215  1.00  0.00     0.281 C 
HETATM    9  O   UNL     1     -12.256   1.506 -35.430  1.00  0.00    -0.265 OA
HETATM   10  H   UNL     1     -11.581   1.416 -32.316  1.00  0.00     0.170 HD
BRANCH   8  11
HETATM   11  C   UNL     1     -13.675   1.978 -33.544  1.00  0.00     0.193 A 
HETATM   12  N   UNL     1     -13.590   2.952 -32.668  1.00  0.00    -0.241 NA
HETATM   13  C   UNL     1     -14.746   3.378 -32.044  1.00  0.00     0.054 A 
HETATM   14  C   UNL     1     -14.541   4.500 -31.059  1.00  0.00     0.072 C 
HETATM   15  C   UNL     1     -15.966   2.850 -32.286  1.00  0.00     0.033 A 
HETATM   16  C   UNL     1     -17.253   3.281 -31.641  1.00  0.00     0.070 C 
HETATM   17  N   UNL     1     -16.080   1.824 -33.192  1.00  0.00    -0.324 N 
HETATM   18  C   UNL     1     -15.004   1.303 -33.866  1.00  0.00     0.280 A 
HETATM   19  H   UNL     1     -16.978   1.399 -33.389  1.00  0.00     0.169 HD
HETATM   20  O   UNL     1     -15.103   0.372 -34.647  1.00  0.00    -0.265 OA
ENDBRANCH   8  11
ENDBRANCH   5   7
BRANCH   1  21
HETATM   21  C   UNL     1      -6.922  -0.897 -33.977  1.00  0.00    -0.005 A 
HETATM   22  C   UNL     1      -6.972  -2.171 -34.566  1.00  0.00     0.020 A 
HETATM   23  C   UNL     1      -5.862  -3.026 -34.543  1.00  0.00    -0.061 A 
HETATM   24  C   UNL     1      -5.924  -4.385 -35.174  1.00  0.00     0.048 C 
HETATM   25  C   UNL     1      -4.688  -2.600 -33.911  1.00  0.00     0.013 A 
HETATM   26  C   UNL     1      -4.614  -1.337 -33.311  1.00  0.00    -0.061 A 
HETATM   27  C   UNL     1      -5.734  -0.493 -33.349  1.00  0.00     0.020 A 
HETATM   28  C   UNL     1      -3.347  -0.909 -32.629  1.00  0.00     0.048 C 
ENDBRANCH   1  21
TORSDOF 3
ENDMDL
MODEL 2
REMARK VINA RESULT:      -8.8      7.245     10.792
REMARK  3 active torsions:
REMARK  status: ('A' for Active; 'I' for Inactive)
REMARK    1  A    between atoms: C_4  and  C_5 
REMARK    2  A    between atoms: C_9  and  N_10 
REMARK       I    between atoms: N_10  and  C_11 
REMARK    3  A    between atoms: C_11  and  C_12 
ROOT
HETATM    1  C   UNL     1      -5.291   2.370 -32.761  1.00  0.00     0.090 A 
HETATM    2  N   UNL     1      -5.289   3.436 -33.582  1.00  0.00    -0.173 NA
HETATM    3  N   UNL     1      -4.481   4.324 -32.986  1.00  0.00    -0.262 N 
HETATM    4  H   UNL     1      -4.319   5.229 -33.424  1.00  0.00     0.191 HD
HETATM    5  C   UNL     1      -3.941   3.875 -31.812  1.00  0.00     0.126 A 
HETATM    6  C   UNL     1      -4.451   2.613 -31.634  1.00  0.00     0.084 A 
ENDROOT
BRANCH   5   7
HETATM    7  N   UNL     1      -3.068   4.598 -31.030  1.00  0.00    -0.306 N 
HETATM    8  C   UNL     1      -1.844   5.041 -31.502  1.00  0.00     0.281 C 
HETATM    9  O   UNL     1      -1.408   4.855 -32.628  1.00  0.00    -0.265 OA
HETATM   10  H   UNL     1      -3.291   4.797 -30.057  1.00  0.00     0.170 HD
BRANCH   8  11
HETATM   11  C   UNL     1      -1.040   5.795 -30.443  1.00  0.00     0.193 A 
HETATM   12  N   UNL     1      -1.486   6.989 -30.126  1.00  0.00    -0.241 NA
HETATM   13  C   UNL     1      -0.808   7.708 -29.161  1.00  0.00     0.054 A 
HETATM   14  C   UNL     1      -1.401   9.063 -28.869  1.00  0.00     0.072 C 
HETATM   15  C   UNL     1       0.291   7.252 -28.520  1.00  0.00     0.033 A 
HETATM   16  C   UNL     1       1.058   7.991 -27.460  1.00  0.00     0.070 C 
HETATM   17  N   UNL     1       0.781   6.011 -28.841  1.00  0.00    -0.324 N 
HETATM   18  C   UNL     1       0.206   5.205 -29.792  1.00  0.00     0.280 A 
HETATM   19  H   UNL     1       1.609   5.643 -28.387  1.00  0.00     0.169 HD
HETATM   20  O   UNL     1       0.661   4.116 -30.096  1.00  0.00    -0.265 OA
ENDBRANCH   8  11
ENDBRANCH   5   7
BRANCH   1  21
HETATM   21  C   UNL     1      -6.070   1.165 -33.070  1.00  0.00    -0.005 A 
HETATM   22  C   UNL     1      -7.446   1.124 -32.795  1.00  0.00     0.020 A 
HETATM   23  C   UNL     1      -8.212  -0.011 -33.092  1.00  0.00    -0.061 A 
HETATM   24  C   UNL     1      -9.682  -0.046 -32.796  1.00  0.00     0.048 C 
HETATM   25  C   UNL     1      -7.586  -1.125 -33.663  1.00  0.00     0.013 A 
HETATM   26  C   UNL     1      -6.213  -1.112 -33.940  1.00  0.00    -0.061 A 
HETATM   27  C   UNL     1      -5.464   0.036 -33.642  1.00  0.00     0.020 A 
HETATM   28  C   UNL     1      -5.563  -2.324 -34.541  1.00  0.00     0.048 C 
ENDBRANCH   1  21
TORSDOF 3
ENDMDL
MODEL 3
REMARK VINA RESULT:      -8.7      7.237     10.769
REMARK  3 active torsions:
REMARK  status: ('A' for Active; 'I' for Inactive)
REMARK    1  A    between atoms: C_4  and  C_5 
REMARK    2  A    between atoms: C_9  and  N_10 
REMARK       I    between atoms: N_10  and  C_11 
REMARK    3  A    between atoms: C_11  and  C_12 
ROOT
HETATM    1  C   UNL     1      -5.318   2.373 -32.768  1.00  0.00     0.090 A 
HETATM    2  N   UNL     1      -5.250   3.403 -33.631  1.00  0.00    -0.173 NA
HETATM    3  N   UNL     1      -4.435   4.288 -33.040  1.00  0.00    -0.262 N 
HETATM    4  H   UNL     1      -4.227   5.168 -33.507  1.00  0.00     0.191 HD
HETATM    5  C   UNL     1      -3.955   3.871 -31.829  1.00  0.00     0.126 A 
HETATM    6  C   UNL     1      -4.513   2.634 -31.621  1.00  0.00     0.084 A 
ENDROOT
BRANCH   5   7
HETATM    7  N   UNL     1      -3.088   4.598 -31.043  1.00  0.00    -0.306 N 
HETATM    8  C   UNL     1      -1.845   5.008 -31.496  1.00  0.00     0.281 C 
HETATM    9  O   UNL     1      -1.386   4.787 -32.606  1.00  0.00    -0.265 OA
HETATM   10  H   UNL     1      -3.331   4.825 -30.081  1.00  0.00     0.170 HD
BRANCH   8  11
HETATM   11  C   UNL     1      -1.054   5.774 -30.435  1.00  0.00     0.193 A 
HETATM   12  N   UNL     1      -1.521   6.958 -30.114  1.00  0.00    -0.241 NA
HETATM   13  C   UNL     1      -0.856   7.687 -29.148  1.00  0.00     0.054 A 
HETATM   14  C   UNL     1      -1.473   9.030 -28.851  1.00  0.00     0.072 C 
HETATM   15  C   UNL     1       0.253   7.249 -28.510  1.00  0.00     0.033 A 
HETATM   16  C   UNL     1       1.008   7.999 -27.449  1.00  0.00     0.070 C 
HETATM   17  N   UNL     1       0.765   6.018 -28.835  1.00  0.00    -0.324 N 
HETATM   18  C   UNL     1       0.204   5.205 -29.788  1.00  0.00     0.280 A 
HETATM   19  H   UNL     1       1.600   5.664 -28.384  1.00  0.00     0.169 HD
HETATM   20  O   UNL     1       0.678   4.125 -30.096  1.00  0.00    -0.265 OA
ENDBRANCH   8  11
ENDBRANCH   5   7
BRANCH   1  21
HETATM   21  C   UNL     1      -6.124   1.181 -33.059  1.00  0.00    -0.005 A 
HETATM   22  C   UNL     1      -5.531   0.054 -33.650  1.00  0.00     0.020 A 
HETATM   23  C   UNL     1      -6.277  -1.099 -33.927  1.00  0.00    -0.061 A 
HETATM   24  C   UNL     1      -5.635  -2.299 -34.558  1.00  0.00     0.048 C 
HETATM   25  C   UNL     1      -7.642  -1.117 -33.616  1.00  0.00     0.013 A 
HETATM   26  C   UNL     1      -8.259  -0.004 -33.033  1.00  0.00    -0.061 A 
HETATM   27  C   UNL     1      -7.494   1.139 -32.758  1.00  0.00     0.020 A 
HETATM   28  C   UNL     1      -9.727  -0.045 -32.721  1.00  0.00     0.048 C 
ENDBRANCH   1  21
TORSDOF 3
ENDMDL
MODEL 4
REMARK VINA RESULT:      -8.6      3.160      3.977
REMARK  3 active torsions:
REMARK  status: ('A' for Active; 'I' for Inactive)
REMARK    1  A    between atoms: C_4  and  C_5 
REMARK    2  A    between atoms: C_9  and  N_10 
REMARK       I    between atoms: N_10  and  C_11 
REMARK    3  A    between atoms: C_11  and  C_12 
ROOT
HETATM    1  C   UNL     1      -7.955  -0.151 -33.742  1.00  0.00     0.090 A 
HETATM    2  N   UNL     1      -8.754  -0.114 -32.661  1.00  0.00    -0.173 NA
HETATM    3  N   UNL     1      -9.622   0.877 -32.913  1.00  0.00    -0.262 N 
HETATM    4  H   UNL     1     -10.339   1.103 -32.227  1.00  0.00     0.191 HD
HETATM    5  C   UNL     1      -9.430   1.481 -34.125  1.00  0.00     0.126 A 
HETATM    6  C   UNL     1      -8.353   0.841 -34.686  1.00  0.00     0.084 A 
ENDROOT
BRANCH   5   7
HETATM    7  N   UNL     1     -10.205   2.510 -34.614  1.00  0.00    -0.306 N 
HETATM    8  C   UNL     1     -10.230   3.762 -34.023  1.00  0.00     0.281 C 
HETATM    9  O   UNL     1      -9.588   4.096 -33.039  1.00  0.00    -0.265 OA
HETATM   10  H   UNL     1     -10.815   2.360 -35.414  1.00  0.00     0.170 HD
BRANCH   8  11
HETATM   11  C   UNL     1     -11.184   4.727 -34.727  1.00  0.00     0.193 A 
HETATM   12  N   UNL     1     -10.701   5.917 -34.999  1.00  0.00    -0.241 NA
HETATM   13  C   UNL     1     -11.515   6.823 -35.650  1.00  0.00     0.054 A 
HETATM   14  C   UNL     1     -10.867   8.157 -35.917  1.00  0.00     0.072 C 
HETATM   15  C   UNL     1     -12.785   6.554 -36.027  1.00  0.00     0.033 A 
HETATM   16  C   UNL     1     -13.708   7.500 -36.742  1.00  0.00     0.070 C 
HETATM   17  N   UNL     1     -13.316   5.320 -35.745  1.00  0.00    -0.324 N 
HETATM   18  C   UNL     1     -12.613   4.339 -35.090  1.00  0.00     0.280 A 
HETATM   19  H   UNL     1     -14.267   5.088 -36.004  1.00  0.00     0.169 HD
HETATM   20  O   UNL     1     -13.097   3.254 -34.815  1.00  0.00    -0.265 OA
ENDBRANCH   8  11
ENDBRANCH   5   7
BRANCH   1  21
HETATM   21  C   UNL     1      -6.859  -1.122 -33.853  1.00  0.00    -0.005 A 
HETATM   22  C   UNL     1      -5.641  -0.890 -33.193  1.00  0.00     0.020 A 
HETATM   23  C   UNL     1      -4.585  -1.807 -33.274  1.00  0.00    -0.061 A 
HETATM   24  C   UNL     1      -3.288  -1.552 -32.565  1.00  0.00     0.048 C 
HETATM   25  C   UNL     1      -4.750  -2.968 -34.038  1.00  0.00     0.013 A 
HETATM   26  C   UNL     1      -5.951  -3.219 -34.712  1.00  0.00    -0.061 A 
HETATM   27  C   UNL     1      -6.999  -2.292 -34.614  1.00  0.00     0.020 A 
HETATM   28  C   UNL     1      -6.097  -4.466 -35.535  1.00  0.00     0.048 C 
ENDBRANCH   1  21
TORSDOF 3
ENDMDL
MODEL 5
REMARK VINA RESULT:      -8.1      6.592      9.904
REMARK  3 active torsions:
REMARK  status: ('A' for Active; 'I' for Inactive)
REMARK    1  A    between atoms: C_4  and  C_5 
REMARK    2  A    between atoms: C_9  and  N_10 
REMARK       I    between atoms: N_10  and  C_11 
REMARK    3  A    between atoms: C_11  and  C_12 
ROOT
HETATM    1  C   UNL     1      -3.913   4.373 -31.489  1.00  0.00     0.090 A 
HETATM    2  N   UNL     1      -4.929   4.093 -30.653  1.00  0.00    -0.173 NA
HETATM    3  N   UNL     1      -5.410   2.918 -31.086  1.00  0.00    -0.262 N 
HETATM    4  H   UNL     1      -6.200   2.492 -30.606  1.00  0.00     0.191 HD
HETATM    5  C   UNL     1      -4.739   2.412 -32.164  1.00  0.00     0.126 A 
HETATM    6  C   UNL     1      -3.764   3.334 -32.454  1.00  0.00     0.084 A 
ENDROOT
BRANCH   5   7
HETATM    7  N   UNL     1      -5.036   1.213 -32.774  1.00  0.00    -0.306 N 
HETATM    8  C   UNL     1      -4.241   0.089 -32.621  1.00  0.00     0.281 C 
HETATM    9  O   UNL     1      -3.223   0.025 -31.950  1.00  0.00    -0.265 OA
HETATM   10  H   UNL     1      -5.841   1.133 -33.390  1.00  0.00     0.170 HD
BRANCH   8  11
HETATM   11  C   UNL     1      -4.758  -1.111 -33.415  1.00  0.00     0.193 A 
HETATM   12  N   UNL     1      -4.057  -2.216 -33.308  1.00  0.00    -0.241 NA
HETATM   13  C   UNL     1      -4.488  -3.336 -33.991  1.00  0.00     0.054 A 
HETATM   14  C   UNL     1      -3.616  -4.551 -33.801  1.00  0.00     0.072 C 
HETATM   15  C   UNL     1      -5.596  -3.362 -34.764  1.00  0.00     0.033 A 
HETATM   16  C   UNL     1      -6.112  -4.554 -35.520  1.00  0.00     0.070 C 
HETATM   17  N   UNL     1      -6.341  -2.217 -34.899  1.00  0.00    -0.324 N 
HETATM   18  C   UNL     1      -6.009  -1.036 -34.283  1.00  0.00     0.280 A 
HETATM   19  H   UNL     1      -7.172  -2.199 -35.478  1.00  0.00     0.169 HD
HETATM   20  O   UNL     1      -6.656  -0.012 -34.428  1.00  0.00    -0.265 OA
ENDBRANCH   8  11
ENDBRANCH   5   7
BRANCH   1  21
HETATM   21  C   UNL     1      -3.115   5.597 -31.342  1.00  0.00    -0.005 A 
HETATM   22  C   UNL     1      -3.749   6.834 -31.146  1.00  0.00     0.020 A 
HETATM   23  C   UNL     1      -3.008   8.014 -30.992  1.00  0.00    -0.061 A 
HETATM   24  C   UNL     1      -3.694   9.331 -30.782  1.00  0.00     0.048 C 
HETATM   25  C   UNL     1      -1.611   7.952 -31.046  1.00  0.00     0.013 A 
HETATM   26  C   UNL     1      -0.955   6.732 -31.248  1.00  0.00    -0.061 A 
HETATM   27  C   UNL     1      -1.713   5.560 -31.394  1.00  0.00     0.020 A 
HETATM   28  C   UNL     1       0.544   6.695 -31.315  1.00  0.00     0.048 C 
ENDBRANCH   1  21
TORSDOF 3
ENDMDL
MODEL 6
REMARK VINA RESULT:      -7.9      7.081     10.917
REMARK  3 active torsions:
REMARK  status: ('A' for Active; 'I' for Inactive)
REMARK    1  A    between atoms: C_4  and  C_5 
REMARK    2  A    between atoms: C_9  and  N_10 
REMARK       I    between atoms: N_10  and  C_11 
REMARK    3  A    between atoms: C_11  and  C_12 
ROOT
HETATM    1  C   UNL     1      -2.744   5.766 -31.326  1.00  0.00     0.090 A 
HETATM    2  N   UNL     1      -3.681   5.941 -32.276  1.00  0.00    -0.173 NA
HETATM    3  N   UNL     1      -3.929   4.707 -32.740  1.00  0.00    -0.262 N 
HETATM    4  H   UNL     1      -4.615   4.579 -33.482  1.00  0.00     0.191 HD
HETATM    5  C   UNL     1      -3.202   3.729 -32.120  1.00  0.00     0.126 A 
HETATM    6  C   UNL     1      -2.419   4.383 -31.201  1.00  0.00     0.084 A 
ENDROOT
BRANCH   5   7
HETATM    7  N   UNL     1      -3.296   2.386 -32.410  1.00  0.00    -0.306 N 
HETATM    8  C   UNL     1      -4.475   1.676 -32.252  1.00  0.00     0.281 C 
HETATM    9  O   UNL     1      -5.534   2.138 -31.856  1.00  0.00    -0.265 OA
HETATM   10  H   UNL     1      -2.478   1.867 -32.719  1.00  0.00     0.170 HD
BRANCH   8  11
HETATM   11  C   UNL     1      -4.325   0.198 -32.611  1.00  0.00     0.193 A 
HETATM   12  N   UNL     1      -5.204  -0.279 -33.461  1.00  0.00    -0.241 NA
HETATM   13  C   UNL     1      -5.106  -1.605 -33.834  1.00  0.00     0.054 A 
HETATM   14  C   UNL     1      -6.160  -2.053 -34.813  1.00  0.00     0.072 C 
HETATM   15  C   UNL     1      -4.151  -2.444 -33.373  1.00  0.00     0.033 A 
HETATM   16  C   UNL     1      -3.996  -3.890 -33.752  1.00  0.00     0.070 C 
HETATM   17  N   UNL     1      -3.226  -1.971 -32.476  1.00  0.00    -0.324 N 
HETATM   18  C   UNL     1      -3.227  -0.677 -32.018  1.00  0.00     0.280 A 
HETATM   19  H   UNL     1      -2.503  -2.575 -32.104  1.00  0.00     0.169 HD
HETATM   20  O   UNL     1      -2.422  -0.268 -31.198  1.00  0.00    -0.265 OA
ENDBRANCH   8  11
ENDBRANCH   5   7
BRANCH   1  21
HETATM   21  C   UNL     1      -2.202   6.899 -30.567  1.00  0.00    -0.005 A 
HETATM   22  C   UNL     1      -1.029   6.745 -29.810  1.00  0.00     0.020 A 
HETATM   23  C   UNL     1      -0.487   7.814 -29.085  1.00  0.00    -0.061 A 
HETATM   24  C   UNL     1       0.767   7.641 -28.280  1.00  0.00     0.048 C 
HETATM   25  C   UNL     1      -1.136   9.054 -29.113  1.00  0.00     0.013 A 
HETATM   26  C   UNL     1      -2.310   9.232 -29.855  1.00  0.00    -0.061 A 
HETATM   27  C   UNL     1      -2.835   8.151 -30.578  1.00  0.00     0.020 A 
HETATM   28  C   UNL     1      -2.993  10.568 -29.857  1.00  0.00     0.048 C 
ENDBRANCH   1  21
TORSDOF 3
ENDMDL
MODEL 7
REMARK VINA RESULT:      -7.8      7.938     10.981
REMARK  3 active torsions:
REMARK  status: ('A' for Active; 'I' for Inactive)
REMARK    1  A    between atoms: C_4  and  C_5 
REMARK    2  A    between atoms: C_9  and  N_10 
REMARK       I    between atoms: N_10  and  C_11 
REMARK    3  A    between atoms: C_11  and  C_12 
ROOT
HETATM    1  C   UNL     1      -1.430   6.462 -30.337  1.00  0.00     0.090 A 
HETATM    2  N   UNL     1      -0.506   5.740 -30.997  1.00  0.00    -0.173 NA
HETATM    3  N   UNL     1      -1.215   4.849 -31.706  1.00  0.00    -0.262 N 
HETATM    4  H   UNL     1      -0.729   4.177 -32.296  1.00  0.00     0.191 HD
HETATM    5  C   UNL     1      -2.568   4.970 -31.547  1.00  0.00     0.126 A 
HETATM    6  C   UNL     1      -2.741   6.004 -30.661  1.00  0.00     0.084 A 
ENDROOT
BRANCH   5   7
HETATM    7  N   UNL     1      -3.500   4.182 -32.185  1.00  0.00    -0.306 N 
HETATM    8  C   UNL     1      -3.618   2.825 -31.934  1.00  0.00     0.281 C 
HETATM    9  O   UNL     1      -2.940   2.188 -31.144  1.00  0.00    -0.265 OA
HETATM   10  H   UNL     1      -4.112   4.579 -32.894  1.00  0.00     0.170 HD
BRANCH   8  11
HETATM   11  C   UNL     1      -4.703   2.161 -32.782  1.00  0.00     0.193 A 
HETATM   12  N   UNL     1      -4.641   0.852 -32.872  1.00  0.00    -0.241 NA
HETATM   13  C   UNL     1      -5.607   0.198 -33.611  1.00  0.00     0.054 A 
HETATM   14  C   UNL     1      -5.448  -1.300 -33.650  1.00  0.00     0.072 C 
HETATM   15  C   UNL     1      -6.617   0.829 -34.249  1.00  0.00     0.033 A 
HETATM   16  C   UNL     1      -7.695   0.165 -35.059  1.00  0.00     0.070 C 
HETATM   17  N   UNL     1      -6.698   2.198 -34.178  1.00  0.00    -0.324 N 
HETATM   18  C   UNL     1      -5.791   2.963 -33.487  1.00  0.00     0.280 A 
HETATM   19  H   UNL     1      -7.437   2.703 -34.653  1.00  0.00     0.169 HD
HETATM   20  O   UNL     1      -5.848   4.180 -33.450  1.00  0.00    -0.265 OA
ENDBRANCH   8  11
ENDBRANCH   5   7
BRANCH   1  21
HETATM   21  C   UNL     1      -1.048   7.560 -29.440  1.00  0.00    -0.005 A 
HETATM   22  C   UNL     1      -1.890   8.672 -29.286  1.00  0.00     0.020 A 
HETATM   23  C   UNL     1      -1.552   9.727 -28.427  1.00  0.00    -0.061 A 
HETATM   24  C   UNL     1      -2.459  10.911 -28.268  1.00  0.00     0.048 C 
HETATM   25  C   UNL     1      -0.345   9.668 -27.721  1.00  0.00     0.013 A 
HETATM   26  C   UNL     1       0.516   8.573 -27.861  1.00  0.00    -0.061 A 
HETATM   27  C   UNL     1       0.157   7.524 -28.722  1.00  0.00     0.020 A 
HETATM   28  C   UNL     1       1.810   8.541 -27.102  1.00  0.00     0.048 C 
ENDBRANCH   1  21
TORSDOF 3
ENDMDL
MODEL 8
REMARK VINA RESULT:      -7.8      2.801      4.159
REMARK  3 active torsions:
REMARK  status: ('A' for Active; 'I' for Inactive)
REMARK    1  A    between atoms: C_4  and  C_5 
REMARK    2  A    between atoms: C_9  and  N_10 
REMARK       I    between atoms: N_10  and  C_11 
REMARK    3  A    between atoms: C_11  and  C_12 
ROOT
HETATM    1  C   UNL     1      -8.156   0.169 -32.807  1.00  0.00     0.090 A 
HETATM    2  N   UNL     1      -9.400  -0.294 -33.029  1.00  0.00    -0.173 NA
HETATM    3  N   UNL     1     -10.209   0.646 -32.518  1.00  0.00    -0.262 N 
HETATM    4  H   UNL     1     -11.217   0.519 -32.564  1.00  0.00     0.191 HD
HETATM    5  C   UNL     1      -9.542   1.715 -31.984  1.00  0.00     0.126 A 
HETATM    6  C   UNL     1      -8.209   1.434 -32.151  1.00  0.00     0.084 A 
ENDROOT
BRANCH   5   7
HETATM    7  N   UNL     1     -10.155   2.811 -31.419  1.00  0.00    -0.306 N 
HETATM    8  C   UNL     1     -10.948   3.676 -32.154  1.00  0.00     0.281 C 
HETATM    9  O   UNL     1     -11.197   3.573 -33.345  1.00  0.00    -0.265 OA
HETATM   10  H   UNL     1     -10.007   3.035 -30.437  1.00  0.00     0.170 HD
BRANCH   8  11
HETATM   11  C   UNL     1     -11.494   4.832 -31.315  1.00  0.00     0.193 A 
HETATM   12  N   UNL     1     -12.802   4.927 -31.250  1.00  0.00    -0.241 NA
HETATM   13  C   UNL     1     -13.350   5.943 -30.492  1.00  0.00     0.054 A 
HETATM   14  C   UNL     1     -14.857   5.964 -30.480  1.00  0.00     0.072 C 
HETATM   15  C   UNL     1     -12.615   6.848 -29.808  1.00  0.00     0.033 A 
HETATM   16  C   UNL     1     -13.161   7.965 -28.964  1.00  0.00     0.070 C 
HETATM   17  N   UNL     1     -11.245   6.775 -29.868  1.00  0.00    -0.324 N 
HETATM   18  C   UNL     1     -10.582   5.820 -30.599  1.00  0.00     0.280 A 
HETATM   19  H   UNL     1     -10.664   7.443 -29.376  1.00  0.00     0.169 HD
HETATM   20  O   UNL     1      -9.365   5.776 -30.674  1.00  0.00    -0.265 OA
ENDBRANCH   8  11
ENDBRANCH   5   7
BRANCH   1  21
HETATM   21  C   UNL     1      -6.970  -0.586 -33.231  1.00  0.00    -0.005 A 
HETATM   22  C   UNL     1      -5.686  -0.127 -32.898  1.00  0.00     0.020 A 
HETATM   23  C   UNL     1      -4.540  -0.836 -33.282  1.00  0.00    -0.061 A 
HETATM   24  C   UNL     1      -3.171  -0.339 -32.922  1.00  0.00     0.048 C 
HETATM   25  C   UNL     1      -4.685  -2.017 -34.019  1.00  0.00     0.013 A 
HETATM   26  C   UNL     1      -5.955  -2.492 -34.369  1.00  0.00    -0.061 A 
HETATM   27  C   UNL     1      -7.091  -1.771 -33.971  1.00  0.00     0.020 A 
HETATM   28  C   UNL     1      -6.082  -3.754 -35.171  1.00  0.00     0.048 C 
ENDBRANCH   1  21
TORSDOF 3
ENDMDL
MODEL 9
REMARK VINA RESULT:      -7.8      4.560      6.098
REMARK  3 active torsions:
REMARK  status: ('A' for Active; 'I' for Inactive)
REMARK    1  A    between atoms: C_4  and  C_5 
REMARK    2  A    between atoms: C_9  and  N_10 
REMARK       I    between atoms: N_10  and  C_11 
REMARK    3  A    between atoms: C_11  and  C_12 
ROOT
HETATM    1  C   UNL     1      -4.456   3.618 -31.806  1.00  0.00     0.090 A 
HETATM    2  N   UNL     1      -4.806   3.191 -30.579  1.00  0.00    -0.173 NA
HETATM    3  N   UNL     1      -6.044   2.696 -30.731  1.00  0.00    -0.262 N 
HETATM    4  H   UNL     1      -6.532   2.308 -29.927  1.00  0.00     0.191 HD
HETATM    5  C   UNL     1      -6.511   2.769 -32.014  1.00  0.00     0.126 A 
HETATM    6  C   UNL     1      -5.508   3.367 -32.736  1.00  0.00     0.084 A 
ENDROOT
BRANCH   5   7
HETATM    7  N   UNL     1      -7.744   2.310 -32.421  1.00  0.00    -0.306 N 
HETATM    8  C   UNL     1      -8.927   2.895 -32.002  1.00  0.00     0.281 C 
HETATM    9  O   UNL     1      -9.018   3.856 -31.254  1.00  0.00    -0.265 OA
HETATM   10  H   UNL     1      -7.817   1.492 -33.023  1.00  0.00     0.170 HD
BRANCH   8  11
HETATM   11  C   UNL     1     -10.164   2.194 -32.564  1.00  0.00     0.193 A 
HETATM   12  N   UNL     1     -11.188   2.968 -32.841  1.00  0.00    -0.241 NA
HETATM   13  C   UNL     1     -12.326   2.389 -33.367  1.00  0.00     0.054 A 
HETATM   14  C   UNL     1     -13.441   3.362 -33.651  1.00  0.00     0.072 C 
HETATM   15  C   UNL     1     -12.447   1.066 -33.616  1.00  0.00     0.033 A 
HETATM   16  C   UNL     1     -13.657   0.389 -34.194  1.00  0.00     0.070 C 
HETATM   17  N   UNL     1     -11.393   0.235 -33.327  1.00  0.00    -0.324 N 
HETATM   18  C   UNL     1     -10.214   0.687 -32.788  1.00  0.00     0.280 A 
HETATM   19  H   UNL     1     -11.454  -0.763 -33.492  1.00  0.00     0.169 HD
HETATM   20  O   UNL     1      -9.291  -0.058 -32.504  1.00  0.00    -0.265 OA
ENDBRANCH   8  11
ENDBRANCH   5   7
BRANCH   1  21
HETATM   21  C   UNL     1      -3.147   4.231 -32.059  1.00  0.00    -0.005 A 
HETATM   22  C   UNL     1      -2.757   4.547 -33.370  1.00  0.00     0.020 A 
HETATM   23  C   UNL     1      -1.517   5.143 -33.636  1.00  0.00    -0.061 A 
HETATM   24  C   UNL     1      -1.109   5.478 -35.040  1.00  0.00     0.048 C 
HETATM   25  C   UNL     1      -0.651   5.417 -32.570  1.00  0.00     0.013 A 
HETATM   26  C   UNL     1      -1.013   5.105 -31.254  1.00  0.00    -0.061 A 
HETATM   27  C   UNL     1      -2.262   4.514 -31.008  1.00  0.00     0.020 A 
HETATM   28  C   UNL     1      -0.062   5.397 -30.131  1.00  0.00     0.048 C 
ENDBRANCH   1  21
TORSDOF 3
ENDMDL
MODEL 10
REMARK VINA RESULT:      -7.6      5.222      7.050
REMARK  3 active torsions:
REMARK  status: ('A' for Active; 'I' for Inactive)
REMARK    1  A    between atoms: C_4  and  C_5 
REMARK    2  A    between atoms: C_9  and  N_10 
REMARK       I    between atoms: N_10  and  C_11 
REMARK    3  A    between atoms: C_11  and  C_12 
ROOT
HETATM    1  C   UNL     1      -3.892   4.183 -31.962  1.00  0.00     0.090 A 
HETATM    2  N   UNL     1      -3.610   2.893 -32.220  1.00  0.00    -0.173 NA
HETATM    3  N   UNL     1      -4.804   2.323 -32.442  1.00  0.00    -0.262 N 
HETATM    4  H   UNL     1      -4.852   1.330 -32.660  1.00  0.00     0.191 HD
HETATM    5  C   UNL     1      -5.855   3.194 -32.354  1.00  0.00     0.126 A 
HETATM    6  C   UNL     1      -5.298   4.408 -32.038  1.00  0.00     0.084 A 
ENDROOT
BRANCH   5   7
HETATM    7  N   UNL     1      -7.172   2.848 -32.560  1.00  0.00    -0.306 N 
HETATM    8  C   UNL     1      -7.584   2.130 -33.670  1.00  0.00     0.281 C 
HETATM    9  O   UNL     1      -6.857   1.728 -34.566  1.00  0.00    -0.265 OA
HETATM   10  H   UNL     1      -7.891   3.147 -31.906  1.00  0.00     0.170 HD
BRANCH   8  11
HETATM   11  C   UNL     1      -9.093   1.892 -33.692  1.00  0.00     0.193 A 
HETATM   12  N   UNL     1      -9.781   2.640 -34.524  1.00  0.00    -0.241 NA
HETATM   13  C   UNL     1     -11.148   2.454 -34.597  1.00  0.00     0.054 A 
HETATM   14  C   UNL     1     -11.844   3.359 -35.581  1.00  0.00     0.072 C 
HETATM   15  C   UNL     1     -11.821   1.542 -33.861  1.00  0.00     0.033 A 
HETATM   16  C   UNL     1     -13.303   1.296 -33.909  1.00  0.00     0.070 C 
HETATM   17  N   UNL     1     -11.125   0.754 -32.978  1.00  0.00    -0.324 N 
HETATM   18  C   UNL     1      -9.767   0.853 -32.803  1.00  0.00     0.280 A 
HETATM   19  H   UNL     1     -11.600   0.068 -32.404  1.00  0.00     0.169 HD
HETATM   20  O   UNL     1      -9.156   0.173 -31.996  1.00  0.00    -0.265 OA
ENDBRANCH   8  11
ENDBRANCH   5   7
BRANCH   1  21
HETATM   21  C   UNL     1      -2.832   5.155 -31.666  1.00  0.00    -0.005 A 
HETATM   22  C   UNL     1      -1.527   4.715 -31.392  1.00  0.00     0.020 A 
HETATM   23  C   UNL     1      -0.496   5.623 -31.118  1.00  0.00    -0.061 A 
HETATM   24  C   UNL     1       0.895   5.144 -30.827  1.00  0.00     0.048 C 
HETATM   25  C   UNL     1      -0.782   6.993 -31.109  1.00  0.00     0.013 A 
HETATM   26  C   UNL     1      -2.076   7.458 -31.371  1.00  0.00    -0.061 A 
HETATM   27  C   UNL     1      -3.094   6.533 -31.649  1.00  0.00     0.020 A 
HETATM   28  C   UNL     1      -2.358   8.932 -31.342  1.00  0.00     0.048 C 
ENDBRANCH   1  21
TORSDOF 3
ENDMDL
