MODEL 1
REMARK VINA RESULT:      -8.9      0.000      0.000
REMARK  8 active torsions:
REMARK  status: ('A' for Active; 'I' for Inactive)
REMARK    1  A    between atoms: N_3  and  C_4 
REMARK    2  A    between atoms: C_7  and  O_8 
REMARK    3  A    between atoms: C_13  and  C_14 
REMARK    4  A    between atoms: N_15  and  N_16 
REMARK       I    between atoms: N_16  and  C_17 
REMARK    5  A    between atoms: C_17  and  C_18 
REMARK    6  A    between atoms: C_18  and  O_19 
REMARK    7  A    between atoms: C_18  and  C_20 
REMARK    8  A    between atoms: C_18  and  C_26 
ROOT
HETATM    1  N   UNL     1      -4.922   2.469 -33.078  1.00  0.00    -0.244 N 
HETATM    2  C   UNL     1      -5.961   1.657 -32.629  1.00  0.00     0.282 C 
HETATM    3  O   UNL     1      -6.311   1.549 -31.449  1.00  0.00    -0.268 OA
HETATM    4  H   UNL     1      -4.577   2.335 -34.025  1.00  0.00     0.192 HD
ENDROOT
BRANCH   1   5
HETATM    5  N   UNL     1      -4.111   3.272 -32.320  1.00  0.00    -0.184 NA
HETATM    6  C   UNL     1      -3.541   4.299 -32.862  1.00  0.00     0.152 C 
BRANCH   6   7
HETATM    7  C   UNL     1      -2.665   5.114 -32.036  1.00  0.00     0.008 A 
HETATM    8  C   UNL     1      -3.069   5.992 -31.037  1.00  0.00     0.025 A 
HETATM    9  N   UNL     1      -1.940   6.649 -30.541  1.00  0.00    -0.319 N 
HETATM   10  C   UNL     1      -4.447   6.185 -30.490  1.00  0.00     0.070 C 
HETATM   11  C   UNL     1      -0.819   6.115 -31.168  1.00  0.00     0.014 A 
HETATM   12  C   UNL     1       0.583   6.583 -30.968  1.00  0.00     0.068 C 
HETATM   13  C   UNL     1      -1.251   5.174 -32.081  1.00  0.00     0.040 A 
BRANCH   9  14
HETATM   14  C   UNL     1      -1.940   7.714 -29.590  1.00  0.00     0.039 A 
HETATM   15  C   UNL     1      -2.084   9.039 -30.026  1.00  0.00     0.033 A 
HETATM   16  C   UNL     1      -2.062  10.089 -29.103  1.00  0.00     0.039 A 
HETATM   17  C   UNL     1      -1.900   9.808 -27.750  1.00  0.00     0.065 A 
HETATM   18  C   UNL     1      -1.761   8.498 -27.306  1.00  0.00     0.039 A 
HETATM   19  C   UNL     1      -1.779   7.446 -28.225  1.00  0.00     0.033 A 
BRANCH  17  20
HETATM   20  O   UNL     1      -1.871  10.801 -26.816  1.00  0.00    -0.361 OA
HETATM   21  H   UNL     1      -0.944  10.983 -26.586  1.00  0.00     0.217 HD
ENDBRANCH  17  20
ENDBRANCH   9  14
ENDBRANCH   6   7
ENDBRANCH   1   5
BRANCH   2  22
HETATM   22  C   UNL     1      -6.663   0.802 -33.745  1.00  0.00     0.195 C 
BRANCH  22  23
HETATM   23  O   UNL     1      -6.446   1.502 -34.993  1.00  0.00    -0.371 OA
HETATM   24  H   UNL     1      -7.245   1.320 -35.526  1.00  0.00     0.212 HD
ENDBRANCH  22  23
BRANCH  22  25
HETATM   25  C   UNL     1      -5.986  -0.577 -33.862  1.00  0.00    -0.010 A 
HETATM   26  C   UNL     1      -4.856  -0.922 -33.095  1.00  0.00     0.011 A 
HETATM   27  C   UNL     1      -4.224  -2.157 -33.261  1.00  0.00     0.001 A 
HETATM   28  C   UNL     1      -4.707  -3.069 -34.195  1.00  0.00     0.000 A 
HETATM   29  C   UNL     1      -5.822  -2.750 -34.964  1.00  0.00     0.001 A 
HETATM   30  C   UNL     1      -6.452  -1.514 -34.804  1.00  0.00     0.011 A 
ENDBRANCH  22  25
BRANCH  22  31
HETATM   31  C   UNL     1      -8.193   0.746 -33.609  1.00  0.00    -0.010 A 
HETATM   32  C   UNL     1      -8.863  -0.208 -32.823  1.00  0.00     0.011 A 
HETATM   33  C   UNL     1     -10.258  -0.218 -32.740  1.00  0.00     0.001 A 
HETATM   34  C   UNL     1     -11.012   0.725 -33.434  1.00  0.00     0.000 A 
HETATM   35  C   UNL     1     -10.373   1.689 -34.205  1.00  0.00     0.001 A 
HETATM   36  C   UNL     1      -8.979   1.703 -34.286  1.00  0.00     0.011 A 
ENDBRANCH  22  31
ENDBRANCH   2  22
TORSDOF 8
ENDMDL
MODEL 2
REMARK VINA RESULT:      -8.9      2.733     10.516
REMARK  8 active torsions:
REMARK  status: ('A' for Active; 'I' for Inactive)
REMARK    1  A    between atoms: N_3  and  C_4 
REMARK    2  A    between atoms: C_7  and  O_8 
REMARK    3  A    between atoms: C_13  and  C_14 
REMARK    4  A    between atoms: N_15  and  N_16 
REMARK       I    between atoms: N_16  and  C_17 
REMARK    5  A    between atoms: C_17  and  C_18 
REMARK    6  A    between atoms: C_18  and  O_19 
REMARK    7  A    between atoms: C_18  and  C_20 
REMARK    8  A    between atoms: C_18  and  C_26 
ROOT
HETATM    1  N   UNL     1      -3.171   4.821 -32.583  1.00  0.00    -0.244 N 
HETATM    2  C   UNL     1      -2.895   6.049 -33.179  1.00  0.00     0.282 C 
HETATM    3  O   UNL     1      -3.203   6.357 -34.335  1.00  0.00    -0.268 OA
HETATM    4  H   UNL     1      -2.702   4.588 -31.712  1.00  0.00     0.192 HD
ENDROOT
BRANCH   1   5
HETATM    5  N   UNL     1      -3.811   3.751 -33.151  1.00  0.00    -0.184 NA
HETATM    6  C   UNL     1      -4.729   3.128 -32.484  1.00  0.00     0.152 C 
BRANCH   6   7
HETATM    7  C   UNL     1      -5.369   1.980 -33.105  1.00  0.00     0.008 A 
HETATM    8  C   UNL     1      -4.967   0.655 -32.980  1.00  0.00     0.025 A 
HETATM    9  N   UNL     1      -5.782  -0.135 -33.795  1.00  0.00    -0.319 N 
HETATM   10  C   UNL     1      -3.906   0.100 -32.083  1.00  0.00     0.070 C 
HETATM   11  C   UNL     1      -6.752   0.686 -34.360  1.00  0.00     0.014 A 
HETATM   12  C   UNL     1      -7.783   0.247 -35.345  1.00  0.00     0.068 C 
HETATM   13  C   UNL     1      -6.510   1.979 -33.942  1.00  0.00     0.040 A 
BRANCH   9  14
HETATM   14  C   UNL     1      -5.620  -1.532 -34.042  1.00  0.00     0.039 A 
HETATM   15  C   UNL     1      -4.339  -2.103 -34.006  1.00  0.00     0.033 A 
HETATM   16  C   UNL     1      -4.171  -3.466 -34.269  1.00  0.00     0.039 A 
HETATM   17  C   UNL     1      -5.282  -4.250 -34.562  1.00  0.00     0.065 A 
HETATM   18  C   UNL     1      -6.556  -3.695 -34.596  1.00  0.00     0.039 A 
HETATM   19  C   UNL     1      -6.729  -2.333 -34.337  1.00  0.00     0.033 A 
BRANCH  17  20
HETATM   20  O   UNL     1      -5.163  -5.582 -34.826  1.00  0.00    -0.361 OA
HETATM   21  H   UNL     1      -5.357  -5.729 -35.767  1.00  0.00     0.217 HD
ENDBRANCH  17  20
ENDBRANCH   9  14
ENDBRANCH   6   7
ENDBRANCH   1   5
BRANCH   2  22
HETATM   22  C   UNL     1      -2.083   7.053 -32.282  1.00  0.00     0.195 C 
BRANCH  22  23
HETATM   23  O   UNL     1      -1.259   7.830 -33.182  1.00  0.00    -0.371 OA
HETATM   24  H   UNL     1      -1.098   7.244 -33.947  1.00  0.00     0.212 HD
ENDBRANCH  22  23
BRANCH  22  25
HETATM   25  C   UNL     1      -3.043   8.026 -31.572  1.00  0.00    -0.010 A 
HETATM   26  C   UNL     1      -2.634   9.311 -31.160  1.00  0.00     0.011 A 
HETATM   27  C   UNL     1      -3.505  10.154 -30.466  1.00  0.00     0.001 A 
HETATM   28  C   UNL     1      -4.798   9.732 -30.169  1.00  0.00     0.000 A 
HETATM   29  C   UNL     1      -5.223   8.467 -30.565  1.00  0.00     0.001 A 
HETATM   30  C   UNL     1      -4.353   7.620 -31.254  1.00  0.00     0.011 A 
ENDBRANCH  22  25
BRANCH  22  31
HETATM   31  C   UNL     1      -1.072   6.367 -31.348  1.00  0.00    -0.010 A 
HETATM   32  C   UNL     1      -0.029   5.546 -31.812  1.00  0.00     0.011 A 
HETATM   33  C   UNL     1       0.860   4.942 -30.917  1.00  0.00     0.001 A 
HETATM   34  C   UNL     1       0.728   5.147 -29.546  1.00  0.00     0.000 A 
HETATM   35  C   UNL     1      -0.285   5.968 -29.064  1.00  0.00     0.001 A 
HETATM   36  C   UNL     1      -1.171   6.576 -29.956  1.00  0.00     0.011 A 
ENDBRANCH  22  31
ENDBRANCH   2  22
TORSDOF 8
ENDMDL
MODEL 3
REMARK VINA RESULT:      -8.7      2.068      4.423
REMARK  8 active torsions:
REMARK  status: ('A' for Active; 'I' for Inactive)
REMARK    1  A    between atoms: N_3  and  C_4 
REMARK    2  A    between atoms: C_7  and  O_8 
REMARK    3  A    between atoms: C_13  and  C_14 
REMARK    4  A    between atoms: N_15  and  N_16 
REMARK       I    between atoms: N_16  and  C_17 
REMARK    5  A    between atoms: C_17  and  C_18 
REMARK    6  A    between atoms: C_18  and  O_19 
REMARK    7  A    between atoms: C_18  and  C_20 
REMARK    8  A    between atoms: C_18  and  C_26 
ROOT
HETATM    1  N   UNL     1      -7.432   2.965 -32.407  1.00  0.00    -0.244 N 
HETATM    2  C   UNL     1      -8.622   2.488 -31.862  1.00  0.00     0.282 C 
HETATM    3  O   UNL     1      -9.195   2.978 -30.883  1.00  0.00    -0.268 OA
HETATM    4  H   UNL     1      -6.935   2.380 -33.073  1.00  0.00     0.192 HD
ENDROOT
BRANCH   1   5
HETATM    5  N   UNL     1      -6.690   4.030 -31.971  1.00  0.00    -0.184 NA
HETATM    6  C   UNL     1      -5.557   4.295 -32.536  1.00  0.00     0.152 C 
BRANCH   6   7
HETATM    7  C   UNL     1      -4.781   5.415 -32.031  1.00  0.00     0.008 A 
HETATM    8  C   UNL     1      -3.515   5.341 -31.459  1.00  0.00     0.025 A 
HETATM    9  N   UNL     1      -3.150   6.616 -31.022  1.00  0.00    -0.319 N 
HETATM   10  C   UNL     1      -2.619   4.147 -31.373  1.00  0.00     0.070 C 
HETATM   11  C   UNL     1      -4.151   7.506 -31.402  1.00  0.00     0.014 A 
HETATM   12  C   UNL     1      -4.178   8.960 -31.072  1.00  0.00     0.068 C 
HETATM   13  C   UNL     1      -5.150   6.782 -32.021  1.00  0.00     0.040 A 
BRANCH   9  14
HETATM   14  C   UNL     1      -1.978   6.944 -30.275  1.00  0.00     0.039 A 
HETATM   15  C   UNL     1      -2.063   7.126 -28.887  1.00  0.00     0.033 A 
HETATM   16  C   UNL     1      -0.924   7.468 -28.153  1.00  0.00     0.039 A 
HETATM   17  C   UNL     1       0.293   7.622 -28.809  1.00  0.00     0.065 A 
HETATM   18  C   UNL     1       0.390   7.440 -30.183  1.00  0.00     0.039 A 
HETATM   19  C   UNL     1      -0.747   7.101 -30.922  1.00  0.00     0.033 A 
BRANCH  17  20
HETATM   20  O   UNL     1       1.428   7.958 -28.133  1.00  0.00    -0.361 OA
HETATM   21  H   UNL     1       2.128   7.327 -28.369  1.00  0.00     0.217 HD
ENDBRANCH  17  20
ENDBRANCH   9  14
ENDBRANCH   6   7
ENDBRANCH   1   5
BRANCH   2  22
HETATM   22  C   UNL     1      -9.198   1.200 -32.554  1.00  0.00     0.195 C 
BRANCH  22  23
HETATM   23  O   UNL     1      -9.649   0.331 -31.489  1.00  0.00    -0.371 OA
HETATM   24  H   UNL     1     -10.046   0.930 -30.825  1.00  0.00     0.212 HD
ENDBRANCH  22  23
BRANCH  22  25
HETATM   25  C   UNL     1     -10.426   1.561 -33.411  1.00  0.00    -0.010 A 
HETATM   26  C   UNL     1     -11.540   0.705 -33.518  1.00  0.00     0.011 A 
HETATM   27  C   UNL     1     -12.618   1.027 -34.348  1.00  0.00     0.001 A 
HETATM   28  C   UNL     1     -12.603   2.208 -35.085  1.00  0.00     0.000 A 
HETATM   29  C   UNL     1     -11.513   3.069 -34.995  1.00  0.00     0.001 A 
HETATM   30  C   UNL     1     -10.432   2.746 -34.172  1.00  0.00     0.011 A 
ENDBRANCH  22  25
BRANCH  22  31
HETATM   31  C   UNL     1      -8.136   0.367 -33.291  1.00  0.00    -0.010 A 
HETATM   32  C   UNL     1      -8.035   0.313 -34.692  1.00  0.00     0.011 A 
HETATM   33  C   UNL     1      -7.054  -0.467 -35.311  1.00  0.00     0.001 A 
HETATM   34  C   UNL     1      -6.152  -1.203 -34.546  1.00  0.00     0.000 A 
HETATM   35  C   UNL     1      -6.220  -1.152 -33.158  1.00  0.00     0.001 A 
HETATM   36  C   UNL     1      -7.197  -0.371 -32.538  1.00  0.00     0.011 A 
ENDBRANCH  22  31
ENDBRANCH   2  22
TORSDOF 8
ENDMDL
MODEL 4
REMARK VINA RESULT:      -8.7      2.599     10.315
REMARK  8 active torsions:
REMARK  status: ('A' for Active; 'I' for Inactive)
REMARK    1  A    between atoms: N_3  and  C_4 
REMARK    2  A    between atoms: C_7  and  O_8 
REMARK    3  A    between atoms: C_13  and  C_14 
REMARK    4  A    between atoms: N_15  and  N_16 
REMARK       I    between atoms: N_16  and  C_17 
REMARK    5  A    between atoms: C_17  and  C_18 
REMARK    6  A    between atoms: C_18  and  O_19 
REMARK    7  A    between atoms: C_18  and  C_20 
REMARK    8  A    between atoms: C_18  and  C_26 
ROOT
HETATM    1  N   UNL     1      -4.123   4.796 -30.955  1.00  0.00    -0.244 N 
HETATM    2  C   UNL     1      -4.323   6.174 -30.979  1.00  0.00     0.282 C 
HETATM    3  O   UNL     1      -5.051   6.767 -31.783  1.00  0.00    -0.268 OA
HETATM    4  H   UNL     1      -3.356   4.426 -30.400  1.00  0.00     0.192 HD
ENDROOT
BRANCH   1   5
HETATM    5  N   UNL     1      -4.673   3.865 -31.797  1.00  0.00    -0.184 NA
HETATM    6  C   UNL     1      -4.703   2.621 -31.442  1.00  0.00     0.152 C 
BRANCH   6   7
HETATM    7  C   UNL     1      -5.268   1.655 -32.369  1.00  0.00     0.008 A 
HETATM    8  C   UNL     1      -5.016   0.287 -32.378  1.00  0.00     0.025 A 
HETATM    9  N   UNL     1      -5.675  -0.279 -33.473  1.00  0.00    -0.319 N 
HETATM   10  C   UNL     1      -4.248  -0.509 -31.371  1.00  0.00     0.070 C 
HETATM   11  C   UNL     1      -6.413   0.723 -34.096  1.00  0.00     0.014 A 
HETATM   12  C   UNL     1      -7.212   0.551 -35.344  1.00  0.00     0.068 C 
HETATM   13  C   UNL     1      -6.174   1.906 -33.428  1.00  0.00     0.040 A 
BRANCH   9  14
HETATM   14  C   UNL     1      -5.573  -1.635 -33.904  1.00  0.00     0.039 A 
HETATM   15  C   UNL     1      -6.730  -2.346 -34.254  1.00  0.00     0.033 A 
HETATM   16  C   UNL     1      -6.640  -3.682 -34.656  1.00  0.00     0.039 A 
HETATM   17  C   UNL     1      -5.395  -4.298 -34.709  1.00  0.00     0.065 A 
HETATM   18  C   UNL     1      -4.240  -3.602 -34.369  1.00  0.00     0.039 A 
HETATM   19  C   UNL     1      -4.326  -2.268 -33.964  1.00  0.00     0.033 A 
BRANCH  17  20
HETATM   20  O   UNL     1      -5.261  -5.599 -35.093  1.00  0.00    -0.361 OA
HETATM   21  H   UNL     1      -4.381  -5.913 -34.824  1.00  0.00     0.217 HD
ENDBRANCH  17  20
ENDBRANCH   9  14
ENDBRANCH   6   7
ENDBRANCH   1   5
BRANCH   2  22
HETATM   22  C   UNL     1      -3.493   6.982 -29.917  1.00  0.00     0.195 C 
BRANCH  22  23
HETATM   23  O   UNL     1      -3.695   6.316 -28.648  1.00  0.00    -0.371 OA
HETATM   24  H   UNL     1      -4.424   5.684 -28.808  1.00  0.00     0.212 HD
ENDBRANCH  22  23
BRANCH  22  25
HETATM   25  C   UNL     1      -1.990   6.905 -30.247  1.00  0.00    -0.010 A 
HETATM   26  C   UNL     1      -1.000   6.984 -29.247  1.00  0.00     0.011 A 
HETATM   27  C   UNL     1       0.358   6.971 -29.576  1.00  0.00     0.001 A 
HETATM   28  C   UNL     1       0.753   6.879 -30.908  1.00  0.00     0.000 A 
HETATM   29  C   UNL     1      -0.207   6.800 -31.913  1.00  0.00     0.001 A 
HETATM   30  C   UNL     1      -1.565   6.819 -31.586  1.00  0.00     0.011 A 
ENDBRANCH  22  25
BRANCH  22  31
HETATM   31  C   UNL     1      -4.016   8.407 -29.678  1.00  0.00    -0.010 A 
HETATM   32  C   UNL     1      -3.504   9.537 -30.342  1.00  0.00     0.011 A 
HETATM   33  C   UNL     1      -4.013  10.813 -30.083  1.00  0.00     0.001 A 
HETATM   34  C   UNL     1      -5.042  10.987 -29.161  1.00  0.00     0.000 A 
HETATM   35  C   UNL     1      -5.576   9.884 -28.504  1.00  0.00     0.001 A 
HETATM   36  C   UNL     1      -5.072   8.608 -28.765  1.00  0.00     0.011 A 
ENDBRANCH  22  31
ENDBRANCH   2  22
TORSDOF 8
ENDMDL
MODEL 5
REMARK VINA RESULT:      -8.7      1.610      2.367
REMARK  8 active torsions:
REMARK  status: ('A' for Active; 'I' for Inactive)
REMARK    1  A    between atoms: N_3  and  C_4 
REMARK    2  A    between atoms: C_7  and  O_8 
REMARK    3  A    between atoms: C_13  and  C_14 
REMARK    4  A    between atoms: N_15  and  N_16 
REMARK       I    between atoms: N_16  and  C_17 
REMARK    5  A    between atoms: C_17  and  C_18 
REMARK    6  A    between atoms: C_18  and  O_19 
REMARK    7  A    between atoms: C_18  and  C_20 
REMARK    8  A    between atoms: C_18  and  C_26 
ROOT
HETATM    1  N   UNL     1      -5.459   3.402 -32.365  1.00  0.00    -0.244 N 
HETATM    2  C   UNL     1      -6.312   2.345 -32.059  1.00  0.00     0.282 C 
HETATM    3  O   UNL     1      -6.695   2.054 -30.920  1.00  0.00    -0.268 OA
HETATM    4  H   UNL     1      -5.040   3.435 -33.290  1.00  0.00     0.192 HD
ENDROOT
BRANCH   1   5
HETATM    5  N   UNL     1      -4.893   4.290 -31.488  1.00  0.00    -0.184 NA
HETATM    6  C   UNL     1      -4.165   5.259 -31.940  1.00  0.00     0.152 C 
BRANCH   6   7
HETATM    7  C   UNL     1      -3.557   6.167 -30.981  1.00  0.00     0.008 A 
HETATM    8  C   UNL     1      -2.289   6.038 -30.426  1.00  0.00     0.025 A 
HETATM    9  N   UNL     1      -2.110   7.057 -29.487  1.00  0.00    -0.319 N 
HETATM   10  C   UNL     1      -1.226   5.050 -30.789  1.00  0.00     0.070 C 
HETATM   11  C   UNL     1      -3.233   7.877 -29.521  1.00  0.00     0.014 A 
HETATM   12  C   UNL     1      -3.470   9.048 -28.627  1.00  0.00     0.068 C 
HETATM   13  C   UNL     1      -4.121   7.344 -30.433  1.00  0.00     0.040 A 
BRANCH   9  14
HETATM   14  C   UNL     1      -0.991   7.205 -28.613  1.00  0.00     0.039 A 
HETATM   15  C   UNL     1      -0.991   6.565 -27.365  1.00  0.00     0.033 A 
HETATM   16  C   UNL     1       0.092   6.723 -26.494  1.00  0.00     0.039 A 
HETATM   17  C   UNL     1       1.168   7.517 -26.877  1.00  0.00     0.065 A 
HETATM   18  C   UNL     1       1.180   8.153 -28.113  1.00  0.00     0.039 A 
HETATM   19  C   UNL     1       0.099   8.000 -28.985  1.00  0.00     0.033 A 
BRANCH  17  20
HETATM   20  O   UNL     1       2.242   7.701 -26.058  1.00  0.00    -0.361 OA
HETATM   21  H   UNL     1       2.903   8.237 -26.529  1.00  0.00     0.217 HD
ENDBRANCH  17  20
ENDBRANCH   9  14
ENDBRANCH   6   7
ENDBRANCH   1   5
BRANCH   2  22
HETATM   22  C   UNL     1      -6.741   1.463 -33.288  1.00  0.00     0.195 C 
BRANCH  22  23
HETATM   23  O   UNL     1      -6.437   2.237 -34.471  1.00  0.00    -0.371 OA
HETATM   24  H   UNL     1      -7.307   2.463 -34.856  1.00  0.00     0.212 HD
ENDBRANCH  22  23
BRANCH  22  25
HETATM   25  C   UNL     1      -5.891   0.179 -33.341  1.00  0.00    -0.010 A 
HETATM   26  C   UNL     1      -4.764  -0.007 -32.516  1.00  0.00     0.011 A 
HETATM   27  C   UNL     1      -3.974  -1.154 -32.624  1.00  0.00     0.001 A 
HETATM   28  C   UNL     1      -4.294  -2.137 -33.557  1.00  0.00     0.000 A 
HETATM   29  C   UNL     1      -5.402  -1.975 -34.383  1.00  0.00     0.001 A 
HETATM   30  C   UNL     1      -6.189  -0.826 -34.281  1.00  0.00     0.011 A 
ENDBRANCH  22  25
BRANCH  22  31
HETATM   31  C   UNL     1      -8.256   1.223 -33.377  1.00  0.00    -0.010 A 
HETATM   32  C   UNL     1      -8.911   0.175 -32.705  1.00  0.00     0.011 A 
HETATM   33  C   UNL     1     -10.293  -0.003 -32.827  1.00  0.00     0.001 A 
HETATM   34  C   UNL     1     -11.047   0.863 -33.615  1.00  0.00     0.000 A 
HETATM   35  C   UNL     1     -10.426   1.917 -34.276  1.00  0.00     0.001 A 
HETATM   36  C   UNL     1      -9.047   2.098 -34.152  1.00  0.00     0.011 A 
ENDBRANCH  22  31
ENDBRANCH   2  22
TORSDOF 8
ENDMDL
MODEL 6
REMARK VINA RESULT:      -8.3      0.989      3.617
REMARK  8 active torsions:
REMARK  status: ('A' for Active; 'I' for Inactive)
REMARK    1  A    between atoms: N_3  and  C_4 
REMARK    2  A    between atoms: C_7  and  O_8 
REMARK    3  A    between atoms: C_13  and  C_14 
REMARK    4  A    between atoms: N_15  and  N_16 
REMARK       I    between atoms: N_16  and  C_17 
REMARK    5  A    between atoms: C_17  and  C_18 
REMARK    6  A    between atoms: C_18  and  O_19 
REMARK    7  A    between atoms: C_18  and  C_20 
REMARK    8  A    between atoms: C_18  and  C_26 
ROOT
HETATM    1  N   UNL     1      -5.424   1.803 -31.444  1.00  0.00    -0.244 N 
HETATM    2  C   UNL     1      -6.070   1.585 -32.659  1.00  0.00     0.282 C 
HETATM    3  O   UNL     1      -5.994   2.330 -33.642  1.00  0.00    -0.268 OA
HETATM    4  H   UNL     1      -5.710   1.254 -30.638  1.00  0.00     0.192 HD
ENDROOT
BRANCH   1   5
HETATM    5  N   UNL     1      -4.611   2.856 -31.116  1.00  0.00    -0.184 NA
HETATM    6  C   UNL     1      -3.747   3.289 -31.977  1.00  0.00     0.152 C 
BRANCH   6   7
HETATM    7  C   UNL     1      -2.881   4.390 -31.587  1.00  0.00     0.008 A 
HETATM    8  C   UNL     1      -3.275   5.538 -30.909  1.00  0.00     0.025 A 
HETATM    9  N   UNL     1      -2.173   6.390 -30.801  1.00  0.00    -0.319 N 
HETATM   10  C   UNL     1      -4.612   5.832 -30.305  1.00  0.00     0.070 C 
HETATM   11  C   UNL     1      -1.067   5.734 -31.333  1.00  0.00     0.014 A 
HETATM   12  C   UNL     1       0.297   6.321 -31.468  1.00  0.00     0.068 C 
HETATM   13  C   UNL     1      -1.489   4.510 -31.813  1.00  0.00     0.040 A 
BRANCH   9  14
HETATM   14  C   UNL     1      -2.188   7.718 -30.279  1.00  0.00     0.039 A 
HETATM   15  C   UNL     1      -1.821   7.948 -28.945  1.00  0.00     0.033 A 
HETATM   16  C   UNL     1      -1.854   9.244 -28.420  1.00  0.00     0.039 A 
HETATM   17  C   UNL     1      -2.249  10.301 -29.233  1.00  0.00     0.065 A 
HETATM   18  C   UNL     1      -2.610  10.086 -30.557  1.00  0.00     0.039 A 
HETATM   19  C   UNL     1      -2.582   8.793 -31.085  1.00  0.00     0.033 A 
BRANCH  17  20
HETATM   20  O   UNL     1      -2.298  11.580 -28.762  1.00  0.00    -0.361 OA
HETATM   21  H   UNL     1      -1.627  11.680 -28.066  1.00  0.00     0.217 HD
ENDBRANCH  17  20
ENDBRANCH   9  14
ENDBRANCH   6   7
ENDBRANCH   1   5
BRANCH   2  22
HETATM   22  C   UNL     1      -6.991   0.312 -32.700  1.00  0.00     0.195 C 
BRANCH  22  23
HETATM   23  O   UNL     1      -7.121  -0.142 -31.332  1.00  0.00    -0.371 OA
HETATM   24  H   UNL     1      -6.887  -1.091 -31.358  1.00  0.00     0.212 HD
ENDBRANCH  22  23
BRANCH  22  25
HETATM   25  C   UNL     1      -8.399   0.690 -33.199  1.00  0.00    -0.010 A 
HETATM   26  C   UNL     1      -8.610   1.746 -34.108  1.00  0.00     0.011 A 
HETATM   27  C   UNL     1      -9.901   2.109 -34.501  1.00  0.00     0.001 A 
HETATM   28  C   UNL     1     -11.003   1.426 -33.995  1.00  0.00     0.000 A 
HETATM   29  C   UNL     1     -10.819   0.380 -33.096  1.00  0.00     0.001 A 
HETATM   30  C   UNL     1      -9.530   0.020 -32.697  1.00  0.00     0.011 A 
ENDBRANCH  22  25
BRANCH  22  31
HETATM   31  C   UNL     1      -6.360  -0.883 -33.432  1.00  0.00    -0.010 A 
HETATM   32  C   UNL     1      -7.099  -1.776 -34.228  1.00  0.00     0.011 A 
HETATM   33  C   UNL     1      -6.476  -2.852 -34.867  1.00  0.00     0.001 A 
HETATM   34  C   UNL     1      -5.105  -3.055 -34.729  1.00  0.00     0.000 A 
HETATM   35  C   UNL     1      -4.349  -2.176 -33.961  1.00  0.00     0.001 A 
HETATM   36  C   UNL     1      -4.970  -1.099 -33.325  1.00  0.00     0.011 A 
ENDBRANCH  22  31
ENDBRANCH   2  22
TORSDOF 8
ENDMDL
MODEL 7
REMARK VINA RESULT:      -8.1      4.922      9.149
REMARK  8 active torsions:
REMARK  status: ('A' for Active; 'I' for Inactive)
REMARK    1  A    between atoms: N_3  and  C_4 
REMARK    2  A    between atoms: C_7  and  O_8 
REMARK    3  A    between atoms: C_13  and  C_14 
REMARK    4  A    between atoms: N_15  and  N_16 
REMARK       I    between atoms: N_16  and  C_17 
REMARK    5  A    between atoms: C_17  and  C_18 
REMARK    6  A    between atoms: C_18  and  O_19 
REMARK    7  A    between atoms: C_18  and  C_20 
REMARK    8  A    between atoms: C_18  and  C_26 
ROOT
HETATM    1  N   UNL     1      -8.613   1.004 -33.514  1.00  0.00    -0.244 N 
HETATM    2  C   UNL     1      -7.693   0.225 -32.818  1.00  0.00     0.282 C 
HETATM    3  O   UNL     1      -7.863  -0.215 -31.675  1.00  0.00    -0.268 OA
HETATM    4  H   UNL     1      -8.303   1.486 -34.354  1.00  0.00     0.192 HD
ENDROOT
BRANCH   1   5
HETATM    5  N   UNL     1      -9.842   1.424 -33.077  1.00  0.00    -0.184 NA
HETATM    6  C   UNL     1     -10.720   1.835 -33.934  1.00  0.00     0.152 C 
BRANCH   6   7
HETATM    7  C   UNL     1     -12.003   2.300 -33.434  1.00  0.00     0.008 A 
HETATM    8  C   UNL     1     -12.271   3.566 -32.925  1.00  0.00     0.025 A 
HETATM    9  N   UNL     1     -13.592   3.591 -32.470  1.00  0.00    -0.319 N 
HETATM   10  C   UNL     1     -11.369   4.758 -32.915  1.00  0.00     0.070 C 
HETATM   11  C   UNL     1     -14.177   2.366 -32.777  1.00  0.00     0.014 A 
HETATM   12  C   UNL     1     -15.563   1.959 -32.405  1.00  0.00     0.068 C 
HETATM   13  C   UNL     1     -13.216   1.572 -33.369  1.00  0.00     0.040 A 
BRANCH   9  14
HETATM   14  C   UNL     1     -14.218   4.666 -31.770  1.00  0.00     0.039 A 
HETATM   15  C   UNL     1     -15.090   5.528 -32.451  1.00  0.00     0.033 A 
HETATM   16  C   UNL     1     -15.689   6.596 -31.778  1.00  0.00     0.039 A 
HETATM   17  C   UNL     1     -15.417   6.795 -30.429  1.00  0.00     0.065 A 
HETATM   18  C   UNL     1     -14.558   5.944 -29.743  1.00  0.00     0.039 A 
HETATM   19  C   UNL     1     -13.954   4.877 -30.412  1.00  0.00     0.033 A 
BRANCH  17  20
HETATM   20  O   UNL     1     -15.978   7.825 -29.734  1.00  0.00    -0.361 OA
HETATM   21  H   UNL     1     -15.275   8.446 -29.478  1.00  0.00     0.217 HD
ENDBRANCH  17  20
ENDBRANCH   9  14
ENDBRANCH   6   7
ENDBRANCH   1   5
BRANCH   2  22
HETATM   22  C   UNL     1      -6.338  -0.033 -33.572  1.00  0.00     0.195 C 
BRANCH  22  23
HETATM   23  O   UNL     1      -6.416   0.705 -34.814  1.00  0.00    -0.371 OA
HETATM   24  H   UNL     1      -6.767   0.066 -35.466  1.00  0.00     0.212 HD
ENDBRANCH  22  23
BRANCH  22  25
HETATM   25  C   UNL     1      -5.161   0.543 -32.762  1.00  0.00    -0.010 A 
HETATM   26  C   UNL     1      -4.469  -0.222 -31.802  1.00  0.00     0.011 A 
HETATM   27  C   UNL     1      -3.443   0.340 -31.038  1.00  0.00     0.001 A 
HETATM   28  C   UNL     1      -3.090   1.674 -31.217  1.00  0.00     0.000 A 
HETATM   29  C   UNL     1      -3.760   2.450 -32.159  1.00  0.00     0.001 A 
HETATM   30  C   UNL     1      -4.790   1.892 -32.920  1.00  0.00     0.011 A 
ENDBRANCH  22  25
BRANCH  22  31
HETATM   31  C   UNL     1      -6.147  -1.492 -34.016  1.00  0.00    -0.010 A 
HETATM   32  C   UNL     1      -7.218  -2.363 -34.283  1.00  0.00     0.011 A 
HETATM   33  C   UNL     1      -6.987  -3.685 -34.678  1.00  0.00     0.001 A 
HETATM   34  C   UNL     1      -5.685  -4.161 -34.817  1.00  0.00     0.000 A 
HETATM   35  C   UNL     1      -4.609  -3.314 -34.575  1.00  0.00     0.001 A 
HETATM   36  C   UNL     1      -4.838  -1.993 -34.185  1.00  0.00     0.011 A 
ENDBRANCH  22  31
ENDBRANCH   2  22
TORSDOF 8
ENDMDL
MODEL 8
REMARK VINA RESULT:      -8.0      2.493     10.527
REMARK  8 active torsions:
REMARK  status: ('A' for Active; 'I' for Inactive)
REMARK    1  A    between atoms: N_3  and  C_4 
REMARK    2  A    between atoms: C_7  and  O_8 
REMARK    3  A    between atoms: C_13  and  C_14 
REMARK    4  A    between atoms: N_15  and  N_16 
REMARK       I    between atoms: N_16  and  C_17 
REMARK    5  A    between atoms: C_17  and  C_18 
REMARK    6  A    between atoms: C_18  and  O_19 
REMARK    7  A    between atoms: C_18  and  C_20 
REMARK    8  A    between atoms: C_18  and  C_26 
ROOT
HETATM    1  N   UNL     1      -4.073   5.289 -31.256  1.00  0.00    -0.244 N 
HETATM    2  C   UNL     1      -4.439   6.626 -31.122  1.00  0.00     0.282 C 
HETATM    3  O   UNL     1      -5.478   7.122 -31.573  1.00  0.00    -0.268 OA
HETATM    4  H   UNL     1      -3.117   5.024 -31.036  1.00  0.00     0.192 HD
ENDROOT
BRANCH   1   5
HETATM    5  N   UNL     1      -4.769   4.301 -31.900  1.00  0.00    -0.184 NA
HETATM    6  C   UNL     1      -4.317   3.088 -31.889  1.00  0.00     0.152 C 
BRANCH   6   7
HETATM    7  C   UNL     1      -5.065   2.068 -32.605  1.00  0.00     0.008 A 
HETATM    8  C   UNL     1      -4.795   0.704 -32.601  1.00  0.00     0.025 A 
HETATM    9  N   UNL     1      -5.681   0.074 -33.479  1.00  0.00    -0.319 N 
HETATM   10  C   UNL     1      -3.797  -0.029 -31.764  1.00  0.00     0.070 C 
HETATM   11  C   UNL     1      -6.565   1.035 -33.963  1.00  0.00     0.014 A 
HETATM   12  C   UNL     1      -7.631   0.788 -34.976  1.00  0.00     0.068 C 
HETATM   13  C   UNL     1      -6.198   2.255 -33.433  1.00  0.00     0.040 A 
BRANCH   9  14
HETATM   14  C   UNL     1      -5.657  -1.303 -33.850  1.00  0.00     0.039 A 
HETATM   15  C   UNL     1      -4.429  -1.948 -34.062  1.00  0.00     0.033 A 
HETATM   16  C   UNL     1      -4.398  -3.291 -34.447  1.00  0.00     0.039 A 
HETATM   17  C   UNL     1      -5.592  -3.983 -34.615  1.00  0.00     0.065 A 
HETATM   18  C   UNL     1      -6.815  -3.356 -34.404  1.00  0.00     0.039 A 
HETATM   19  C   UNL     1      -6.851  -2.013 -34.022  1.00  0.00     0.033 A 
BRANCH  17  20
HETATM   20  O   UNL     1      -5.608  -5.293 -34.993  1.00  0.00    -0.361 OA
HETATM   21  H   UNL     1      -5.137  -5.378 -35.838  1.00  0.00     0.217 HD
ENDBRANCH  17  20
ENDBRANCH   9  14
ENDBRANCH   6   7
ENDBRANCH   1   5
BRANCH   2  22
HETATM   22  C   UNL     1      -3.389   7.529 -30.380  1.00  0.00     0.195 C 
BRANCH  22  23
HETATM   23  O   UNL     1      -3.439   8.825 -31.021  1.00  0.00    -0.371 OA
HETATM   24  H   UNL     1      -4.389   8.987 -31.189  1.00  0.00     0.212 HD
ENDBRANCH  22  23
BRANCH  22  25
HETATM   25  C   UNL     1      -3.800   7.723 -28.908  1.00  0.00    -0.010 A 
HETATM   26  C   UNL     1      -3.435   8.869 -28.175  1.00  0.00     0.011 A 
HETATM   27  C   UNL     1      -3.770   8.996 -26.824  1.00  0.00     0.001 A 
HETATM   28  C   UNL     1      -4.473   7.981 -26.181  1.00  0.00     0.000 A 
HETATM   29  C   UNL     1      -4.844   6.839 -26.885  1.00  0.00     0.001 A 
HETATM   30  C   UNL     1      -4.505   6.708 -28.233  1.00  0.00     0.011 A 
ENDBRANCH  22  25
BRANCH  22  31
HETATM   31  C   UNL     1      -1.934   7.073 -30.575  1.00  0.00    -0.010 A 
HETATM   32  C   UNL     1      -1.274   7.112 -31.817  1.00  0.00     0.011 A 
HETATM   33  C   UNL     1       0.049   6.677 -31.940  1.00  0.00     0.001 A 
HETATM   34  C   UNL     1       0.741   6.201 -30.829  1.00  0.00     0.000 A 
HETATM   35  C   UNL     1       0.116   6.168 -29.587  1.00  0.00     0.001 A 
HETATM   36  C   UNL     1      -1.204   6.605 -29.461  1.00  0.00     0.011 A 
ENDBRANCH  22  31
ENDBRANCH   2  22
TORSDOF 8
ENDMDL
MODEL 9
REMARK VINA RESULT:      -7.9      4.701     10.008
REMARK  8 active torsions:
REMARK  status: ('A' for Active; 'I' for Inactive)
REMARK    1  A    between atoms: N_3  and  C_4 
REMARK    2  A    between atoms: C_7  and  O_8 
REMARK    3  A    between atoms: C_13  and  C_14 
REMARK    4  A    between atoms: N_15  and  N_16 
REMARK       I    between atoms: N_16  and  C_17 
REMARK    5  A    between atoms: C_17  and  C_18 
REMARK    6  A    between atoms: C_18  and  O_19 
REMARK    7  A    between atoms: C_18  and  C_20 
REMARK    8  A    between atoms: C_18  and  C_26 
ROOT
HETATM    1  N   UNL     1      -8.737   1.826 -33.146  1.00  0.00    -0.244 N 
HETATM    2  C   UNL     1      -7.767   0.974 -32.623  1.00  0.00     0.282 C 
HETATM    3  O   UNL     1      -7.863   0.370 -31.549  1.00  0.00    -0.268 OA
HETATM    4  H   UNL     1      -8.484   2.431 -33.922  1.00  0.00     0.192 HD
ENDROOT
BRANCH   1   5
HETATM    5  N   UNL     1      -9.943   2.151 -32.583  1.00  0.00    -0.184 NA
HETATM    6  C   UNL     1     -10.404   3.354 -32.708  1.00  0.00     0.152 C 
BRANCH   6   7
HETATM    7  C   UNL     1     -11.672   3.674 -32.075  1.00  0.00     0.008 A 
HETATM    8  C   UNL     1     -12.932   3.323 -32.548  1.00  0.00     0.025 A 
HETATM    9  N   UNL     1     -13.895   3.890 -31.709  1.00  0.00    -0.319 N 
HETATM   10  C   UNL     1     -13.261   2.429 -33.701  1.00  0.00     0.070 C 
HETATM   11  C   UNL     1     -13.234   4.521 -30.659  1.00  0.00     0.014 A 
HETATM   12  C   UNL     1     -13.895   5.304 -29.575  1.00  0.00     0.068 C 
HETATM   13  C   UNL     1     -11.877   4.392 -30.872  1.00  0.00     0.040 A 
BRANCH   9  14
HETATM   14  C   UNL     1     -15.307   3.866 -31.916  1.00  0.00     0.039 A 
HETATM   15  C   UNL     1     -15.996   2.644 -31.890  1.00  0.00     0.033 A 
HETATM   16  C   UNL     1     -17.375   2.611 -32.115  1.00  0.00     0.039 A 
HETATM   17  C   UNL     1     -18.058   3.798 -32.358  1.00  0.00     0.065 A 
HETATM   18  C   UNL     1     -17.387   5.015 -32.382  1.00  0.00     0.039 A 
HETATM   19  C   UNL     1     -16.008   5.052 -32.162  1.00  0.00     0.033 A 
BRANCH  17  20
HETATM   20  O   UNL     1     -19.403   3.811 -32.584  1.00  0.00    -0.361 OA
HETATM   21  H   UNL     1     -19.819   3.140 -32.019  1.00  0.00     0.217 HD
ENDBRANCH  17  20
ENDBRANCH   9  14
ENDBRANCH   6   7
ENDBRANCH   1   5
BRANCH   2  22
HETATM   22  C   UNL     1      -6.456   0.858 -33.483  1.00  0.00     0.195 C 
BRANCH  22  23
HETATM   23  O   UNL     1      -6.748   1.476 -34.758  1.00  0.00    -0.371 OA
HETATM   24  H   UNL     1      -7.046   2.381 -34.537  1.00  0.00     0.212 HD
ENDBRANCH  22  23
BRANCH  22  25
HETATM   25  C   UNL     1      -5.317   1.661 -32.826  1.00  0.00    -0.010 A 
HETATM   26  C   UNL     1      -5.010   2.979 -33.219  1.00  0.00     0.011 A 
HETATM   27  C   UNL     1      -3.934   3.666 -32.650  1.00  0.00     0.001 A 
HETATM   28  C   UNL     1      -3.147   3.052 -31.680  1.00  0.00     0.000 A 
HETATM   29  C   UNL     1      -3.432   1.750 -31.277  1.00  0.00     0.001 A 
HETATM   30  C   UNL     1      -4.502   1.059 -31.849  1.00  0.00     0.011 A 
ENDBRANCH  22  25
BRANCH  22  31
HETATM   31  C   UNL     1      -6.083  -0.589 -33.846  1.00  0.00    -0.010 A 
HETATM   32  C   UNL     1      -4.767  -1.083 -33.786  1.00  0.00     0.011 A 
HETATM   33  C   UNL     1      -4.482  -2.407 -34.134  1.00  0.00     0.001 A 
HETATM   34  C   UNL     1      -5.501  -3.262 -34.545  1.00  0.00     0.000 A 
HETATM   35  C   UNL     1      -6.812  -2.802 -34.597  1.00  0.00     0.001 A 
HETATM   36  C   UNL     1      -7.100  -1.482 -34.245  1.00  0.00     0.011 A 
ENDBRANCH  22  31
ENDBRANCH   2  22
TORSDOF 8
ENDMDL
MODEL 10
REMARK VINA RESULT:      -7.8      5.430      9.009
REMARK  8 active torsions:
REMARK  status: ('A' for Active; 'I' for Inactive)
REMARK    1  A    between atoms: N_3  and  C_4 
REMARK    2  A    between atoms: C_7  and  O_8 
REMARK    3  A    between atoms: C_13  and  C_14 
REMARK    4  A    between atoms: N_15  and  N_16 
REMARK       I    between atoms: N_16  and  C_17 
REMARK    5  A    between atoms: C_17  and  C_18 
REMARK    6  A    between atoms: C_18  and  O_19 
REMARK    7  A    between atoms: C_18  and  C_20 
REMARK    8  A    between atoms: C_18  and  C_26 
ROOT
HETATM    1  N   UNL     1      -9.907   2.268 -32.040  1.00  0.00    -0.244 N 
HETATM    2  C   UNL     1     -10.604   2.663 -33.179  1.00  0.00     0.282 C 
HETATM    3  O   UNL     1     -10.270   2.396 -34.338  1.00  0.00    -0.268 OA
HETATM    4  H   UNL     1     -10.141   2.704 -31.152  1.00  0.00     0.192 HD
ENDROOT
BRANCH   1   5
HETATM    5  N   UNL     1      -8.749   1.537 -31.989  1.00  0.00    -0.184 NA
HETATM    6  C   UNL     1      -7.640   2.068 -32.392  1.00  0.00     0.152 C 
BRANCH   6   7
HETATM    7  C   UNL     1      -6.435   1.256 -32.351  1.00  0.00     0.008 A 
HETATM    8  C   UNL     1      -6.257   0.026 -32.975  1.00  0.00     0.025 A 
HETATM    9  N   UNL     1      -5.000  -0.471 -32.624  1.00  0.00    -0.319 N 
HETATM   10  C   UNL     1      -7.182  -0.658 -33.931  1.00  0.00     0.070 C 
HETATM   11  C   UNL     1      -4.355   0.491 -31.853  1.00  0.00     0.014 A 
HETATM   12  C   UNL     1      -3.013   0.328 -31.223  1.00  0.00     0.068 C 
HETATM   13  C   UNL     1      -5.222   1.551 -31.684  1.00  0.00     0.040 A 
BRANCH   9  14
HETATM   14  C   UNL     1      -4.484  -1.760 -32.959  1.00  0.00     0.039 A 
HETATM   15  C   UNL     1      -4.750  -2.312 -34.220  1.00  0.00     0.033 A 
HETATM   16  C   UNL     1      -4.267  -3.583 -34.547  1.00  0.00     0.039 A 
HETATM   17  C   UNL     1      -3.519  -4.292 -33.613  1.00  0.00     0.065 A 
HETATM   18  C   UNL     1      -3.245  -3.752 -32.361  1.00  0.00     0.039 A 
HETATM   19  C   UNL     1      -3.728  -2.484 -32.030  1.00  0.00     0.033 A 
BRANCH  17  20
HETATM   20  O   UNL     1      -3.030  -5.534 -33.888  1.00  0.00    -0.361 OA
HETATM   21  H   UNL     1      -2.201  -5.438 -34.387  1.00  0.00     0.217 HD
ENDBRANCH  17  20
ENDBRANCH   9  14
ENDBRANCH   6   7
ENDBRANCH   1   5
BRANCH   2  22
HETATM   22  C   UNL     1     -11.869   3.555 -32.905  1.00  0.00     0.195 C 
BRANCH  22  23
HETATM   23  O   UNL     1     -11.796   3.951 -31.515  1.00  0.00    -0.371 OA
HETATM   24  H   UNL     1     -12.188   3.204 -31.019  1.00  0.00     0.212 HD
ENDBRANCH  22  23
BRANCH  22  25
HETATM   25  C   UNL     1     -11.810   4.837 -33.757  1.00  0.00    -0.010 A 
HETATM   26  C   UNL     1     -10.994   5.930 -33.405  1.00  0.00     0.011 A 
HETATM   27  C   UNL     1     -11.001   7.106 -34.161  1.00  0.00     0.001 A 
HETATM   28  C   UNL     1     -11.821   7.211 -35.281  1.00  0.00     0.000 A 
HETATM   29  C   UNL     1     -12.636   6.143 -35.648  1.00  0.00     0.001 A 
HETATM   30  C   UNL     1     -12.635   4.970 -34.890  1.00  0.00     0.011 A 
ENDBRANCH  22  25
BRANCH  22  31
HETATM   31  C   UNL     1     -13.198   2.789 -33.006  1.00  0.00    -0.010 A 
HETATM   32  C   UNL     1     -13.414   1.737 -33.913  1.00  0.00     0.011 A 
HETATM   33  C   UNL     1     -14.647   1.078 -33.968  1.00  0.00     0.001 A 
HETATM   34  C   UNL     1     -15.684   1.452 -33.117  1.00  0.00     0.000 A 
HETATM   35  C   UNL     1     -15.490   2.479 -32.200  1.00  0.00     0.001 A 
HETATM   36  C   UNL     1     -14.258   3.135 -32.141  1.00  0.00     0.011 A 
ENDBRANCH  22  31
ENDBRANCH   2  22
TORSDOF 8
ENDMDL
