MODEL 1
REMARK VINA RESULT:      -8.0      0.000      0.000
REMARK  2 active torsions:
REMARK  status: ('A' for Active; 'I' for Inactive)
REMARK    1  A    between atoms: C_4  and  C_5 
REMARK    2  A    between atoms: C_10  and  C_11 
ROOT
HETATM    1  C   UNL     1      -6.201  -0.257 -32.071  1.00  0.00     0.224 C 
HETATM    2  N   UNL     1      -6.234   0.878 -31.141  1.00  0.00    -0.359 N 
HETATM    3  C   UNL     1      -7.536   1.183 -30.563  1.00  0.00     0.152 C 
HETATM    4  C   UNL     1      -5.295   1.891 -31.342  1.00  0.00     0.047 A 
HETATM    5  C   UNL     1      -4.083   1.611 -32.002  1.00  0.00     0.058 A 
HETATM    6  C   UNL     1      -3.825   0.223 -32.436  1.00  0.00     0.255 C 
HETATM    7  O   UNL     1      -2.752  -0.120 -32.919  1.00  0.00    -0.268 OA
HETATM    8  N   UNL     1      -4.841  -0.669 -32.250  1.00  0.00    -0.331 N 
HETATM    9  C   UNL     1      -5.472   3.206 -30.886  1.00  0.00     0.030 A 
HETATM   10  C   UNL     1      -4.507   4.198 -31.110  1.00  0.00     0.002 A 
HETATM   11  C   UNL     1      -3.329   3.894 -31.784  1.00  0.00     0.001 A 
HETATM   12  C   UNL     1      -3.111   2.595 -32.227  1.00  0.00     0.019 A 
HETATM   13  H   UNL     1      -4.676  -1.587 -32.634  1.00  0.00     0.165 HD
ENDROOT
BRANCH   1  14
HETATM   14  C   UNL     1      -6.830  -0.079 -33.425  1.00  0.00     0.034 A 
HETATM   15  C   UNL     1      -6.869  -1.015 -34.499  1.00  0.00     0.122 A 
HETATM   16  N   UNL     1      -7.523  -0.530 -35.566  1.00  0.00    -0.172 NA
HETATM   17  N   UNL     1      -7.868   0.711 -35.200  1.00  0.00    -0.288 N 
HETATM   18  H   UNL     1      -8.364   1.289 -35.870  1.00  0.00     0.188 HD
HETATM   19  C   UNL     1      -7.495   1.026 -33.931  1.00  0.00     0.123 A 
BRANCH  15  20
HETATM   20  C   UNL     1      -6.273  -2.387 -34.509  1.00  0.00     0.106 A 
HETATM   21  O   UNL     1      -4.974  -2.681 -34.195  1.00  0.00    -0.313 OA
HETATM   22  C   UNL     1      -4.818  -4.029 -34.311  1.00  0.00     0.050 A 
HETATM   23  C   UNL     1      -3.478  -4.570 -34.004  1.00  0.00     0.076 C 
HETATM   24  C   UNL     1      -6.000  -4.611 -34.708  1.00  0.00     0.035 A 
HETATM   25  C   UNL     1      -6.936  -3.555 -34.836  1.00  0.00     0.042 A 
ENDBRANCH  15  20
ENDBRANCH   1  14
TORSDOF 2
ENDMDL
MODEL 2
REMARK VINA RESULT:      -7.8      2.293      5.867
REMARK  2 active torsions:
REMARK  status: ('A' for Active; 'I' for Inactive)
REMARK    1  A    between atoms: C_4  and  C_5 
REMARK    2  A    between atoms: C_10  and  C_11 
ROOT
HETATM    1  C   UNL     1      -5.914   0.267 -33.672  1.00  0.00     0.224 C 
HETATM    2  N   UNL     1      -6.281  -0.752 -34.662  1.00  0.00    -0.359 N 
HETATM    3  C   UNL     1      -7.586  -0.583 -35.288  1.00  0.00     0.152 C 
HETATM    4  C   UNL     1      -5.739  -2.027 -34.489  1.00  0.00     0.047 A 
HETATM    5  C   UNL     1      -4.532  -2.193 -33.785  1.00  0.00     0.058 A 
HETATM    6  C   UNL     1      -3.848  -0.990 -33.271  1.00  0.00     0.255 C 
HETATM    7  O   UNL     1      -2.743  -1.043 -32.743  1.00  0.00    -0.268 OA
HETATM    8  N   UNL     1      -4.502   0.196 -33.437  1.00  0.00    -0.331 N 
HETATM    9  C   UNL     1      -6.323  -3.189 -35.019  1.00  0.00     0.030 A 
HETATM   10  C   UNL     1      -5.750  -4.454 -34.823  1.00  0.00     0.002 A 
HETATM   11  C   UNL     1      -4.568  -4.587 -34.104  1.00  0.00     0.001 A 
HETATM   12  C   UNL     1      -3.950  -3.454 -33.587  1.00  0.00     0.019 A 
HETATM   13  H   UNL     1      -4.059   0.990 -33.000  1.00  0.00     0.165 HD
ENDROOT
BRANCH   1  14
HETATM   14  C   UNL     1      -6.622   0.253 -32.346  1.00  0.00     0.034 A 
HETATM   15  C   UNL     1      -7.903   0.792 -32.035  1.00  0.00     0.122 A 
HETATM   16  N   UNL     1      -8.234   0.593 -30.749  1.00  0.00    -0.172 NA
HETATM   17  N   UNL     1      -7.169  -0.031 -30.231  1.00  0.00    -0.288 N 
HETATM   18  H   UNL     1      -7.183  -0.267 -29.245  1.00  0.00     0.188 HD
HETATM   19  C   UNL     1      -6.187  -0.272 -31.140  1.00  0.00     0.123 A 
BRANCH  15  20
HETATM   20  C   UNL     1      -8.823   1.506 -32.974  1.00  0.00     0.106 A 
HETATM   21  O   UNL     1     -10.016   1.016 -33.429  1.00  0.00    -0.313 OA
HETATM   22  C   UNL     1     -10.560   1.954 -34.252  1.00  0.00     0.050 A 
HETATM   23  C   UNL     1     -11.871   1.632 -34.851  1.00  0.00     0.076 C 
HETATM   24  C   UNL     1      -9.726   3.045 -34.343  1.00  0.00     0.035 A 
HETATM   25  C   UNL     1      -8.608   2.757 -33.523  1.00  0.00     0.042 A 
ENDBRANCH  15  20
ENDBRANCH   1  14
TORSDOF 2
ENDMDL
MODEL 3
REMARK VINA RESULT:      -7.8      1.414      6.123
REMARK  2 active torsions:
REMARK  status: ('A' for Active; 'I' for Inactive)
REMARK    1  A    between atoms: C_4  and  C_5 
REMARK    2  A    between atoms: C_10  and  C_11 
ROOT
HETATM    1  C   UNL     1      -5.722   0.687 -33.232  1.00  0.00     0.224 C 
HETATM    2  N   UNL     1      -6.455  -0.181 -34.161  1.00  0.00    -0.359 N 
HETATM    3  C   UNL     1      -7.848   0.176 -34.394  1.00  0.00     0.152 C 
HETATM    4  C   UNL     1      -6.043  -1.513 -34.244  1.00  0.00     0.047 A 
HETATM    5  C   UNL     1      -4.722  -1.866 -33.910  1.00  0.00     0.058 A 
HETATM    6  C   UNL     1      -3.789  -0.795 -33.508  1.00  0.00     0.255 C 
HETATM    7  O   UNL     1      -2.598  -1.008 -33.307  1.00  0.00    -0.268 OA
HETATM    8  N   UNL     1      -4.318   0.458 -33.396  1.00  0.00    -0.331 N 
HETATM    9  C   UNL     1      -6.879  -2.551 -34.684  1.00  0.00     0.030 A 
HETATM   10  C   UNL     1      -6.431  -3.877 -34.752  1.00  0.00     0.002 A 
HETATM   11  C   UNL     1      -5.125  -4.197 -34.394  1.00  0.00     0.001 A 
HETATM   12  C   UNL     1      -4.264  -3.189 -33.977  1.00  0.00     0.019 A 
HETATM   13  H   UNL     1      -3.684   1.156 -33.035  1.00  0.00     0.165 HD
ENDROOT
BRANCH   1  14
HETATM   14  C   UNL     1      -6.055   0.596 -31.769  1.00  0.00     0.034 A 
HETATM   15  C   UNL     1      -5.724   1.524 -30.739  1.00  0.00     0.122 A 
HETATM   16  N   UNL     1      -6.188   1.134 -29.542  1.00  0.00    -0.172 NA
HETATM   17  N   UNL     1      -6.777  -0.042 -29.788  1.00  0.00    -0.288 N 
HETATM   18  H   UNL     1      -7.189  -0.546 -29.010  1.00  0.00     0.188 HD
HETATM   19  C   UNL     1      -6.741  -0.403 -31.099  1.00  0.00     0.123 A 
BRANCH  15  20
HETATM   20  C   UNL     1      -4.953   2.797 -30.899  1.00  0.00     0.106 A 
HETATM   21  O   UNL     1      -3.706   2.895 -31.453  1.00  0.00    -0.313 OA
HETATM   22  C   UNL     1      -3.347   4.208 -31.428  1.00  0.00     0.050 A 
HETATM   23  C   UNL     1      -2.025   4.545 -31.995  1.00  0.00     0.076 C 
HETATM   24  C   UNL     1      -4.345   4.961 -30.854  1.00  0.00     0.035 A 
HETATM   25  C   UNL     1      -5.378   4.054 -30.513  1.00  0.00     0.042 A 
ENDBRANCH  15  20
ENDBRANCH   1  14
TORSDOF 2
ENDMDL
MODEL 4
REMARK VINA RESULT:      -7.7      3.530      7.180
REMARK  2 active torsions:
REMARK  status: ('A' for Active; 'I' for Inactive)
REMARK    1  A    between atoms: C_4  and  C_5 
REMARK    2  A    between atoms: C_10  and  C_11 
ROOT
HETATM    1  C   UNL     1      -4.891   4.111 -32.303  1.00  0.00     0.224 C 
HETATM    2  N   UNL     1      -4.707   2.682 -32.026  1.00  0.00    -0.359 N 
HETATM    3  C   UNL     1      -3.448   2.319 -31.388  1.00  0.00     0.152 C 
HETATM    4  C   UNL     1      -5.354   1.782 -32.875  1.00  0.00     0.047 A 
HETATM    5  C   UNL     1      -6.510   2.177 -33.575  1.00  0.00     0.058 A 
HETATM    6  C   UNL     1      -7.029   3.542 -33.358  1.00  0.00     0.255 C 
HETATM    7  O   UNL     1      -8.087   3.923 -33.847  1.00  0.00    -0.268 OA
HETATM    8  N   UNL     1      -6.278   4.356 -32.561  1.00  0.00    -0.331 N 
HETATM    9  C   UNL     1      -4.931   0.456 -33.058  1.00  0.00     0.030 A 
HETATM   10  C   UNL     1      -5.606  -0.418 -33.922  1.00  0.00     0.002 A 
HETATM   11  C   UNL     1      -6.733   0.010 -34.616  1.00  0.00     0.001 A 
HETATM   12  C   UNL     1      -7.193   1.309 -34.439  1.00  0.00     0.019 A 
HETATM   13  H   UNL     1      -6.605   5.309 -32.500  1.00  0.00     0.165 HD
ENDROOT
BRANCH   1  14
HETATM   14  C   UNL     1      -4.081   4.727 -33.410  1.00  0.00     0.034 A 
HETATM   15  C   UNL     1      -2.809   5.360 -33.313  1.00  0.00     0.122 A 
HETATM   16  N   UNL     1      -2.368   5.790 -34.505  1.00  0.00    -0.172 NA
HETATM   17  N   UNL     1      -3.355   5.472 -35.351  1.00  0.00    -0.288 N 
HETATM   18  H   UNL     1      -3.252   5.726 -36.328  1.00  0.00     0.188 HD
HETATM   19  C   UNL     1      -4.392   4.823 -34.757  1.00  0.00     0.123 A 
BRANCH  15  20
HETATM   20  C   UNL     1      -2.005   5.560 -32.067  1.00  0.00     0.106 A 
HETATM   21  O   UNL     1      -0.886   4.848 -31.732  1.00  0.00    -0.313 OA
HETATM   22  C   UNL     1      -0.436   5.325 -30.539  1.00  0.00     0.050 A 
HETATM   23  C   UNL     1       0.784   4.698 -29.991  1.00  0.00     0.076 C 
HETATM   24  C   UNL     1      -1.260   6.332 -30.090  1.00  0.00     0.035 A 
HETATM   25  C   UNL     1      -2.269   6.483 -31.072  1.00  0.00     0.042 A 
ENDBRANCH  15  20
ENDBRANCH   1  14
TORSDOF 2
ENDMDL
MODEL 5
REMARK VINA RESULT:      -7.6     13.789     15.638
REMARK  2 active torsions:
REMARK  status: ('A' for Active; 'I' for Inactive)
REMARK    1  A    between atoms: C_4  and  C_5 
REMARK    2  A    between atoms: C_10  and  C_11 
ROOT
HETATM    1  C   UNL     1      -6.128 -12.662 -39.119  1.00  0.00     0.224 C 
HETATM    2  N   UNL     1      -5.603 -12.878 -40.472  1.00  0.00    -0.359 N 
HETATM    3  C   UNL     1      -6.601 -13.120 -41.506  1.00  0.00     0.152 C 
HETATM    4  C   UNL     1      -4.328 -13.437 -40.576  1.00  0.00     0.047 A 
HETATM    5  C   UNL     1      -3.404 -13.292 -39.524  1.00  0.00     0.058 A 
HETATM    6  C   UNL     1      -3.809 -12.512 -38.337  1.00  0.00     0.255 C 
HETATM    7  O   UNL     1      -3.027 -12.252 -37.430  1.00  0.00    -0.268 OA
HETATM    8  N   UNL     1      -5.101 -12.071 -38.314  1.00  0.00    -0.331 N 
HETATM    9  C   UNL     1      -3.881 -14.129 -41.713  1.00  0.00     0.030 A 
HETATM   10  C   UNL     1      -2.593 -14.678 -41.780  1.00  0.00     0.002 A 
HETATM   11  C   UNL     1      -1.712 -14.536 -40.714  1.00  0.00     0.001 A 
HETATM   12  C   UNL     1      -2.113 -13.835 -39.583  1.00  0.00     0.019 A 
HETATM   13  H   UNL     1      -5.379 -11.618 -37.457  1.00  0.00     0.165 HD
ENDROOT
BRANCH   1  14
HETATM   14  C   UNL     1      -6.693 -13.844 -38.383  1.00  0.00     0.034 A 
HETATM   15  C   UNL     1      -8.023 -14.353 -38.439  1.00  0.00     0.122 A 
HETATM   16  N   UNL     1      -8.182 -15.433 -37.658  1.00  0.00    -0.172 NA
HETATM   17  N   UNL     1      -6.986 -15.595 -37.079  1.00  0.00    -0.288 N 
HETATM   18  H   UNL     1      -6.872 -16.354 -36.415  1.00  0.00     0.188 HD
HETATM   19  C   UNL     1      -6.059 -14.688 -37.486  1.00  0.00     0.123 A 
BRANCH  15  20
HETATM   20  C   UNL     1      -9.156 -13.802 -39.247  1.00  0.00     0.106 A 
HETATM   21  O   UNL     1      -9.418 -12.472 -39.426  1.00  0.00    -0.313 OA
HETATM   22  C   UNL     1     -10.517 -12.373 -40.223  1.00  0.00     0.050 A 
HETATM   23  C   UNL     1     -10.973 -11.008 -40.558  1.00  0.00     0.076 C 
HETATM   24  C   UNL     1     -10.978 -13.627 -40.553  1.00  0.00     0.035 A 
HETATM   25  C   UNL     1     -10.103 -14.546 -39.925  1.00  0.00     0.042 A 
ENDBRANCH  15  20
ENDBRANCH   1  14
TORSDOF 2
ENDMDL
MODEL 6
REMARK VINA RESULT:      -7.5     13.982     15.533
REMARK  2 active torsions:
REMARK  status: ('A' for Active; 'I' for Inactive)
REMARK    1  A    between atoms: C_4  and  C_5 
REMARK    2  A    between atoms: C_10  and  C_11 
ROOT
HETATM    1  C   UNL     1      -5.733 -14.158 -38.956  1.00  0.00     0.224 C 
HETATM    2  N   UNL     1      -6.387 -13.223 -39.879  1.00  0.00    -0.359 N 
HETATM    3  C   UNL     1      -5.612 -12.041 -40.235  1.00  0.00     0.152 C 
HETATM    4  C   UNL     1      -7.782 -13.171 -39.848  1.00  0.00     0.047 A 
HETATM    5  C   UNL     1      -8.520 -14.282 -39.398  1.00  0.00     0.058 A 
HETATM    6  C   UNL     1      -7.785 -15.498 -38.997  1.00  0.00     0.255 C 
HETATM    7  O   UNL     1      -8.360 -16.539 -38.697  1.00  0.00    -0.268 OA
HETATM    8  N   UNL     1      -6.423 -15.412 -39.003  1.00  0.00    -0.331 N 
HETATM    9  C   UNL     1      -8.520 -12.059 -40.282  1.00  0.00     0.030 A 
HETATM   10  C   UNL     1      -9.921 -12.043 -40.233  1.00  0.00     0.002 A 
HETATM   11  C   UNL     1     -10.621 -13.149 -39.762  1.00  0.00     0.001 A 
HETATM   12  C   UNL     1      -9.921 -14.276 -39.349  1.00  0.00     0.019 A 
HETATM   13  H   UNL     1      -5.945 -16.224 -38.642  1.00  0.00     0.165 HD
ENDROOT
BRANCH   1  14
HETATM   14  C   UNL     1      -5.587 -13.745 -37.518  1.00  0.00     0.034 A 
HETATM   15  C   UNL     1      -4.391 -13.396 -36.826  1.00  0.00     0.122 A 
HETATM   16  N   UNL     1      -4.627 -13.066 -35.547  1.00  0.00    -0.172 NA
HETATM   17  N   UNL     1      -5.948 -13.234 -35.406  1.00  0.00    -0.288 N 
HETATM   18  H   UNL     1      -6.360 -13.061 -34.494  1.00  0.00     0.188 HD
HETATM   19  C   UNL     1      -6.571 -13.621 -36.550  1.00  0.00     0.123 A 
BRANCH  15  20
HETATM   20  C   UNL     1      -3.006 -13.380 -37.392  1.00  0.00     0.106 A 
HETATM   21  O   UNL     1      -2.088 -14.385 -37.249  1.00  0.00    -0.313 OA
HETATM   22  C   UNL     1      -0.959 -14.006 -37.907  1.00  0.00     0.050 A 
HETATM   23  C   UNL     1       0.170 -14.960 -37.892  1.00  0.00     0.076 C 
HETATM   24  C   UNL     1      -1.131 -12.761 -38.467  1.00  0.00     0.035 A 
HETATM   25  C   UNL     1      -2.447 -12.357 -38.135  1.00  0.00     0.042 A 
ENDBRANCH  15  20
ENDBRANCH   1  14
TORSDOF 2
ENDMDL
MODEL 7
REMARK VINA RESULT:      -7.4     13.728     15.323
REMARK  2 active torsions:
REMARK  status: ('A' for Active; 'I' for Inactive)
REMARK    1  A    between atoms: C_4  and  C_5 
REMARK    2  A    between atoms: C_10  and  C_11 
ROOT
HETATM    1  C   UNL     1      -4.760 -13.091 -38.945  1.00  0.00     0.224 C 
HETATM    2  N   UNL     1      -4.121 -14.264 -39.554  1.00  0.00    -0.359 N 
HETATM    3  C   UNL     1      -5.022 -15.334 -39.961  1.00  0.00     0.152 C 
HETATM    4  C   UNL     1      -2.814 -14.553 -39.156  1.00  0.00     0.047 A 
HETATM    5  C   UNL     1      -1.984 -13.530 -38.659  1.00  0.00     0.058 A 
HETATM    6  C   UNL     1      -2.520 -12.155 -38.605  1.00  0.00     0.255 C 
HETATM    7  O   UNL     1      -1.825 -11.196 -38.287  1.00  0.00    -0.268 OA
HETATM    8  N   UNL     1      -3.830 -12.002 -38.954  1.00  0.00    -0.331 N 
HETATM    9  C   UNL     1      -2.246 -15.832 -39.253  1.00  0.00     0.030 A 
HETATM   10  C   UNL     1      -0.930 -16.085 -38.840  1.00  0.00     0.002 A 
HETATM   11  C   UNL     1      -0.142 -15.057 -38.333  1.00  0.00     0.001 A 
HETATM   12  C   UNL     1      -0.666 -13.773 -38.247  1.00  0.00     0.019 A 
HETATM   13  H   UNL     1      -4.197 -11.071 -38.825  1.00  0.00     0.165 HD
ENDROOT
BRANCH   1  14
HETATM   14  C   UNL     1      -5.319 -13.232 -37.557  1.00  0.00     0.034 A 
HETATM   15  C   UNL     1      -6.683 -13.390 -37.177  1.00  0.00     0.122 A 
HETATM   16  N   UNL     1      -6.826 -13.497 -35.847  1.00  0.00    -0.172 NA
HETATM   17  N   UNL     1      -5.580 -13.374 -35.375  1.00  0.00    -0.288 N 
HETATM   18  H   UNL     1      -5.442 -13.401 -34.370  1.00  0.00     0.188 HD
HETATM   19  C   UNL     1      -4.642 -13.230 -36.348  1.00  0.00     0.123 A 
BRANCH  15  20
HETATM   20  C   UNL     1      -7.865 -13.438 -38.094  1.00  0.00     0.106 A 
HETATM   21  O   UNL     1      -8.379 -12.364 -38.768  1.00  0.00    -0.313 OA
HETATM   22  C   UNL     1      -9.438 -12.806 -39.500  1.00  0.00     0.050 A 
HETATM   23  C   UNL     1     -10.142 -11.802 -40.323  1.00  0.00     0.076 C 
HETATM   24  C   UNL     1      -9.622 -14.155 -39.299  1.00  0.00     0.035 A 
HETATM   25  C   UNL     1      -8.612 -14.561 -38.395  1.00  0.00     0.042 A 
ENDBRANCH  15  20
ENDBRANCH   1  14
TORSDOF 2
ENDMDL
MODEL 8
REMARK VINA RESULT:      -7.4      3.277      5.953
REMARK  2 active torsions:
REMARK  status: ('A' for Active; 'I' for Inactive)
REMARK    1  A    between atoms: C_4  and  C_5 
REMARK    2  A    between atoms: C_10  and  C_11 
ROOT
HETATM    1  C   UNL     1      -7.496   1.527 -32.308  1.00  0.00     0.224 C 
HETATM    2  N   UNL     1      -6.643   0.677 -31.469  1.00  0.00    -0.359 N 
HETATM    3  C   UNL     1      -6.247   1.247 -30.188  1.00  0.00     0.152 C 
HETATM    4  C   UNL     1      -5.811  -0.232 -32.126  1.00  0.00     0.047 A 
HETATM    5  C   UNL     1      -6.145  -0.694 -33.413  1.00  0.00     0.058 A 
HETATM    6  C   UNL     1      -7.404  -0.222 -34.023  1.00  0.00     0.255 C 
HETATM    7  O   UNL     1      -7.816  -0.661 -35.092  1.00  0.00    -0.268 OA
HETATM    8  N   UNL     1      -8.103   0.716 -33.321  1.00  0.00    -0.331 N 
HETATM    9  C   UNL     1      -4.641  -0.756 -31.555  1.00  0.00     0.030 A 
HETATM   10  C   UNL     1      -3.828  -1.665 -32.247  1.00  0.00     0.002 A 
HETATM   11  C   UNL     1      -4.175  -2.086 -33.526  1.00  0.00     0.001 A 
HETATM   12  C   UNL     1      -5.341  -1.606 -34.111  1.00  0.00     0.019 A 
HETATM   13  H   UNL     1      -8.911   1.088 -33.797  1.00  0.00     0.165 HD
ENDROOT
BRANCH   1  14
HETATM   14  C   UNL     1      -6.871   2.726 -32.965  1.00  0.00     0.034 A 
HETATM   15  C   UNL     1      -7.527   3.781 -33.661  1.00  0.00     0.122 A 
HETATM   16  N   UNL     1      -6.661   4.701 -34.115  1.00  0.00    -0.172 NA
HETATM   17  N   UNL     1      -5.463   4.228 -33.750  1.00  0.00    -0.288 N 
HETATM   18  H   UNL     1      -4.638   4.756 -34.011  1.00  0.00     0.188 HD
HETATM   19  C   UNL     1      -5.530   3.064 -33.050  1.00  0.00     0.123 A 
BRANCH  15  20
HETATM   20  C   UNL     1      -8.999   3.914 -33.898  1.00  0.00     0.106 A 
HETATM   21  O   UNL     1      -9.768   3.014 -34.582  1.00  0.00    -0.313 OA
HETATM   22  C   UNL     1     -11.048   3.478 -34.576  1.00  0.00     0.050 A 
HETATM   23  C   UNL     1     -12.059   2.644 -35.258  1.00  0.00     0.076 C 
HETATM   24  C   UNL     1     -11.115   4.677 -33.904  1.00  0.00     0.035 A 
HETATM   25  C   UNL     1      -9.797   4.958 -33.468  1.00  0.00     0.042 A 
ENDBRANCH  15  20
ENDBRANCH   1  14
TORSDOF 2
ENDMDL
MODEL 9
REMARK VINA RESULT:      -7.3      2.972      6.888
REMARK  2 active torsions:
REMARK  status: ('A' for Active; 'I' for Inactive)
REMARK    1  A    between atoms: C_4  and  C_5 
REMARK    2  A    between atoms: C_10  and  C_11 
ROOT
HETATM    1  C   UNL     1      -5.973   1.712 -31.067  1.00  0.00     0.224 C 
HETATM    2  N   UNL     1      -5.167   0.545 -31.447  1.00  0.00    -0.359 N 
HETATM    3  C   UNL     1      -3.728   0.688 -31.271  1.00  0.00     0.152 C 
HETATM    4  C   UNL     1      -5.679  -0.280 -32.450  1.00  0.00     0.047 A 
HETATM    5  C   UNL     1      -7.065  -0.328 -32.688  1.00  0.00     0.058 A 
HETATM    6  C   UNL     1      -7.953   0.484 -31.831  1.00  0.00     0.255 C 
HETATM    7  O   UNL     1      -9.175   0.413 -31.906  1.00  0.00    -0.268 OA
HETATM    8  N   UNL     1      -7.340   1.304 -30.930  1.00  0.00    -0.331 N 
HETATM    9  C   UNL     1      -4.876  -1.116 -33.242  1.00  0.00     0.030 A 
HETATM   10  C   UNL     1      -5.426  -1.930 -34.243  1.00  0.00     0.002 A 
HETATM   11  C   UNL     1      -6.798  -1.938 -34.467  1.00  0.00     0.001 A 
HETATM   12  C   UNL     1      -7.624  -1.141 -33.684  1.00  0.00     0.019 A 
HETATM   13  H   UNL     1      -7.961   1.913 -30.418  1.00  0.00     0.165 HD
ENDROOT
BRANCH   1  14
HETATM   14  C   UNL     1      -5.922   2.925 -31.954  1.00  0.00     0.034 A 
HETATM   15  C   UNL     1      -6.068   4.290 -31.574  1.00  0.00     0.122 A 
HETATM   16  N   UNL     1      -5.957   5.119 -32.623  1.00  0.00    -0.172 NA
HETATM   17  N   UNL     1      -5.780   4.301 -33.667  1.00  0.00    -0.288 N 
HETATM   18  H   UNL     1      -5.692   4.712 -34.591  1.00  0.00     0.188 HD
HETATM   19  C   UNL     1      -5.735   2.986 -33.325  1.00  0.00     0.123 A 
BRANCH  15  20
HETATM   20  C   UNL     1      -6.317   4.810 -30.193  1.00  0.00     0.106 A 
HETATM   21  O   UNL     1      -5.343   5.139 -29.290  1.00  0.00    -0.313 OA
HETATM   22  C   UNL     1      -5.962   5.579 -28.160  1.00  0.00     0.050 A 
HETATM   23  C   UNL     1      -5.088   6.001 -27.047  1.00  0.00     0.076 C 
HETATM   24  C   UNL     1      -7.328   5.528 -28.317  1.00  0.00     0.035 A 
HETATM   25  C   UNL     1      -7.557   5.033 -29.624  1.00  0.00     0.042 A 
ENDBRANCH  15  20
ENDBRANCH   1  14
TORSDOF 2
ENDMDL
MODEL 10
REMARK VINA RESULT:      -7.2      6.705      9.771
REMARK  2 active torsions:
REMARK  status: ('A' for Active; 'I' for Inactive)
REMARK    1  A    between atoms: C_4  and  C_5 
REMARK    2  A    between atoms: C_10  and  C_11 
ROOT
HETATM    1  C   UNL     1      -2.360   7.374 -28.439  1.00  0.00     0.224 C 
HETATM    2  N   UNL     1      -2.143   7.839 -27.064  1.00  0.00    -0.359 N 
HETATM    3  C   UNL     1      -3.231   8.610 -26.478  1.00  0.00     0.152 C 
HETATM    4  C   UNL     1      -0.822   8.071 -26.674  1.00  0.00     0.047 A 
HETATM    5  C   UNL     1       0.234   7.403 -27.322  1.00  0.00     0.058 A 
HETATM    6  C   UNL     1      -0.096   6.436 -28.388  1.00  0.00     0.255 C 
HETATM    7  O   UNL     1       0.759   5.738 -28.923  1.00  0.00    -0.268 OA
HETATM    8  N   UNL     1      -1.413   6.341 -28.732  1.00  0.00    -0.331 N 
HETATM    9  C   UNL     1      -0.471   8.932 -25.622  1.00  0.00     0.030 A 
HETATM   10  C   UNL     1       0.868   9.142 -25.261  1.00  0.00     0.002 A 
HETATM   11  C   UNL     1       1.890   8.483 -25.935  1.00  0.00     0.001 A 
HETATM   12  C   UNL     1       1.575   7.604 -26.965  1.00  0.00     0.019 A 
HETATM   13  H   UNL     1      -1.603   5.741 -29.521  1.00  0.00     0.165 HD
ENDROOT
BRANCH   1  14
HETATM   14  C   UNL     1      -2.316   8.392 -29.545  1.00  0.00     0.034 A 
HETATM   15  C   UNL     1      -2.139   8.159 -30.939  1.00  0.00     0.122 A 
HETATM   16  N   UNL     1      -2.161   9.299 -31.647  1.00  0.00    -0.172 NA
HETATM   17  N   UNL     1      -2.314  10.254 -30.721  1.00  0.00    -0.288 N 
HETATM   18  H   UNL     1      -2.337  11.221 -31.027  1.00  0.00     0.188 HD
HETATM   19  C   UNL     1      -2.428   9.770 -29.456  1.00  0.00     0.123 A 
BRANCH  15  20
HETATM   20  C   UNL     1      -1.943   6.833 -31.604  1.00  0.00     0.106 A 
HETATM   21  O   UNL     1      -2.751   5.742 -31.434  1.00  0.00    -0.313 OA
HETATM   22  C   UNL     1      -2.254   4.738 -32.207  1.00  0.00     0.050 A 
HETATM   23  C   UNL     1      -2.989   3.456 -32.182  1.00  0.00     0.076 C 
HETATM   24  C   UNL     1      -1.125   5.163 -32.869  1.00  0.00     0.035 A 
HETATM   25  C   UNL     1      -0.924   6.510 -32.481  1.00  0.00     0.042 A 
ENDBRANCH  15  20
ENDBRANCH   1  14
TORSDOF 2
ENDMDL
