MODEL 1
REMARK VINA RESULT:      -9.9      0.000      0.000
REMARK  2 active torsions:
REMARK  status: ('A' for Active; 'I' for Inactive)
REMARK    1  A    between atoms: C_4  and  C_5 
REMARK       I    between atoms: N_12  and  C_13 
REMARK    2  A    between atoms: C_13  and  C_14 
ROOT
HETATM    1  C   UNL     1      -4.202  -1.365 -33.029  1.00  0.00     0.097 A 
HETATM    2  N   UNL     1      -2.966  -1.552 -32.526  1.00  0.00    -0.173 NA
HETATM    3  N   UNL     1      -2.666  -0.406 -31.897  1.00  0.00    -0.281 N 
HETATM    4  H   UNL     1      -1.770  -0.336 -31.424  1.00  0.00     0.189 HD
HETATM    5  C   UNL     1      -3.665   0.506 -31.966  1.00  0.00     0.039 A 
HETATM    6  C   UNL     1      -4.673  -0.057 -32.713  1.00  0.00     0.015 A 
HETATM    7  C   UNL     1      -5.959   0.634 -33.003  1.00  0.00     0.169 C 
HETATM    8  N   UNL     1      -6.101   1.850 -32.167  1.00  0.00    -0.343 N 
HETATM    9  C   UNL     1      -7.307   2.556 -32.082  1.00  0.00     0.254 C 
HETATM   10  O   UNL     1      -7.392   3.701 -31.643  1.00  0.00    -0.267 OA
HETATM   11  C   UNL     1      -4.874   2.640 -31.916  1.00  0.00     0.132 C 
HETATM   12  C   UNL     1      -3.719   1.825 -31.303  1.00  0.00     0.079 C 
ENDROOT
BRANCH   9  13
HETATM   13  C   UNL     1      -8.553   1.946 -32.590  1.00  0.00     0.035 A 
HETATM   14  C   UNL     1      -9.365   2.723 -33.423  1.00  0.00     0.056 A 
HETATM   15  C   UNL     1     -10.556   2.192 -33.912  1.00  0.00     0.103 A 
HETATM   16  C   UNL     1     -10.953   0.902 -33.540  1.00  0.00     0.102 A 
HETATM   17  O   UNL     1     -11.292   2.998 -34.741  1.00  0.00    -0.346 OA
HETATM   18  O   UNL     1     -12.126   0.331 -33.964  1.00  0.00    -0.346 OA
HETATM   19  C   UNL     1     -10.147   0.133 -32.700  1.00  0.00     0.040 A 
HETATM   20  C   UNL     1     -13.029   1.319 -34.475  1.00  0.00     0.202 C 
HETATM   21  C   UNL     1     -12.312   2.263 -35.424  1.00  0.00     0.202 C 
HETATM   22  C   UNL     1      -8.951   0.660 -32.207  1.00  0.00     0.020 A 
ENDBRANCH   9  13
BRANCH   1  23
HETATM   23  C   UNL     1      -4.891  -2.449 -33.735  1.00  0.00    -0.005 A 
HETATM   24  C   UNL     1      -4.259  -3.695 -33.877  1.00  0.00     0.014 A 
HETATM   25  C   UNL     1      -4.906  -4.757 -34.512  1.00  0.00     0.001 A 
HETATM   26  C   UNL     1      -6.192  -4.586 -35.017  1.00  0.00     0.000 A 
HETATM   27  C   UNL     1      -6.827  -3.350 -34.895  1.00  0.00     0.001 A 
HETATM   28  C   UNL     1      -6.178  -2.285 -34.261  1.00  0.00     0.014 A 
ENDBRANCH   1  23
TORSDOF 2
ENDMDL
MODEL 2
REMARK VINA RESULT:      -9.4      3.299      6.582
REMARK  2 active torsions:
REMARK  status: ('A' for Active; 'I' for Inactive)
REMARK    1  A    between atoms: C_4  and  C_5 
REMARK       I    between atoms: N_12  and  C_13 
REMARK    2  A    between atoms: C_13  and  C_14 
ROOT
HETATM    1  C   UNL     1      -8.374   0.316 -32.862  1.00  0.00     0.097 A 
HETATM    2  N   UNL     1      -9.604  -0.231 -32.929  1.00  0.00    -0.173 NA
HETATM    3  N   UNL     1     -10.451   0.775 -32.662  1.00  0.00    -0.281 N 
HETATM    4  H   UNL     1     -11.447   0.582 -32.679  1.00  0.00     0.189 HD
HETATM    5  C   UNL     1      -9.814   1.949 -32.438  1.00  0.00     0.039 A 
HETATM    6  C   UNL     1      -8.465   1.699 -32.528  1.00  0.00     0.015 A 
HETATM    7  C   UNL     1      -7.425   2.751 -32.357  1.00  0.00     0.169 C 
HETATM    8  N   UNL     1      -8.040   4.100 -32.357  1.00  0.00    -0.343 N 
HETATM    9  C   UNL     1      -7.270   5.266 -32.434  1.00  0.00     0.254 C 
HETATM   10  O   UNL     1      -7.701   6.383 -32.154  1.00  0.00    -0.267 OA
HETATM   11  C   UNL     1      -9.355   4.239 -31.690  1.00  0.00     0.132 C 
HETATM   12  C   UNL     1     -10.431   3.273 -32.219  1.00  0.00     0.079 C 
ENDROOT
BRANCH   9  13
HETATM   13  C   UNL     1      -5.844   5.182 -32.812  1.00  0.00     0.035 A 
HETATM   14  C   UNL     1      -4.892   5.295 -31.792  1.00  0.00     0.056 A 
HETATM   15  C   UNL     1      -3.538   5.237 -32.107  1.00  0.00     0.103 A 
HETATM   16  C   UNL     1      -3.132   5.102 -33.440  1.00  0.00     0.102 A 
HETATM   17  O   UNL     1      -2.660   5.331 -31.058  1.00  0.00    -0.346 OA
HETATM   18  O   UNL     1      -1.815   5.066 -33.819  1.00  0.00    -0.346 OA
HETATM   19  C   UNL     1      -4.083   5.001 -34.457  1.00  0.00     0.040 A 
HETATM   20  C   UNL     1      -0.962   5.561 -32.781  1.00  0.00     0.202 C 
HETATM   21  C   UNL     1      -1.335   4.951 -31.442  1.00  0.00     0.202 C 
HETATM   22  C   UNL     1      -5.444   5.058 -34.148  1.00  0.00     0.020 A 
ENDBRANCH   9  13
BRANCH   1  23
HETATM   23  C   UNL     1      -7.185  -0.485 -33.167  1.00  0.00    -0.005 A 
HETATM   24  C   UNL     1      -7.139  -1.233 -34.355  1.00  0.00     0.014 A 
HETATM   25  C   UNL     1      -6.005  -1.975 -34.689  1.00  0.00     0.001 A 
HETATM   26  C   UNL     1      -4.903  -1.983 -33.839  1.00  0.00     0.000 A 
HETATM   27  C   UNL     1      -4.940  -1.256 -32.649  1.00  0.00     0.001 A 
HETATM   28  C   UNL     1      -6.077  -0.514 -32.312  1.00  0.00     0.014 A 
ENDBRANCH   1  23
TORSDOF 2
ENDMDL
MODEL 3
REMARK VINA RESULT:      -9.2      3.282      7.106
REMARK  2 active torsions:
REMARK  status: ('A' for Active; 'I' for Inactive)
REMARK    1  A    between atoms: C_4  and  C_5 
REMARK       I    between atoms: N_12  and  C_13 
REMARK    2  A    between atoms: C_13  and  C_14 
ROOT
HETATM    1  C   UNL     1      -5.749   5.250 -33.438  1.00  0.00     0.097 A 
HETATM    2  N   UNL     1      -6.280   6.472 -33.237  1.00  0.00    -0.173 NA
HETATM    3  N   UNL     1      -7.600   6.266 -33.119  1.00  0.00    -0.281 N 
HETATM    4  H   UNL     1      -8.198   7.067 -32.942  1.00  0.00     0.189 HD
HETATM    5  C   UNL     1      -7.938   4.959 -33.226  1.00  0.00     0.039 A 
HETATM    6  C   UNL     1      -6.776   4.261 -33.462  1.00  0.00     0.015 A 
HETATM    7  C   UNL     1      -6.730   2.782 -33.623  1.00  0.00     0.169 C 
HETATM    8  N   UNL     1      -8.021   2.171 -33.227  1.00  0.00    -0.343 N 
HETATM    9  C   UNL     1      -8.171   0.788 -33.073  1.00  0.00     0.254 C 
HETATM   10  O   UNL     1      -9.264   0.226 -33.030  1.00  0.00    -0.267 OA
HETATM   11  C   UNL     1      -9.252   2.918 -33.574  1.00  0.00     0.132 C 
HETATM   12  C   UNL     1      -9.277   4.364 -33.044  1.00  0.00     0.079 C 
ENDROOT
BRANCH   9  13
HETATM   13  C   UNL     1      -6.976  -0.080 -33.015  1.00  0.00     0.035 A 
HETATM   14  C   UNL     1      -6.837  -1.063 -34.000  1.00  0.00     0.056 A 
HETATM   15  C   UNL     1      -5.734  -1.911 -33.974  1.00  0.00     0.103 A 
HETATM   16  C   UNL     1      -4.791  -1.803 -32.945  1.00  0.00     0.102 A 
HETATM   17  O   UNL     1      -5.647  -2.836 -34.981  1.00  0.00    -0.346 OA
HETATM   18  O   UNL     1      -3.697  -2.625 -32.846  1.00  0.00    -0.346 OA
HETATM   19  C   UNL     1      -4.937  -0.829 -31.957  1.00  0.00     0.040 A 
HETATM   20  C   UNL     1      -3.854  -3.798 -33.652  1.00  0.00     0.202 C 
HETATM   21  C   UNL     1      -4.348  -3.434 -35.041  1.00  0.00     0.202 C 
HETATM   22  C   UNL     1      -6.042   0.026 -31.978  1.00  0.00     0.020 A 
ENDBRANCH   9  13
BRANCH   1  23
HETATM   23  C   UNL     1      -4.298   5.076 -33.546  1.00  0.00    -0.005 A 
HETATM   24  C   UNL     1      -3.654   5.358 -34.762  1.00  0.00     0.014 A 
HETATM   25  C   UNL     1      -2.268   5.237 -34.883  1.00  0.00     0.001 A 
HETATM   26  C   UNL     1      -1.508   4.829 -33.791  1.00  0.00     0.000 A 
HETATM   27  C   UNL     1      -2.135   4.532 -32.581  1.00  0.00     0.001 A 
HETATM   28  C   UNL     1      -3.524   4.650 -32.460  1.00  0.00     0.014 A 
ENDBRANCH   1  23
TORSDOF 2
ENDMDL
MODEL 4
REMARK VINA RESULT:      -8.8      1.098      1.839
REMARK  2 active torsions:
REMARK  status: ('A' for Active; 'I' for Inactive)
REMARK    1  A    between atoms: C_4  and  C_5 
REMARK       I    between atoms: N_12  and  C_13 
REMARK    2  A    between atoms: C_13  and  C_14 
ROOT
HETATM    1  C   UNL     1      -4.214  -1.023 -32.757  1.00  0.00     0.097 A 
HETATM    2  N   UNL     1      -3.142  -1.527 -32.113  1.00  0.00    -0.173 NA
HETATM    3  N   UNL     1      -2.611  -0.490 -31.449  1.00  0.00    -0.281 N 
HETATM    4  H   UNL     1      -1.792  -0.655 -30.874  1.00  0.00     0.189 HD
HETATM    5  C   UNL     1      -3.305   0.659 -31.631  1.00  0.00     0.039 A 
HETATM    6  C   UNL     1      -4.337   0.373 -32.494  1.00  0.00     0.015 A 
HETATM    7  C   UNL     1      -5.341   1.382 -32.930  1.00  0.00     0.169 C 
HETATM    8  N   UNL     1      -5.236   2.614 -32.113  1.00  0.00    -0.343 N 
HETATM    9  C   UNL     1      -6.201   3.626 -32.168  1.00  0.00     0.254 C 
HETATM   10  O   UNL     1      -6.016   4.763 -31.738  1.00  0.00    -0.267 OA
HETATM   11  C   UNL     1      -3.875   3.043 -31.717  1.00  0.00     0.132 C 
HETATM   12  C   UNL     1      -3.068   1.960 -30.975  1.00  0.00     0.079 C 
ENDROOT
BRANCH   9  13
HETATM   13  C   UNL     1      -7.501   3.367 -32.821  1.00  0.00     0.035 A 
HETATM   14  C   UNL     1      -8.122   2.139 -32.573  1.00  0.00     0.056 A 
HETATM   15  C   UNL     1      -9.340   1.848 -33.180  1.00  0.00     0.103 A 
HETATM   16  C   UNL     1      -9.920   2.767 -34.063  1.00  0.00     0.102 A 
HETATM   17  O   UNL     1      -9.904   0.637 -32.875  1.00  0.00    -0.346 OA
HETATM   18  O   UNL     1     -11.103   2.531 -34.715  1.00  0.00    -0.346 OA
HETATM   19  C   UNL     1      -9.294   3.988 -34.318  1.00  0.00     0.040 A 
HETATM   20  C   UNL     1     -11.442   1.139 -34.690  1.00  0.00     0.202 C 
HETATM   21  C   UNL     1     -11.272   0.570 -33.292  1.00  0.00     0.202 C 
HETATM   22  C   UNL     1      -8.072   4.285 -33.711  1.00  0.00     0.020 A 
ENDBRANCH   9  13
BRANCH   1  23
HETATM   23  C   UNL     1      -5.090  -1.896 -33.543  1.00  0.00    -0.005 A 
HETATM   24  C   UNL     1      -4.577  -3.084 -34.087  1.00  0.00     0.014 A 
HETATM   25  C   UNL     1      -5.398  -3.954 -34.809  1.00  0.00     0.001 A 
HETATM   26  C   UNL     1      -6.742  -3.644 -34.998  1.00  0.00     0.000 A 
HETATM   27  C   UNL     1      -7.262  -2.461 -34.475  1.00  0.00     0.001 A 
HETATM   28  C   UNL     1      -6.439  -1.588 -33.754  1.00  0.00     0.014 A 
ENDBRANCH   1  23
TORSDOF 2
ENDMDL
MODEL 5
REMARK VINA RESULT:      -8.7     14.402     16.151
REMARK  2 active torsions:
REMARK  status: ('A' for Active; 'I' for Inactive)
REMARK    1  A    between atoms: C_4  and  C_5 
REMARK       I    between atoms: N_12  and  C_13 
REMARK    2  A    between atoms: C_13  and  C_14 
ROOT
HETATM    1  C   UNL     1      -2.322 -14.371 -37.146  1.00  0.00     0.097 A 
HETATM    2  N   UNL     1      -1.006 -14.293 -36.864  1.00  0.00    -0.173 NA
HETATM    3  N   UNL     1      -0.394 -14.237 -38.056  1.00  0.00    -0.281 N 
HETATM    4  H   UNL     1       0.617 -14.155 -38.074  1.00  0.00     0.189 HD
HETATM    5  C   UNL     1      -1.264 -14.266 -39.093  1.00  0.00     0.039 A 
HETATM    6  C   UNL     1      -2.526 -14.381 -38.558  1.00  0.00     0.015 A 
HETATM    7  C   UNL     1      -3.764 -14.428 -39.383  1.00  0.00     0.169 C 
HETATM    8  N   UNL     1      -3.470 -14.064 -40.790  1.00  0.00    -0.343 N 
HETATM    9  C   UNL     1      -4.486 -13.816 -41.720  1.00  0.00     0.254 C 
HETATM   10  O   UNL     1      -4.301 -13.795 -42.936  1.00  0.00    -0.267 OA
HETATM   11  C   UNL     1      -2.183 -14.536 -41.352  1.00  0.00     0.132 C 
HETATM   12  C   UNL     1      -0.950 -14.118 -40.529  1.00  0.00     0.079 C 
ENDROOT
BRANCH   9  13
HETATM   13  C   UNL     1      -5.876 -13.624 -41.257  1.00  0.00     0.035 A 
HETATM   14  C   UNL     1      -6.742 -14.720 -41.325  1.00  0.00     0.056 A 
HETATM   15  C   UNL     1      -8.064 -14.578 -40.914  1.00  0.00     0.103 A 
HETATM   16  C   UNL     1      -8.531 -13.336 -40.469  1.00  0.00     0.102 A 
HETATM   17  O   UNL     1      -8.852 -15.697 -40.985  1.00  0.00    -0.346 OA
HETATM   18  O   UNL     1      -9.827 -13.122 -40.076  1.00  0.00    -0.346 OA
HETATM   19  C   UNL     1      -7.668 -12.240 -40.413  1.00  0.00     0.040 A 
HETATM   20  C   UNL     1     -10.688 -14.170 -40.536  1.00  0.00     0.202 C 
HETATM   21  C   UNL     1     -10.074 -15.531 -40.259  1.00  0.00     0.202 C 
HETATM   22  C   UNL     1      -6.340 -12.376 -40.824  1.00  0.00     0.020 A 
ENDBRANCH   9  13
BRANCH   1  23
HETATM   23  C   UNL     1      -3.316 -14.381 -36.070  1.00  0.00    -0.005 A 
HETATM   24  C   UNL     1      -4.131 -13.256 -35.868  1.00  0.00     0.014 A 
HETATM   25  C   UNL     1      -5.112 -13.252 -34.874  1.00  0.00     0.001 A 
HETATM   26  C   UNL     1      -5.286 -14.371 -34.065  1.00  0.00     0.000 A 
HETATM   27  C   UNL     1      -4.474 -15.491 -34.244  1.00  0.00     0.001 A 
HETATM   28  C   UNL     1      -3.490 -15.495 -35.238  1.00  0.00     0.014 A 
ENDBRANCH   1  23
TORSDOF 2
ENDMDL
MODEL 6
REMARK VINA RESULT:      -8.6      2.472      3.646
REMARK  2 active torsions:
REMARK  status: ('A' for Active; 'I' for Inactive)
REMARK    1  A    between atoms: C_4  and  C_5 
REMARK       I    between atoms: N_12  and  C_13 
REMARK    2  A    between atoms: C_13  and  C_14 
ROOT
HETATM    1  C   UNL     1      -5.651   2.207 -33.075  1.00  0.00     0.097 A 
HETATM    2  N   UNL     1      -4.502   2.307 -32.376  1.00  0.00    -0.173 NA
HETATM    3  N   UNL     1      -4.480   3.566 -31.913  1.00  0.00    -0.281 N 
HETATM    4  H   UNL     1      -3.696   3.853 -31.336  1.00  0.00     0.189 HD
HETATM    5  C   UNL     1      -5.574   4.276 -32.277  1.00  0.00     0.039 A 
HETATM    6  C   UNL     1      -6.351   3.449 -33.055  1.00  0.00     0.015 A 
HETATM    7  C   UNL     1      -7.657   3.863 -33.637  1.00  0.00     0.169 C 
HETATM    8  N   UNL     1      -8.111   5.146 -33.048  1.00  0.00    -0.343 N 
HETATM    9  C   UNL     1      -9.402   5.643 -33.256  1.00  0.00     0.254 C 
HETATM   10  O   UNL     1      -9.724   6.808 -33.034  1.00  0.00    -0.267 OA
HETATM   11  C   UNL     1      -7.069   6.159 -32.762  1.00  0.00     0.132 C 
HETATM   12  C   UNL     1      -5.928   5.648 -31.861  1.00  0.00     0.079 C 
ENDROOT
BRANCH   9  13
HETATM   13  C   UNL     1     -10.445   4.764 -33.827  1.00  0.00     0.035 A 
HETATM   14  C   UNL     1     -11.317   4.127 -32.938  1.00  0.00     0.056 A 
HETATM   15  C   UNL     1     -12.304   3.279 -33.433  1.00  0.00     0.103 A 
HETATM   16  C   UNL     1     -12.396   3.038 -34.809  1.00  0.00     0.102 A 
HETATM   17  O   UNL     1     -13.139   2.706 -32.510  1.00  0.00    -0.346 OA
HETATM   18  O   UNL     1     -13.327   2.193 -35.358  1.00  0.00    -0.346 OA
HETATM   19  C   UNL     1     -11.518   3.666 -35.693  1.00  0.00     0.040 A 
HETATM   20  C   UNL     1     -13.893   1.329 -34.366  1.00  0.00     0.202 C 
HETATM   21  C   UNL     1     -14.288   2.117 -33.129  1.00  0.00     0.202 C 
HETATM   22  C   UNL     1     -10.526   4.518 -35.203  1.00  0.00     0.020 A 
ENDBRANCH   9  13
BRANCH   1  23
HETATM   23  C   UNL     1      -6.047   0.932 -33.678  1.00  0.00    -0.005 A 
HETATM   24  C   UNL     1      -5.478  -0.263 -33.211  1.00  0.00     0.014 A 
HETATM   25  C   UNL     1      -5.865  -1.495 -33.742  1.00  0.00     0.001 A 
HETATM   26  C   UNL     1      -6.823  -1.548 -34.750  1.00  0.00     0.000 A 
HETATM   27  C   UNL     1      -7.387  -0.368 -35.234  1.00  0.00     0.001 A 
HETATM   28  C   UNL     1      -6.998   0.867 -34.704  1.00  0.00     0.014 A 
ENDBRANCH   1  23
TORSDOF 2
ENDMDL
MODEL 7
REMARK VINA RESULT:      -8.6      1.320      1.909
REMARK  2 active torsions:
REMARK  status: ('A' for Active; 'I' for Inactive)
REMARK    1  A    between atoms: C_4  and  C_5 
REMARK       I    between atoms: N_12  and  C_13 
REMARK    2  A    between atoms: C_13  and  C_14 
ROOT
HETATM    1  C   UNL     1      -4.600   0.137 -32.663  1.00  0.00     0.097 A 
HETATM    2  N   UNL     1      -3.413   0.079 -32.028  1.00  0.00    -0.173 NA
HETATM    3  N   UNL     1      -3.271   1.277 -31.440  1.00  0.00    -0.281 N 
HETATM    4  H   UNL     1      -2.438   1.444 -30.884  1.00  0.00     0.189 HD
HETATM    5  C   UNL     1      -4.324   2.097 -31.663  1.00  0.00     0.039 A 
HETATM    6  C   UNL     1      -5.201   1.416 -32.474  1.00  0.00     0.015 A 
HETATM    7  C   UNL     1      -6.500   1.982 -32.932  1.00  0.00     0.169 C 
HETATM    8  N   UNL     1      -6.822   3.222 -32.188  1.00  0.00    -0.343 N 
HETATM    9  C   UNL     1      -8.081   3.829 -32.267  1.00  0.00     0.254 C 
HETATM   10  O   UNL     1      -8.301   4.984 -31.908  1.00  0.00    -0.267 OA
HETATM   11  C   UNL     1      -5.693   4.123 -31.862  1.00  0.00     0.132 C 
HETATM   12  C   UNL     1      -4.550   3.439 -31.088  1.00  0.00     0.079 C 
ENDROOT
BRANCH   9  13
HETATM   13  C   UNL     1      -9.216   3.093 -32.862  1.00  0.00     0.035 A 
HETATM   14  C   UNL     1     -10.502   3.395 -32.401  1.00  0.00     0.056 A 
HETATM   15  C   UNL     1     -11.597   2.714 -32.924  1.00  0.00     0.103 A 
HETATM   16  C   UNL     1     -11.407   1.708 -33.878  1.00  0.00     0.102 A 
HETATM   17  O   UNL     1     -12.829   3.076 -32.445  1.00  0.00    -0.346 OA
HETATM   18  O   UNL     1     -12.440   0.981 -34.413  1.00  0.00    -0.346 OA
HETATM   19  C   UNL     1     -10.123   1.400 -34.329  1.00  0.00     0.040 A 
HETATM   20  C   UNL     1     -13.625   1.100 -33.617  1.00  0.00     0.202 C 
HETATM   21  C   UNL     1     -13.887   2.552 -33.255  1.00  0.00     0.202 C 
HETATM   22  C   UNL     1      -9.020   2.080 -33.809  1.00  0.00     0.020 A 
ENDBRANCH   9  13
BRANCH   1  23
HETATM   23  C   UNL     1      -5.125  -1.035 -33.370  1.00  0.00    -0.005 A 
HETATM   24  C   UNL     1      -6.506  -1.147 -33.597  1.00  0.00     0.014 A 
HETATM   25  C   UNL     1      -7.029  -2.234 -34.300  1.00  0.00     0.001 A 
HETATM   26  C   UNL     1      -6.179  -3.226 -34.781  1.00  0.00     0.000 A 
HETATM   27  C   UNL     1      -4.807  -3.135 -34.551  1.00  0.00     0.001 A 
HETATM   28  C   UNL     1      -4.282  -2.047 -33.844  1.00  0.00     0.014 A 
ENDBRANCH   1  23
TORSDOF 2
ENDMDL
MODEL 8
REMARK VINA RESULT:      -8.6      7.279     11.133
REMARK  2 active torsions:
REMARK  status: ('A' for Active; 'I' for Inactive)
REMARK    1  A    between atoms: C_4  and  C_5 
REMARK       I    between atoms: N_12  and  C_13 
REMARK    2  A    between atoms: C_13  and  C_14 
ROOT
HETATM    1  C   UNL     1      -1.710   9.404 -27.667  1.00  0.00     0.097 A 
HETATM    2  N   UNL     1      -1.106   9.957 -26.597  1.00  0.00    -0.173 NA
HETATM    3  N   UNL     1      -0.059   9.161 -26.333  1.00  0.00    -0.281 N 
HETATM    4  H   UNL     1       0.552   9.409 -25.562  1.00  0.00     0.189 HD
HETATM    5  C   UNL     1       0.041   8.124 -27.199  1.00  0.00     0.039 A 
HETATM    6  C   UNL     1      -1.022   8.220 -28.066  1.00  0.00     0.015 A 
HETATM    7  C   UNL     1      -1.255   7.264 -29.183  1.00  0.00     0.169 C 
HETATM    8  N   UNL     1      -0.069   6.398 -29.388  1.00  0.00    -0.343 N 
HETATM    9  C   UNL     1       0.061   5.569 -30.508  1.00  0.00     0.254 C 
HETATM   10  O   UNL     1       0.867   4.643 -30.576  1.00  0.00    -0.267 OA
HETATM   11  C   UNL     1       0.661   5.961 -28.175  1.00  0.00     0.132 C 
HETATM   12  C   UNL     1       1.120   7.119 -27.270  1.00  0.00     0.079 C 
ENDROOT
BRANCH   9  13
HETATM   13  C   UNL     1      -0.842   5.749 -31.664  1.00  0.00     0.035 A 
HETATM   14  C   UNL     1      -1.913   4.860 -31.799  1.00  0.00     0.056 A 
HETATM   15  C   UNL     1      -2.779   4.984 -32.882  1.00  0.00     0.103 A 
HETATM   16  C   UNL     1      -2.554   5.972 -33.849  1.00  0.00     0.102 A 
HETATM   17  O   UNL     1      -3.820   4.095 -32.940  1.00  0.00    -0.346 OA
HETATM   18  O   UNL     1      -3.352   6.130 -34.952  1.00  0.00    -0.346 OA
HETATM   19  C   UNL     1      -1.479   6.851 -33.719  1.00  0.00     0.040 A 
HETATM   20  C   UNL     1      -4.155   4.967 -35.184  1.00  0.00     0.202 C 
HETATM   21  C   UNL     1      -4.807   4.498 -33.895  1.00  0.00     0.202 C 
HETATM   22  C   UNL     1      -0.607   6.731 -32.634  1.00  0.00     0.020 A 
ENDBRANCH   9  13
BRANCH   1  23
HETATM   23  C   UNL     1      -2.871  10.050 -28.284  1.00  0.00    -0.005 A 
HETATM   24  C   UNL     1      -4.117   9.999 -27.640  1.00  0.00     0.014 A 
HETATM   25  C   UNL     1      -5.232  10.637 -28.187  1.00  0.00     0.001 A 
HETATM   26  C   UNL     1      -5.116  11.333 -29.387  1.00  0.00     0.000 A 
HETATM   27  C   UNL     1      -3.888  11.381 -30.045  1.00  0.00     0.001 A 
HETATM   28  C   UNL     1      -2.771  10.739 -29.500  1.00  0.00     0.014 A 
ENDBRANCH   1  23
TORSDOF 2
ENDMDL
MODEL 9
REMARK VINA RESULT:      -8.5     14.279     16.338
REMARK  2 active torsions:
REMARK  status: ('A' for Active; 'I' for Inactive)
REMARK    1  A    between atoms: C_4  and  C_5 
REMARK       I    between atoms: N_12  and  C_13 
REMARK    2  A    between atoms: C_13  and  C_14 
ROOT
HETATM    1  C   UNL     1      -6.191 -13.677 -41.021  1.00  0.00     0.097 A 
HETATM    2  N   UNL     1      -5.913 -13.853 -42.329  1.00  0.00    -0.173 NA
HETATM    3  N   UNL     1      -4.582 -14.007 -42.388  1.00  0.00    -0.281 N 
HETATM    4  H   UNL     1      -4.157 -14.173 -43.295  1.00  0.00     0.189 HD
HETATM    5  C   UNL     1      -3.994 -13.949 -41.170  1.00  0.00     0.039 A 
HETATM    6  C   UNL     1      -4.990 -13.709 -40.253  1.00  0.00     0.015 A 
HETATM    7  C   UNL     1      -4.743 -13.593 -38.789  1.00  0.00     0.169 C 
HETATM    8  N   UNL     1      -3.370 -14.037 -38.453  1.00  0.00    -0.343 N 
HETATM    9  C   UNL     1      -2.957 -14.237 -37.130  1.00  0.00     0.254 C 
HETATM   10  O   UNL     1      -1.778 -14.323 -36.793  1.00  0.00    -0.267 OA
HETATM   11  C   UNL     1      -2.298 -13.695 -39.416  1.00  0.00     0.132 C 
HETATM   12  C   UNL     1      -2.570 -14.180 -40.853  1.00  0.00     0.079 C 
ENDROOT
BRANCH   9  13
HETATM   13  C   UNL     1      -3.962 -14.295 -36.048  1.00  0.00     0.035 A 
HETATM   14  C   UNL     1      -4.495 -15.546 -35.721  1.00  0.00     0.056 A 
HETATM   15  C   UNL     1      -5.455 -15.643 -34.717  1.00  0.00     0.103 A 
HETATM   16  C   UNL     1      -5.909 -14.490 -34.067  1.00  0.00     0.102 A 
HETATM   17  O   UNL     1      -5.918 -16.901 -34.432  1.00  0.00    -0.346 OA
HETATM   18  O   UNL     1      -6.872 -14.513 -33.091  1.00  0.00    -0.346 OA
HETATM   19  C   UNL     1      -5.384 -13.241 -34.403  1.00  0.00     0.040 A 
HETATM   20  C   UNL     1      -7.598 -15.747 -33.108  1.00  0.00     0.202 C 
HETATM   21  C   UNL     1      -6.649 -16.929 -33.201  1.00  0.00     0.202 C 
HETATM   22  C   UNL     1      -4.420 -13.137 -35.408  1.00  0.00     0.020 A 
ENDBRANCH   9  13
BRANCH   1  23
HETATM   23  C   UNL     1      -7.576 -13.542 -40.565  1.00  0.00    -0.005 A 
HETATM   24  C   UNL     1      -8.078 -12.271 -40.241  1.00  0.00     0.014 A 
HETATM   25  C   UNL     1      -9.406 -12.108 -39.839  1.00  0.00     0.001 A 
HETATM   26  C   UNL     1     -10.247 -13.213 -39.752  1.00  0.00     0.000 A 
HETATM   27  C   UNL     1      -9.759 -14.483 -40.057  1.00  0.00     0.001 A 
HETATM   28  C   UNL     1      -8.428 -14.648 -40.457  1.00  0.00     0.014 A 
ENDBRANCH   1  23
TORSDOF 2
ENDMDL
MODEL 10
REMARK VINA RESULT:      -8.3      7.679      9.783
REMARK  2 active torsions:
REMARK  status: ('A' for Active; 'I' for Inactive)
REMARK    1  A    between atoms: C_4  and  C_5 
REMARK       I    between atoms: N_12  and  C_13 
REMARK    2  A    between atoms: C_13  and  C_14 
ROOT
HETATM    1  C   UNL     1      -0.298   5.477 -30.681  1.00  0.00     0.097 A 
HETATM    2  N   UNL     1       0.510   4.455 -30.333  1.00  0.00    -0.173 NA
HETATM    3  N   UNL     1       0.911   4.733 -29.084  1.00  0.00    -0.281 N 
HETATM    4  H   UNL     1       1.523   4.072 -28.616  1.00  0.00     0.189 HD
HETATM    5  C   UNL     1       0.384   5.887 -28.610  1.00  0.00     0.039 A 
HETATM    6  C   UNL     1      -0.385   6.423 -29.617  1.00  0.00     0.015 A 
HETATM    7  C   UNL     1      -1.148   7.693 -29.476  1.00  0.00     0.169 C 
HETATM    8  N   UNL     1      -1.183   8.129 -28.059  1.00  0.00    -0.343 N 
HETATM    9  C   UNL     1      -2.015   9.165 -27.622  1.00  0.00     0.254 C 
HETATM   10  O   UNL     1      -1.873   9.741 -26.545  1.00  0.00    -0.267 OA
HETATM   11  C   UNL     1       0.042   7.905 -27.257  1.00  0.00     0.132 C 
HETATM   12  C   UNL     1       0.526   6.442 -27.249  1.00  0.00     0.079 C 
ENDROOT
BRANCH   9  13
HETATM   13  C   UNL     1      -3.097   9.660 -28.500  1.00  0.00     0.035 A 
HETATM   14  C   UNL     1      -4.273   8.907 -28.570  1.00  0.00     0.056 A 
HETATM   15  C   UNL     1      -5.311   9.329 -29.396  1.00  0.00     0.103 A 
HETATM   16  C   UNL     1      -5.161  10.479 -30.180  1.00  0.00     0.102 A 
HETATM   17  O   UNL     1      -6.444   8.558 -29.400  1.00  0.00    -0.346 OA
HETATM   18  O   UNL     1      -6.132  10.933 -31.034  1.00  0.00    -0.346 OA
HETATM   19  C   UNL     1      -3.981  11.223 -30.117  1.00  0.00     0.040 A 
HETATM   20  C   UNL     1      -7.101   9.914 -31.307  1.00  0.00     0.202 C 
HETATM   21  C   UNL     1      -7.542   9.233 -30.024  1.00  0.00     0.202 C 
HETATM   22  C   UNL     1      -2.937  10.805 -29.289  1.00  0.00     0.020 A 
ENDBRANCH   9  13
BRANCH   1  23
HETATM   23  C   UNL     1      -0.983   5.478 -31.976  1.00  0.00    -0.005 A 
HETATM   24  C   UNL     1      -0.741   6.518 -32.887  1.00  0.00     0.014 A 
HETATM   25  C   UNL     1      -1.351   6.526 -34.143  1.00  0.00     0.001 A 
HETATM   26  C   UNL     1      -2.214   5.495 -34.502  1.00  0.00     0.000 A 
HETATM   27  C   UNL     1      -2.475   4.462 -33.602  1.00  0.00     0.001 A 
HETATM   28  C   UNL     1      -1.866   4.455 -32.343  1.00  0.00     0.014 A 
ENDBRANCH   1  23
TORSDOF 2
ENDMDL
