MODEL 1
REMARK VINA RESULT:      -8.7      0.000      0.000
REMARK  3 active torsions:
REMARK  status: ('A' for Active; 'I' for Inactive)
REMARK    1  A    between atoms: C_3  and  N_4 
REMARK       I    between atoms: N_4  and  C_5 
REMARK    2  A    between atoms: C_5  and  C_6 
REMARK    3  A    between atoms: C_7  and  C_8 
ROOT
HETATM    1  C   UNL     1      -8.145   1.444 -33.063  1.00  0.00     0.063 A 
HETATM    2  C   UNL     1      -7.404   2.716 -32.668  1.00  0.00     0.216 A 
HETATM    3  N   UNL     1      -8.120   3.454 -31.634  1.00  0.00    -0.091 N 
HETATM    4  C   UNL     1      -9.353   3.110 -31.153  1.00  0.00     0.735 A 
HETATM    5  N   UNL     1      -9.946   1.990 -31.609  1.00  0.00    -0.191 N 
HETATM    6  N   UNL     1      -7.737   4.634 -31.119  1.00  0.00     0.012 NA
HETATM    7  N   UNL     1      -8.713   4.962 -30.277  1.00  0.00     0.033 NA
HETATM    8  N   UNL     1      -9.726   4.024 -30.292  1.00  0.00     0.030 NA
HETATM    9  C   UNL     1      -9.355   1.135 -32.535  1.00  0.00     0.037 A 
HETATM   10  C   UNL     1     -10.153  -0.096 -32.889  1.00  0.00     0.070 C 
HETATM   11  H   UNL     1     -10.850   1.719 -31.228  1.00  0.00     0.184 HD
ENDROOT
BRANCH   1  12
HETATM   12  C   UNL     1      -7.436   0.476 -33.948  1.00  0.00     0.256 C 
HETATM   13  N   UNL     1      -7.087  -0.696 -33.315  1.00  0.00    -0.323 N 
HETATM   14  H   UNL     1      -7.337  -0.793 -32.344  1.00  0.00     0.169 HD
HETATM   15  O   UNL     1      -7.228   0.789 -35.114  1.00  0.00    -0.267 OA
BRANCH  13  16
HETATM   16  C   UNL     1      -6.452  -1.829 -33.886  1.00  0.00     0.041 A 
HETATM   17  C   UNL     1      -5.040  -1.861 -33.940  1.00  0.00    -0.035 A 
HETATM   18  C   UNL     1      -4.184  -0.741 -33.410  1.00  0.00     0.050 C 
HETATM   19  C   UNL     1      -4.394  -2.980 -34.496  1.00  0.00     0.009 A 
HETATM   20  C   UNL     1      -5.126  -4.055 -34.994  1.00  0.00     0.001 A 
HETATM   21  C   UNL     1      -6.513  -4.024 -34.941  1.00  0.00     0.002 A 
HETATM   22  C   UNL     1      -7.170  -2.919 -34.392  1.00  0.00     0.030 A 
ENDBRANCH  13  16
ENDBRANCH   1  12
BRANCH   2  23
HETATM   23  C   UNL     1      -5.961   2.468 -32.270  1.00  0.00     0.064 A 
HETATM   24  N   UNL     1      -5.777   1.666 -31.186  1.00  0.00    -0.263 NA
HETATM   25  C   UNL     1      -4.509   1.469 -30.762  1.00  0.00     0.117 A 
HETATM   26  C   UNL     1      -3.401   2.038 -31.362  1.00  0.00     0.019 A 
HETATM   27  C   UNL     1      -3.601   2.862 -32.463  1.00  0.00     0.003 A 
HETATM   28  C   UNL     1      -4.895   3.088 -32.924  1.00  0.00     0.030 A 
ENDBRANCH   2  23
TORSDOF 3
ENDMDL
MODEL 2
REMARK VINA RESULT:      -8.3      1.652      1.727
REMARK  3 active torsions:
REMARK  status: ('A' for Active; 'I' for Inactive)
REMARK    1  A    between atoms: C_3  and  N_4 
REMARK       I    between atoms: N_4  and  C_5 
REMARK    2  A    between atoms: C_5  and  C_6 
REMARK    3  A    between atoms: C_7  and  C_8 
ROOT
HETATM    1  C   UNL     1      -7.995   1.121 -33.471  1.00  0.00     0.063 A 
HETATM    2  C   UNL     1      -7.094   2.315 -33.762  1.00  0.00     0.216 A 
HETATM    3  N   UNL     1      -7.854   3.559 -33.818  1.00  0.00    -0.091 N 
HETATM    4  C   UNL     1      -9.216   3.636 -33.732  1.00  0.00     0.735 A 
HETATM    5  N   UNL     1      -9.925   2.510 -33.526  1.00  0.00    -0.191 N 
HETATM    6  N   UNL     1      -7.341   4.767 -34.101  1.00  0.00     0.012 NA
HETATM    7  N   UNL     1      -8.393   5.581 -34.117  1.00  0.00     0.033 NA
HETATM    8  N   UNL     1      -9.566   4.888 -33.891  1.00  0.00     0.030 NA
HETATM    9  C   UNL     1      -9.341   1.257 -33.367  1.00  0.00     0.037 A 
HETATM   10  C   UNL     1     -10.296   0.119 -33.098  1.00  0.00     0.070 C 
HETATM   11  H   UNL     1     -10.937   2.572 -33.431  1.00  0.00     0.184 HD
ENDROOT
BRANCH   1  12
HETATM   12  C   UNL     1      -7.340  -0.183 -33.168  1.00  0.00     0.256 C 
HETATM   13  N   UNL     1      -6.955  -0.880 -34.291  1.00  0.00    -0.323 N 
HETATM   14  H   UNL     1      -7.140  -0.458 -35.188  1.00  0.00     0.169 HD
HETATM   15  O   UNL     1      -7.206  -0.516 -31.997  1.00  0.00    -0.267 OA
BRANCH  13  16
HETATM   16  C   UNL     1      -6.267  -2.120 -34.344  1.00  0.00     0.041 A 
HETATM   17  C   UNL     1      -4.898  -2.153 -33.994  1.00  0.00    -0.035 A 
HETATM   18  C   UNL     1      -4.143  -0.924 -33.562  1.00  0.00     0.050 C 
HETATM   19  C   UNL     1      -4.203  -3.375 -34.034  1.00  0.00     0.009 A 
HETATM   20  C   UNL     1      -4.844  -4.551 -34.415  1.00  0.00     0.001 A 
HETATM   21  C   UNL     1      -6.189  -4.519 -34.759  1.00  0.00     0.002 A 
HETATM   22  C   UNL     1      -6.894  -3.313 -34.724  1.00  0.00     0.030 A 
ENDBRANCH  13  16
ENDBRANCH   1  12
BRANCH   2  23
HETATM   23  C   UNL     1      -5.924   2.428 -32.802  1.00  0.00     0.064 A 
HETATM   24  N   UNL     1      -6.248   2.610 -31.493  1.00  0.00    -0.263 NA
HETATM   25  C   UNL     1      -5.235   2.776 -30.615  1.00  0.00     0.117 A 
HETATM   26  C   UNL     1      -3.900   2.775 -30.973  1.00  0.00     0.019 A 
HETATM   27  C   UNL     1      -3.580   2.596 -32.313  1.00  0.00     0.003 A 
HETATM   28  C   UNL     1      -4.600   2.425 -33.245  1.00  0.00     0.030 A 
ENDBRANCH   2  23
TORSDOF 3
ENDMDL
MODEL 3
REMARK VINA RESULT:      -8.3      1.328      3.732
REMARK  3 active torsions:
REMARK  status: ('A' for Active; 'I' for Inactive)
REMARK    1  A    between atoms: C_3  and  N_4 
REMARK       I    between atoms: N_4  and  C_5 
REMARK    2  A    between atoms: C_5  and  C_6 
REMARK    3  A    between atoms: C_7  and  C_8 
ROOT
HETATM    1  C   UNL     1      -6.774   2.226 -32.483  1.00  0.00     0.063 A 
HETATM    2  C   UNL     1      -8.149   2.261 -31.826  1.00  0.00     0.216 A 
HETATM    3  N   UNL     1      -8.346   3.487 -31.060  1.00  0.00    -0.091 N 
HETATM    4  C   UNL     1      -7.383   4.436 -30.863  1.00  0.00     0.735 A 
HETATM    5  N   UNL     1      -6.179   4.282 -31.447  1.00  0.00    -0.191 N 
HETATM    6  N   UNL     1      -9.438   3.780 -30.337  1.00  0.00     0.012 NA
HETATM    7  N   UNL     1      -9.153   4.943 -29.758  1.00  0.00     0.033 NA
HETATM    8  N   UNL     1      -7.875   5.360 -30.075  1.00  0.00     0.030 NA
HETATM    9  C   UNL     1      -5.863   3.209 -32.275  1.00  0.00     0.037 A 
HETATM   10  C   UNL     1      -4.479   3.233 -32.877  1.00  0.00     0.070 C 
HETATM   11  H   UNL     1      -5.473   5.005 -31.324  1.00  0.00     0.184 HD
ENDROOT
BRANCH   1  12
HETATM   12  C   UNL     1      -6.506   1.143 -33.472  1.00  0.00     0.256 C 
HETATM   13  N   UNL     1      -6.236  -0.077 -32.894  1.00  0.00    -0.323 N 
HETATM   14  H   UNL     1      -6.247  -0.128 -31.887  1.00  0.00     0.169 HD
HETATM   15  O   UNL     1      -6.544   1.415 -34.666  1.00  0.00    -0.267 OA
BRANCH  13  16
HETATM   16  C   UNL     1      -5.991  -1.309 -33.553  1.00  0.00     0.041 A 
HETATM   17  C   UNL     1      -4.662  -1.788 -33.624  1.00  0.00    -0.035 A 
HETATM   18  C   UNL     1      -3.500  -1.044 -33.023  1.00  0.00     0.050 C 
HETATM   19  C   UNL     1      -4.403  -3.012 -34.268  1.00  0.00     0.009 A 
HETATM   20  C   UNL     1      -5.434  -3.756 -34.836  1.00  0.00     0.001 A 
HETATM   21  C   UNL     1      -6.738  -3.285 -34.766  1.00  0.00     0.002 A 
HETATM   22  C   UNL     1      -7.014  -2.071 -34.129  1.00  0.00     0.030 A 
ENDBRANCH  13  16
ENDBRANCH   1  12
BRANCH   2  23
HETATM   23  C   UNL     1      -9.285   2.035 -32.807  1.00  0.00     0.064 A 
HETATM   24  N   UNL     1      -9.517   3.049 -33.686  1.00  0.00    -0.263 NA
HETATM   25  C   UNL     1     -10.559   2.913 -34.536  1.00  0.00     0.117 A 
HETATM   26  C   UNL     1     -11.395   1.812 -34.556  1.00  0.00     0.019 A 
HETATM   27  C   UNL     1     -11.154   0.787 -33.650  1.00  0.00     0.003 A 
HETATM   28  C   UNL     1     -10.091   0.896 -32.758  1.00  0.00     0.030 A 
ENDBRANCH   2  23
TORSDOF 3
ENDMDL
MODEL 4
REMARK VINA RESULT:      -8.2      1.705      3.913
REMARK  3 active torsions:
REMARK  status: ('A' for Active; 'I' for Inactive)
REMARK    1  A    between atoms: C_3  and  N_4 
REMARK       I    between atoms: N_4  and  C_5 
REMARK    2  A    between atoms: C_5  and  C_6 
REMARK    3  A    between atoms: C_7  and  C_8 
ROOT
HETATM    1  C   UNL     1      -6.054   1.868 -31.189  1.00  0.00     0.063 A 
HETATM    2  C   UNL     1      -7.462   2.437 -31.059  1.00  0.00     0.216 A 
HETATM    3  N   UNL     1      -7.446   3.893 -30.979  1.00  0.00    -0.091 N 
HETATM    4  C   UNL     1      -6.309   4.650 -30.918  1.00  0.00     0.735 A 
HETATM    5  N   UNL     1      -5.110   4.041 -30.988  1.00  0.00    -0.191 N 
HETATM    6  N   UNL     1      -8.528   4.671 -30.814  1.00  0.00     0.012 NA
HETATM    7  N   UNL     1      -8.040   5.905 -30.722  1.00  0.00     0.033 NA
HETATM    8  N   UNL     1      -6.660   5.905 -30.781  1.00  0.00     0.030 NA
HETATM    9  C   UNL     1      -4.959   2.667 -31.150  1.00  0.00     0.037 A 
HETATM   10  C   UNL     1      -3.537   2.173 -31.256  1.00  0.00     0.070 C 
HETATM   11  H   UNL     1      -4.265   4.608 -30.974  1.00  0.00     0.184 HD
ENDROOT
BRANCH   1  12
HETATM   12  C   UNL     1      -5.921   0.415 -31.499  1.00  0.00     0.256 C 
HETATM   13  N   UNL     1      -5.504   0.163 -32.786  1.00  0.00    -0.323 N 
HETATM   14  H   UNL     1      -5.327   0.956 -33.383  1.00  0.00     0.169 HD
HETATM   15  O   UNL     1      -6.183  -0.400 -30.622  1.00  0.00    -0.267 OA
BRANCH  13  16
HETATM   16  C   UNL     1      -5.234  -1.100 -33.374  1.00  0.00     0.041 A 
HETATM   17  C   UNL     1      -6.067  -1.552 -34.423  1.00  0.00    -0.035 A 
HETATM   18  C   UNL     1      -7.226  -0.744 -34.942  1.00  0.00     0.050 C 
HETATM   19  C   UNL     1      -5.809  -2.799 -35.022  1.00  0.00     0.009 A 
HETATM   20  C   UNL     1      -4.747  -3.593 -34.596  1.00  0.00     0.001 A 
HETATM   21  C   UNL     1      -3.929  -3.148 -33.566  1.00  0.00     0.002 A 
HETATM   22  C   UNL     1      -4.171  -1.911 -32.960  1.00  0.00     0.030 A 
ENDBRANCH  13  16
ENDBRANCH   1  12
BRANCH   2  23
HETATM   23  C   UNL     1      -8.405   1.955 -32.146  1.00  0.00     0.064 A 
HETATM   24  N   UNL     1      -8.382   2.668 -33.305  1.00  0.00    -0.263 NA
HETATM   25  C   UNL     1      -9.251   2.308 -34.277  1.00  0.00     0.117 A 
HETATM   26  C   UNL     1     -10.154   1.269 -34.154  1.00  0.00     0.019 A 
HETATM   27  C   UNL     1     -10.173   0.554 -32.963  1.00  0.00     0.003 A 
HETATM   28  C   UNL     1      -9.294   0.899 -31.941  1.00  0.00     0.030 A 
ENDBRANCH   2  23
TORSDOF 3
ENDMDL
MODEL 5
REMARK VINA RESULT:      -7.9      2.537      5.259
REMARK  3 active torsions:
REMARK  status: ('A' for Active; 'I' for Inactive)
REMARK    1  A    between atoms: C_3  and  N_4 
REMARK       I    between atoms: N_4  and  C_5 
REMARK    2  A    between atoms: C_5  and  C_6 
REMARK    3  A    between atoms: C_7  and  C_8 
ROOT
HETATM    1  C   UNL     1      -8.096   3.163 -32.806  1.00  0.00     0.063 A 
HETATM    2  C   UNL     1      -8.307   1.756 -32.260  1.00  0.00     0.216 A 
HETATM    3  N   UNL     1      -9.530   1.157 -32.782  1.00  0.00    -0.091 N 
HETATM    4  C   UNL     1     -10.432   1.810 -33.575  1.00  0.00     0.735 A 
HETATM    5  N   UNL     1     -10.174   3.074 -33.959  1.00  0.00    -0.191 N 
HETATM    6  N   UNL     1     -10.003  -0.054 -32.447  1.00  0.00     0.012 NA
HETATM    7  N   UNL     1     -11.159  -0.152 -33.096  1.00  0.00     0.033 NA
HETATM    8  N   UNL     1     -11.440   1.003 -33.799  1.00  0.00     0.030 NA
HETATM    9  C   UNL     1      -9.011   3.756 -33.613  1.00  0.00     0.037 A 
HETATM   10  C   UNL     1      -8.877   5.150 -34.177  1.00  0.00     0.070 C 
HETATM   11  H   UNL     1     -10.831   3.549 -34.574  1.00  0.00     0.184 HD
ENDROOT
BRANCH   1  12
HETATM   12  C   UNL     1      -6.785   3.821 -32.537  1.00  0.00     0.256 C 
HETATM   13  N   UNL     1      -5.865   3.650 -33.547  1.00  0.00    -0.323 N 
HETATM   14  H   UNL     1      -6.152   3.117 -34.353  1.00  0.00     0.169 HD
HETATM   15  O   UNL     1      -6.638   4.431 -31.484  1.00  0.00    -0.267 OA
BRANCH  13  16
HETATM   16  C   UNL     1      -4.554   4.186 -33.620  1.00  0.00     0.041 A 
HETATM   17  C   UNL     1      -3.547   3.632 -32.797  1.00  0.00    -0.035 A 
HETATM   18  C   UNL     1      -3.811   2.492 -31.850  1.00  0.00     0.050 C 
HETATM   19  C   UNL     1      -2.239   4.147 -32.862  1.00  0.00     0.009 A 
HETATM   20  C   UNL     1      -1.924   5.194 -33.724  1.00  0.00     0.001 A 
HETATM   21  C   UNL     1      -2.913   5.739 -34.532  1.00  0.00     0.002 A 
HETATM   22  C   UNL     1      -4.218   5.238 -34.480  1.00  0.00     0.030 A 
ENDBRANCH  13  16
ENDBRANCH   1  12
BRANCH   2  23
HETATM   23  C   UNL     1      -7.112   0.846 -32.474  1.00  0.00     0.064 A 
HETATM   24  N   UNL     1      -6.713   0.690 -33.766  1.00  0.00    -0.263 NA
HETATM   25  C   UNL     1      -5.690  -0.160 -34.006  1.00  0.00     0.117 A 
HETATM   26  C   UNL     1      -5.038  -0.875 -33.019  1.00  0.00     0.019 A 
HETATM   27  C   UNL     1      -5.459  -0.715 -31.705  1.00  0.00     0.003 A 
HETATM   28  C   UNL     1      -6.512   0.151 -31.423  1.00  0.00     0.030 A 
ENDBRANCH   2  23
TORSDOF 3
ENDMDL
MODEL 6
REMARK VINA RESULT:      -7.7     15.456     17.419
REMARK  3 active torsions:
REMARK  status: ('A' for Active; 'I' for Inactive)
REMARK    1  A    between atoms: C_3  and  N_4 
REMARK       I    between atoms: N_4  and  C_5 
REMARK    2  A    between atoms: C_5  and  C_6 
REMARK    3  A    between atoms: C_7  and  C_8 
ROOT
HETATM    1  C   UNL     1      -3.829 -13.741 -39.493  1.00  0.00     0.063 A 
HETATM    2  C   UNL     1      -4.630 -13.336 -40.724  1.00  0.00     0.216 A 
HETATM    3  N   UNL     1      -4.190 -14.059 -41.912  1.00  0.00    -0.091 N 
HETATM    4  C   UNL     1      -3.123 -14.913 -41.944  1.00  0.00     0.735 A 
HETATM    5  N   UNL     1      -2.447 -15.163 -40.806  1.00  0.00    -0.191 N 
HETATM    6  N   UNL     1      -4.676 -13.882 -43.151  1.00  0.00     0.012 NA
HETATM    7  N   UNL     1      -3.941 -14.684 -43.915  1.00  0.00     0.033 NA
HETATM    8  N   UNL     1      -2.969 -15.329 -43.177  1.00  0.00     0.030 NA
HETATM    9  C   UNL     1      -2.795 -14.615 -39.575  1.00  0.00     0.037 A 
HETATM   10  C   UNL     1      -1.949 -15.050 -38.403  1.00  0.00     0.070 C 
HETATM   11  H   UNL     1      -1.672 -15.823 -40.825  1.00  0.00     0.184 HD
ENDROOT
BRANCH   1  12
HETATM   12  C   UNL     1      -4.303 -13.251 -38.166  1.00  0.00     0.256 C 
HETATM   13  N   UNL     1      -4.888 -14.230 -37.395  1.00  0.00    -0.323 N 
HETATM   14  H   UNL     1      -4.938 -15.160 -37.781  1.00  0.00     0.169 HD
HETATM   15  O   UNL     1      -4.142 -12.070 -37.884  1.00  0.00    -0.267 OA
BRANCH  13  16
HETATM   16  C   UNL     1      -5.393 -14.102 -36.075  1.00  0.00     0.041 A 
HETATM   17  C   UNL     1      -6.716 -13.639 -35.896  1.00  0.00    -0.035 A 
HETATM   18  C   UNL     1      -7.612 -13.281 -37.052  1.00  0.00     0.050 C 
HETATM   19  C   UNL     1      -7.235 -13.513 -34.594  1.00  0.00     0.009 A 
HETATM   20  C   UNL     1      -6.462 -13.838 -33.481  1.00  0.00     0.001 A 
HETATM   21  C   UNL     1      -5.163 -14.293 -33.658  1.00  0.00     0.002 A 
HETATM   22  C   UNL     1      -4.632 -14.424 -34.945  1.00  0.00     0.030 A 
ENDBRANCH  13  16
ENDBRANCH   1  12
BRANCH   2  23
HETATM   23  C   UNL     1      -6.129 -13.457 -40.529  1.00  0.00     0.064 A 
HETATM   24  N   UNL     1      -6.600 -14.721 -40.346  1.00  0.00    -0.263 NA
HETATM   25  C   UNL     1      -7.938 -14.879 -40.228  1.00  0.00     0.117 A 
HETATM   26  C   UNL     1      -8.843 -13.836 -40.289  1.00  0.00     0.019 A 
HETATM   27  C   UNL     1      -8.352 -12.551 -40.484  1.00  0.00     0.003 A 
HETATM   28  C   UNL     1      -6.980 -12.353 -40.611  1.00  0.00     0.030 A 
ENDBRANCH   2  23
TORSDOF 3
ENDMDL
MODEL 7
REMARK VINA RESULT:      -7.7      2.795      6.716
REMARK  3 active torsions:
REMARK  status: ('A' for Active; 'I' for Inactive)
REMARK    1  A    between atoms: C_3  and  N_4 
REMARK       I    between atoms: N_4  and  C_5 
REMARK    2  A    between atoms: C_5  and  C_6 
REMARK    3  A    between atoms: C_7  and  C_8 
ROOT
HETATM    1  C   UNL     1      -4.449   1.606 -32.603  1.00  0.00     0.063 A 
HETATM    2  C   UNL     1      -5.528   1.838 -33.654  1.00  0.00     0.216 A 
HETATM    3  N   UNL     1      -6.215   0.598 -34.000  1.00  0.00    -0.091 N 
HETATM    4  C   UNL     1      -5.866  -0.635 -33.526  1.00  0.00     0.735 A 
HETATM    5  N   UNL     1      -4.859  -0.737 -32.638  1.00  0.00    -0.191 N 
HETATM    6  N   UNL     1      -7.180   0.481 -34.926  1.00  0.00     0.012 NA
HETATM    7  N   UNL     1      -7.455  -0.820 -34.957  1.00  0.00     0.033 NA
HETATM    8  N   UNL     1      -6.642  -1.526 -34.093  1.00  0.00     0.030 NA
HETATM    9  C   UNL     1      -4.161   0.362 -32.146  1.00  0.00     0.037 A 
HETATM   10  C   UNL     1      -3.097   0.055 -31.120  1.00  0.00     0.070 C 
HETATM   11  H   UNL     1      -4.620  -1.652 -32.262  1.00  0.00     0.184 HD
ENDROOT
BRANCH   1  12
HETATM   12  C   UNL     1      -3.810   2.805 -31.990  1.00  0.00     0.256 C 
HETATM   13  N   UNL     1      -2.790   3.334 -32.748  1.00  0.00    -0.323 N 
HETATM   14  H   UNL     1      -2.576   2.880 -33.623  1.00  0.00     0.169 HD
HETATM   15  O   UNL     1      -4.225   3.204 -30.908  1.00  0.00    -0.267 OA
BRANCH  13  16
HETATM   16  C   UNL     1      -2.020   4.493 -32.472  1.00  0.00     0.041 A 
HETATM   17  C   UNL     1      -1.778   5.412 -33.518  1.00  0.00    -0.035 A 
HETATM   18  C   UNL     1      -2.309   5.211 -34.912  1.00  0.00     0.050 C 
HETATM   19  C   UNL     1      -1.023   6.571 -33.260  1.00  0.00     0.009 A 
HETATM   20  C   UNL     1      -0.511   6.823 -31.989  1.00  0.00     0.001 A 
HETATM   21  C   UNL     1      -0.749   5.921 -30.962  1.00  0.00     0.002 A 
HETATM   22  C   UNL     1      -1.497   4.765 -31.202  1.00  0.00     0.030 A 
ENDBRANCH  13  16
ENDBRANCH   1  12
BRANCH   2  23
HETATM   23  C   UNL     1      -6.514   2.925 -33.268  1.00  0.00     0.064 A 
HETATM   24  N   UNL     1      -7.368   2.616 -32.254  1.00  0.00    -0.263 NA
HETATM   25  C   UNL     1      -8.301   3.534 -31.920  1.00  0.00     0.117 A 
HETATM   26  C   UNL     1      -8.437   4.756 -32.552  1.00  0.00     0.019 A 
HETATM   27  C   UNL     1      -7.566   5.058 -33.591  1.00  0.00     0.003 A 
HETATM   28  C   UNL     1      -6.594   4.134 -33.962  1.00  0.00     0.030 A 
ENDBRANCH   2  23
TORSDOF 3
ENDMDL
MODEL 8
REMARK VINA RESULT:      -7.6      2.239      2.883
REMARK  3 active torsions:
REMARK  status: ('A' for Active; 'I' for Inactive)
REMARK    1  A    between atoms: C_3  and  N_4 
REMARK       I    between atoms: N_4  and  C_5 
REMARK    2  A    between atoms: C_5  and  C_6 
REMARK    3  A    between atoms: C_7  and  C_8 
ROOT
HETATM    1  C   UNL     1      -8.195   1.698 -33.216  1.00  0.00     0.063 A 
HETATM    2  C   UNL     1      -7.572   3.044 -33.568  1.00  0.00     0.216 A 
HETATM    3  N   UNL     1      -8.581   4.005 -34.000  1.00  0.00    -0.091 N 
HETATM    4  C   UNL     1      -9.904   3.709 -34.174  1.00  0.00     0.735 A 
HETATM    5  N   UNL     1     -10.344   2.469 -33.883  1.00  0.00    -0.191 N 
HETATM    6  N   UNL     1      -8.330   5.256 -34.417  1.00  0.00     0.012 NA
HETATM    7  N   UNL     1      -9.518   5.732 -34.778  1.00  0.00     0.033 NA
HETATM    8  N   UNL     1     -10.505   4.778 -34.634  1.00  0.00     0.030 NA
HETATM    9  C   UNL     1      -9.521   1.465 -33.382  1.00  0.00     0.037 A 
HETATM   10  C   UNL     1     -10.204   0.155 -33.070  1.00  0.00     0.070 C 
HETATM   11  H   UNL     1     -11.334   2.259 -33.984  1.00  0.00     0.184 HD
ENDROOT
BRANCH   1  12
HETATM   12  C   UNL     1      -7.325   0.685 -32.553  1.00  0.00     0.256 C 
HETATM   13  N   UNL     1      -6.318   0.209 -33.362  1.00  0.00    -0.323 N 
HETATM   14  H   UNL     1      -6.258   0.580 -34.297  1.00  0.00     0.169 HD
HETATM   15  O   UNL     1      -7.568   0.369 -31.394  1.00  0.00    -0.267 OA
BRANCH  13  16
HETATM   16  C   UNL     1      -5.300  -0.717 -33.019  1.00  0.00     0.041 A 
HETATM   17  C   UNL     1      -5.212  -1.928 -33.744  1.00  0.00    -0.035 A 
HETATM   18  C   UNL     1      -6.152  -2.269 -34.868  1.00  0.00     0.050 C 
HETATM   19  C   UNL     1      -4.203  -2.855 -33.421  1.00  0.00     0.009 A 
HETATM   20  C   UNL     1      -3.294  -2.596 -32.399  1.00  0.00     0.001 A 
HETATM   21  C   UNL     1      -3.381  -1.408 -31.687  1.00  0.00     0.002 A 
HETATM   22  C   UNL     1      -4.377  -0.476 -31.995  1.00  0.00     0.030 A 
ENDBRANCH  13  16
ENDBRANCH   1  12
BRANCH   2  23
HETATM   23  C   UNL     1      -6.710   3.612 -32.456  1.00  0.00     0.064 A 
HETATM   24  N   UNL     1      -5.373   3.651 -32.707  1.00  0.00    -0.263 NA
HETATM   25  C   UNL     1      -4.564   4.094 -31.719  1.00  0.00     0.117 A 
HETATM   26  C   UNL     1      -5.018   4.501 -30.479  1.00  0.00     0.019 A 
HETATM   27  C   UNL     1      -6.384   4.449 -30.230  1.00  0.00     0.003 A 
HETATM   28  C   UNL     1      -7.245   3.996 -31.225  1.00  0.00     0.030 A 
ENDBRANCH   2  23
TORSDOF 3
ENDMDL
MODEL 9
REMARK VINA RESULT:      -7.6     15.400     17.283
REMARK  3 active torsions:
REMARK  status: ('A' for Active; 'I' for Inactive)
REMARK    1  A    between atoms: C_3  and  N_4 
REMARK       I    between atoms: N_4  and  C_5 
REMARK    2  A    between atoms: C_5  and  C_6 
REMARK    3  A    between atoms: C_7  and  C_8 
ROOT
HETATM    1  C   UNL     1      -3.027 -13.814 -36.782  1.00  0.00     0.063 A 
HETATM    2  C   UNL     1      -1.657 -14.090 -37.391  1.00  0.00     0.216 A 
HETATM    3  N   UNL     1      -0.909 -15.067 -36.607  1.00  0.00    -0.091 N 
HETATM    4  C   UNL     1      -1.334 -15.590 -35.418  1.00  0.00     0.735 A 
HETATM    5  N   UNL     1      -2.544 -15.239 -34.941  1.00  0.00    -0.191 N 
HETATM    6  N   UNL     1       0.343 -15.475 -36.869  1.00  0.00     0.012 NA
HETATM    7  N   UNL     1       0.642 -16.298 -35.868  1.00  0.00     0.033 NA
HETATM    8  N   UNL     1      -0.393 -16.376 -34.957  1.00  0.00     0.030 NA
HETATM    9  C   UNL     1      -3.411 -14.382 -35.612  1.00  0.00     0.037 A 
HETATM   10  C   UNL     1      -4.743 -14.143 -34.944  1.00  0.00     0.070 C 
HETATM   11  H   UNL     1      -2.872 -15.653 -34.071  1.00  0.00     0.184 HD
ENDROOT
BRANCH   1  12
HETATM   12  C   UNL     1      -3.990 -13.005 -37.583  1.00  0.00     0.256 C 
HETATM   13  N   UNL     1      -5.065 -13.729 -38.048  1.00  0.00    -0.323 N 
HETATM   14  H   UNL     1      -5.105 -14.708 -37.809  1.00  0.00     0.169 HD
HETATM   15  O   UNL     1      -3.756 -11.815 -37.758  1.00  0.00    -0.267 OA
BRANCH  13  16
HETATM   16  C   UNL     1      -6.173 -13.248 -38.791  1.00  0.00     0.041 A 
HETATM   17  C   UNL     1      -6.014 -13.025 -40.179  1.00  0.00    -0.035 A 
HETATM   18  C   UNL     1      -4.717 -13.284 -40.897  1.00  0.00     0.050 C 
HETATM   19  C   UNL     1      -7.105 -12.555 -40.933  1.00  0.00     0.009 A 
HETATM   20  C   UNL     1      -8.337 -12.306 -40.331  1.00  0.00     0.001 A 
HETATM   21  C   UNL     1      -8.492 -12.524 -38.969  1.00  0.00     0.002 A 
HETATM   22  C   UNL     1      -7.418 -12.992 -38.206  1.00  0.00     0.030 A 
ENDBRANCH  13  16
ENDBRANCH   1  12
BRANCH   2  23
HETATM   23  C   UNL     1      -1.721 -14.489 -38.853  1.00  0.00     0.064 A 
HETATM   24  N   UNL     1      -2.401 -15.638 -39.122  1.00  0.00    -0.263 NA
HETATM   25  C   UNL     1      -2.430 -16.060 -40.406  1.00  0.00     0.117 A 
HETATM   26  C   UNL     1      -1.809 -15.397 -41.447  1.00  0.00     0.019 A 
HETATM   27  C   UNL     1      -1.111 -14.231 -41.160  1.00  0.00     0.003 A 
HETATM   28  C   UNL     1      -1.059 -13.768 -39.848  1.00  0.00     0.030 A 
ENDBRANCH   2  23
TORSDOF 3
ENDMDL
MODEL 10
REMARK VINA RESULT:      -7.5      2.272      6.939
REMARK  3 active torsions:
REMARK  status: ('A' for Active; 'I' for Inactive)
REMARK    1  A    between atoms: C_3  and  N_4 
REMARK       I    between atoms: N_4  and  C_5 
REMARK    2  A    between atoms: C_5  and  C_6 
REMARK    3  A    between atoms: C_7  and  C_8 
ROOT
HETATM    1  C   UNL     1      -5.282   1.219 -32.899  1.00  0.00     0.063 A 
HETATM    2  C   UNL     1      -6.152   0.528 -33.943  1.00  0.00     0.216 A 
HETATM    3  N   UNL     1      -5.739  -0.855 -34.153  1.00  0.00    -0.091 N 
HETATM    4  C   UNL     1      -4.645  -1.431 -33.571  1.00  0.00     0.735 A 
HETATM    5  N   UNL     1      -3.911  -0.713 -32.699  1.00  0.00    -0.191 N 
HETATM    6  N   UNL     1      -6.287  -1.700 -35.042  1.00  0.00     0.012 NA
HETATM    7  N   UNL     1      -5.558  -2.808 -34.941  1.00  0.00     0.033 NA
HETATM    8  N   UNL     1      -4.531  -2.652 -34.031  1.00  0.00     0.030 NA
HETATM    9  C   UNL     1      -4.222   0.592 -32.331  1.00  0.00     0.037 A 
HETATM   10  C   UNL     1      -3.310   1.218 -31.305  1.00  0.00     0.070 C 
HETATM   11  H   UNL     1      -3.114  -1.152 -32.243  1.00  0.00     0.184 HD
ENDROOT
BRANCH   1  12
HETATM   12  C   UNL     1      -5.714   2.563 -32.419  1.00  0.00     0.256 C 
HETATM   13  N   UNL     1      -6.222   2.554 -31.139  1.00  0.00    -0.323 N 
HETATM   14  H   UNL     1      -6.251   1.670 -30.656  1.00  0.00     0.169 HD
HETATM   15  O   UNL     1      -5.590   3.524 -33.169  1.00  0.00    -0.267 OA
BRANCH  13  16
HETATM   16  C   UNL     1      -6.669   3.666 -30.380  1.00  0.00     0.041 A 
HETATM   17  C   UNL     1      -7.984   4.143 -30.584  1.00  0.00    -0.035 A 
HETATM   18  C   UNL     1      -8.929   3.513 -31.573  1.00  0.00     0.050 C 
HETATM   19  C   UNL     1      -8.446   5.240 -29.834  1.00  0.00     0.009 A 
HETATM   20  C   UNL     1      -7.626   5.862 -28.896  1.00  0.00     0.001 A 
HETATM   21  C   UNL     1      -6.335   5.394 -28.695  1.00  0.00     0.002 A 
HETATM   22  C   UNL     1      -5.861   4.304 -29.432  1.00  0.00     0.030 A 
ENDBRANCH  13  16
ENDBRANCH   1  12
BRANCH   2  23
HETATM   23  C   UNL     1      -7.636   0.621 -33.641  1.00  0.00     0.064 A 
HETATM   24  N   UNL     1      -8.037   0.057 -32.469  1.00  0.00    -0.263 NA
HETATM   25  C   UNL     1      -9.360   0.065 -32.192  1.00  0.00     0.117 A 
HETATM   26  C   UNL     1     -10.317   0.606 -33.029  1.00  0.00     0.019 A 
HETATM   27  C   UNL     1      -9.897   1.172 -34.226  1.00  0.00     0.003 A 
HETATM   28  C   UNL     1      -8.543   1.178 -34.544  1.00  0.00     0.030 A 
ENDBRANCH   2  23
TORSDOF 3
ENDMDL
