MODEL 1
REMARK VINA RESULT:      -9.1      0.000      0.000
REMARK  5 active torsions:
REMARK  status: ('A' for Active; 'I' for Inactive)
REMARK    1  A    between atoms: C_9  and  N_10 
REMARK       I    between atoms: N_10  and  C_11 
REMARK    2  A    between atoms: C_11  and  C_12 
REMARK    3  A    between atoms: C_15  and  O_16 
REMARK    4  A    between atoms: O_16  and  C_17 
REMARK    5  A    between atoms: C_17  and  C_18 
ROOT
HETATM    1  C   UNL     1      -1.800   7.826 -30.601  1.00  0.00    -0.013 A 
HETATM    2  C   UNL     1      -1.005   7.323 -31.651  1.00  0.00     0.053 A 
HETATM    3  C   UNL     1      -1.406   7.447 -33.025  1.00  0.00     0.100 C 
HETATM    4  N   UNL     1      -1.732   7.537 -34.136  1.00  0.00    -0.191 NA
HETATM    5  C   UNL     1       0.206   6.677 -31.365  1.00  0.00     0.023 A 
HETATM    6  C   UNL     1       0.632   6.525 -30.045  1.00  0.00     0.002 A 
HETATM    7  C   UNL     1      -0.149   7.017 -29.003  1.00  0.00     0.001 A 
HETATM    8  C   UNL     1      -1.355   7.664 -29.277  1.00  0.00     0.011 A 
ENDROOT
BRANCH   1   9
HETATM    9  C   UNL     1      -3.121   8.519 -30.860  1.00  0.00     0.216 C 
BRANCH   9  10
HETATM   10  O   UNL     1      -4.167   7.738 -30.283  1.00  0.00    -0.347 OA
BRANCH  10  11
HETATM   11  C   UNL     1      -4.641   6.703 -31.038  1.00  0.00     0.069 A 
HETATM   12  C   UNL     1      -5.294   6.825 -32.263  1.00  0.00     0.038 A 
HETATM   13  C   UNL     1      -5.697   5.680 -32.957  1.00  0.00     0.020 A 
HETATM   14  C   UNL     1      -5.441   4.404 -32.440  1.00  0.00     0.032 A 
HETATM   15  C   UNL     1      -4.809   4.281 -31.197  1.00  0.00     0.020 A 
HETATM   16  C   UNL     1      -4.403   5.430 -30.509  1.00  0.00     0.038 A 
BRANCH  14  17
HETATM   17  C   UNL     1      -5.849   3.227 -33.258  1.00  0.00     0.256 C 
HETATM   18  N   UNL     1      -5.742   1.995 -32.629  1.00  0.00    -0.323 N 
HETATM   19  H   UNL     1      -5.398   1.994 -31.677  1.00  0.00     0.169 HD
HETATM   20  O   UNL     1      -6.184   3.413 -34.422  1.00  0.00    -0.267 OA
BRANCH  18  21
HETATM   21  C   UNL     1      -5.922   0.725 -33.220  1.00  0.00     0.035 A 
HETATM   22  C   UNL     1      -4.898  -0.216 -33.352  1.00  0.00     0.039 A 
HETATM   23  C   UNL     1      -5.196  -1.465 -33.878  1.00  0.00    -0.022 A 
HETATM   24  C   UNL     1      -4.277  -2.627 -34.033  1.00  0.00     0.274 C 
HETATM   25  C   UNL     1      -6.488  -1.791 -34.287  1.00  0.00    -0.025 A 
HETATM   26  N   UNL     1      -5.093  -3.668 -34.791  1.00  0.00    -0.067 N 
HETATM   27  C   UNL     1      -4.875  -5.065 -34.330  1.00  0.00     0.270 C 
HETATM   28  H   UNL     1      -4.801  -3.593 -35.772  1.00  0.00     0.280 HD
HETATM   29  C   UNL     1      -6.546  -3.208 -34.746  1.00  0.00     0.273 C 
HETATM   30  C   UNL     1      -7.513  -0.867 -34.189  1.00  0.00     0.012 A 
HETATM   31  C   UNL     1      -7.221   0.395 -33.655  1.00  0.00     0.030 A 
ENDBRANCH  18  21
ENDBRANCH  14  17
ENDBRANCH  10  11
ENDBRANCH   9  10
ENDBRANCH   1   9
TORSDOF 5
ENDMDL
MODEL 2
REMARK VINA RESULT:      -8.7      2.340     10.089
REMARK  5 active torsions:
REMARK  status: ('A' for Active; 'I' for Inactive)
REMARK    1  A    between atoms: C_9  and  N_10 
REMARK       I    between atoms: N_10  and  C_11 
REMARK    2  A    between atoms: C_11  and  C_12 
REMARK    3  A    between atoms: C_15  and  O_16 
REMARK    4  A    between atoms: O_16  and  C_17 
REMARK    5  A    between atoms: C_17  and  C_18 
ROOT
HETATM    1  C   UNL     1      -6.105  -1.142 -33.334  1.00  0.00    -0.013 A 
HETATM    2  C   UNL     1      -4.790  -1.631 -33.463  1.00  0.00     0.053 A 
HETATM    3  C   UNL     1      -3.689  -1.028 -32.763  1.00  0.00     0.100 C 
HETATM    4  N   UNL     1      -2.797  -0.537 -32.207  1.00  0.00    -0.191 NA
HETATM    5  C   UNL     1      -4.530  -2.729 -34.296  1.00  0.00     0.023 A 
HETATM    6  C   UNL     1      -5.565  -3.341 -35.003  1.00  0.00     0.002 A 
HETATM    7  C   UNL     1      -6.866  -2.862 -34.882  1.00  0.00     0.001 A 
HETATM    8  C   UNL     1      -7.136  -1.772 -34.054  1.00  0.00     0.011 A 
ENDROOT
BRANCH   1   9
HETATM    9  C   UNL     1      -6.433   0.048 -32.457  1.00  0.00     0.216 C 
BRANCH   9  10
HETATM   10  O   UNL     1      -6.397   1.229 -33.258  1.00  0.00    -0.347 OA
BRANCH  10  11
HETATM   11  C   UNL     1      -5.661   2.272 -32.771  1.00  0.00     0.069 A 
HETATM   12  C   UNL     1      -4.985   2.289 -31.553  1.00  0.00     0.038 A 
HETATM   13  C   UNL     1      -4.232   3.409 -31.188  1.00  0.00     0.020 A 
HETATM   14  C   UNL     1      -4.139   4.517 -32.040  1.00  0.00     0.032 A 
HETATM   15  C   UNL     1      -4.840   4.511 -33.251  1.00  0.00     0.020 A 
HETATM   16  C   UNL     1      -5.588   3.385 -33.614  1.00  0.00     0.038 A 
BRANCH  14  17
HETATM   17  C   UNL     1      -3.276   5.654 -31.611  1.00  0.00     0.256 C 
HETATM   18  N   UNL     1      -2.254   5.330 -30.732  1.00  0.00    -0.323 N 
HETATM   19  H   UNL     1      -2.178   4.360 -30.452  1.00  0.00     0.169 HD
HETATM   20  O   UNL     1      -3.557   6.780 -32.005  1.00  0.00    -0.267 OA
BRANCH  18  21
HETATM   21  C   UNL     1      -1.394   6.231 -30.065  1.00  0.00     0.035 A 
HETATM   22  C   UNL     1      -1.765   6.953 -28.928  1.00  0.00     0.039 A 
HETATM   23  C   UNL     1      -0.821   7.754 -28.303  1.00  0.00    -0.022 A 
HETATM   24  C   UNL     1      -0.986   8.540 -27.049  1.00  0.00     0.274 C 
HETATM   25  C   UNL     1       0.480   7.862 -28.793  1.00  0.00    -0.025 A 
HETATM   26  N   UNL     1       0.310   9.334 -26.915  1.00  0.00    -0.067 N 
HETATM   27  C   UNL     1       0.814   9.444 -25.521  1.00  0.00     0.270 C 
HETATM   28  H   UNL     1       0.098  10.276 -27.267  1.00  0.00     0.280 HD
HETATM   29  C   UNL     1       1.302   8.727 -27.901  1.00  0.00     0.273 C 
HETATM   30  C   UNL     1       0.863   7.176 -29.932  1.00  0.00     0.012 A 
HETATM   31  C   UNL     1      -0.083   6.361 -30.566  1.00  0.00     0.030 A 
ENDBRANCH  18  21
ENDBRANCH  14  17
ENDBRANCH  10  11
ENDBRANCH   9  10
ENDBRANCH   1   9
TORSDOF 5
ENDMDL
MODEL 3
REMARK VINA RESULT:      -8.5      6.879     10.428
REMARK  5 active torsions:
REMARK  status: ('A' for Active; 'I' for Inactive)
REMARK    1  A    between atoms: C_9  and  N_10 
REMARK       I    between atoms: N_10  and  C_11 
REMARK    2  A    between atoms: C_11  and  C_12 
REMARK    3  A    between atoms: C_15  and  O_16 
REMARK    4  A    between atoms: O_16  and  C_17 
REMARK    5  A    between atoms: C_17  and  C_18 
ROOT
HETATM    1  C   UNL     1      -5.622  -0.657 -33.629  1.00  0.00    -0.013 A 
HETATM    2  C   UNL     1      -4.515  -1.278 -33.016  1.00  0.00     0.053 A 
HETATM    3  C   UNL     1      -3.766  -0.627 -31.977  1.00  0.00     0.100 C 
HETATM    4  N   UNL     1      -3.152  -0.099 -31.145  1.00  0.00    -0.191 NA
HETATM    5  C   UNL     1      -4.119  -2.560 -33.422  1.00  0.00     0.023 A 
HETATM    6  C   UNL     1      -4.811  -3.227 -34.433  1.00  0.00     0.002 A 
HETATM    7  C   UNL     1      -5.903  -2.619 -35.044  1.00  0.00     0.001 A 
HETATM    8  C   UNL     1      -6.308  -1.344 -34.646  1.00  0.00     0.011 A 
ENDROOT
BRANCH   1   9
HETATM    9  C   UNL     1      -6.080   0.731 -33.233  1.00  0.00     0.216 C 
BRANCH   9  10
HETATM   10  O   UNL     1      -7.057   0.612 -32.200  1.00  0.00    -0.347 OA
BRANCH  10  11
HETATM   11  C   UNL     1      -8.326   1.012 -32.512  1.00  0.00     0.069 A 
HETATM   12  C   UNL     1      -9.330   0.195 -33.027  1.00  0.00     0.038 A 
HETATM   13  C   UNL     1     -10.603   0.721 -33.268  1.00  0.00     0.020 A 
HETATM   14  C   UNL     1     -10.887   2.063 -32.987  1.00  0.00     0.032 A 
HETATM   15  C   UNL     1      -9.872   2.891 -32.494  1.00  0.00     0.020 A 
HETATM   16  C   UNL     1      -8.601   2.358 -32.250  1.00  0.00     0.038 A 
BRANCH  14  17
HETATM   17  C   UNL     1     -12.280   2.543 -33.216  1.00  0.00     0.256 C 
HETATM   18  N   UNL     1     -12.998   2.862 -32.074  1.00  0.00    -0.323 N 
HETATM   19  H   UNL     1     -12.526   2.744 -31.186  1.00  0.00     0.169 HD
HETATM   20  O   UNL     1     -12.708   2.563 -34.364  1.00  0.00    -0.267 OA
BRANCH  18  21
HETATM   21  C   UNL     1     -14.368   3.196 -32.002  1.00  0.00     0.035 A 
HETATM   22  C   UNL     1     -14.836   4.498 -31.805  1.00  0.00     0.039 A 
HETATM   23  C   UNL     1     -16.203   4.732 -31.826  1.00  0.00    -0.022 A 
HETATM   24  C   UNL     1     -16.901   6.043 -31.714  1.00  0.00     0.274 C 
HETATM   25  C   UNL     1     -17.115   3.696 -32.025  1.00  0.00    -0.025 A 
HETATM   26  N   UNL     1     -18.383   5.689 -31.652  1.00  0.00    -0.067 N 
HETATM   27  C   UNL     1     -19.262   6.622 -32.405  1.00  0.00     0.270 C 
HETATM   28  H   UNL     1     -18.638   5.723 -30.658  1.00  0.00     0.280 HD
HETATM   29  C   UNL     1     -18.506   4.228 -32.071  1.00  0.00     0.273 C 
HETATM   30  C   UNL     1     -16.676   2.395 -32.197  1.00  0.00     0.012 A 
HETATM   31  C   UNL     1     -15.297   2.151 -32.181  1.00  0.00     0.030 A 
ENDBRANCH  18  21
ENDBRANCH  14  17
ENDBRANCH  10  11
ENDBRANCH   9  10
ENDBRANCH   1   9
TORSDOF 5
ENDMDL
MODEL 4
REMARK VINA RESULT:      -8.4      3.037      4.494
REMARK  5 active torsions:
REMARK  status: ('A' for Active; 'I' for Inactive)
REMARK    1  A    between atoms: C_9  and  N_10 
REMARK       I    between atoms: N_10  and  C_11 
REMARK    2  A    between atoms: C_11  and  C_12 
REMARK    3  A    between atoms: C_15  and  O_16 
REMARK    4  A    between atoms: O_16  and  C_17 
REMARK    5  A    between atoms: C_17  and  C_18 
ROOT
HETATM    1  C   UNL     1      -0.227   6.619 -30.377  1.00  0.00    -0.013 A 
HETATM    2  C   UNL     1      -1.110   7.678 -30.088  1.00  0.00     0.053 A 
HETATM    3  C   UNL     1      -1.803   8.386 -31.129  1.00  0.00     0.100 C 
HETATM    4  N   UNL     1      -2.356   8.968 -31.968  1.00  0.00    -0.191 NA
HETATM    5  C   UNL     1      -1.326   8.066 -28.758  1.00  0.00     0.023 A 
HETATM    6  C   UNL     1      -0.669   7.414 -27.715  1.00  0.00     0.002 A 
HETATM    7  C   UNL     1       0.207   6.368 -27.993  1.00  0.00     0.001 A 
HETATM    8  C   UNL     1       0.427   5.972 -29.313  1.00  0.00     0.011 A 
ENDROOT
BRANCH   1   9
HETATM    9  C   UNL     1       0.048   6.172 -31.797  1.00  0.00     0.216 C 
BRANCH   9  10
HETATM   10  O   UNL     1      -0.421   4.833 -31.953  1.00  0.00    -0.347 OA
BRANCH  10  11
HETATM   11  C   UNL     1      -1.732   4.685 -32.310  1.00  0.00     0.069 A 
HETATM   12  C   UNL     1      -2.325   5.211 -33.456  1.00  0.00     0.038 A 
HETATM   13  C   UNL     1      -3.672   4.953 -33.727  1.00  0.00     0.020 A 
HETATM   14  C   UNL     1      -4.436   4.159 -32.862  1.00  0.00     0.032 A 
HETATM   15  C   UNL     1      -3.848   3.652 -31.697  1.00  0.00     0.020 A 
HETATM   16  C   UNL     1      -2.497   3.909 -31.434  1.00  0.00     0.038 A 
BRANCH  14  17
HETATM   17  C   UNL     1      -5.850   3.880 -33.240  1.00  0.00     0.256 C 
HETATM   18  N   UNL     1      -6.497   2.924 -32.471  1.00  0.00    -0.323 N 
HETATM   19  H   UNL     1      -5.963   2.497 -31.725  1.00  0.00     0.169 HD
HETATM   20  O   UNL     1      -6.316   4.452 -34.219  1.00  0.00    -0.267 OA
BRANCH  18  21
HETATM   21  C   UNL     1      -7.776   2.373 -32.706  1.00  0.00     0.035 A 
HETATM   22  C   UNL     1      -8.968   3.067 -32.484  1.00  0.00     0.039 A 
HETATM   23  C   UNL     1     -10.171   2.464 -32.819  1.00  0.00    -0.022 A 
HETATM   24  C   UNL     1     -11.536   3.052 -32.734  1.00  0.00     0.274 C 
HETATM   25  C   UNL     1     -10.213   1.179 -33.358  1.00  0.00    -0.025 A 
HETATM   26  N   UNL     1     -12.476   1.904 -33.086  1.00  0.00    -0.067 N 
HETATM   27  C   UNL     1     -13.639   2.305 -33.922  1.00  0.00     0.270 C 
HETATM   28  H   UNL     1     -12.822   1.540 -32.190  1.00  0.00     0.280 HD
HETATM   29  C   UNL     1     -11.616   0.798 -33.688  1.00  0.00     0.273 C 
HETATM   30  C   UNL     1      -9.048   0.462 -33.564  1.00  0.00     0.012 A 
HETATM   31  C   UNL     1      -7.829   1.066 -33.231  1.00  0.00     0.030 A 
ENDBRANCH  18  21
ENDBRANCH  14  17
ENDBRANCH  10  11
ENDBRANCH   9  10
ENDBRANCH   1   9
TORSDOF 5
ENDMDL
MODEL 5
REMARK VINA RESULT:      -8.4      1.954      2.562
REMARK  5 active torsions:
REMARK  status: ('A' for Active; 'I' for Inactive)
REMARK    1  A    between atoms: C_9  and  N_10 
REMARK       I    between atoms: N_10  and  C_11 
REMARK    2  A    between atoms: C_11  and  C_12 
REMARK    3  A    between atoms: C_15  and  O_16 
REMARK    4  A    between atoms: O_16  and  C_17 
REMARK    5  A    between atoms: C_17  and  C_18 
ROOT
HETATM    1  C   UNL     1      -0.882   8.105 -28.093  1.00  0.00    -0.013 A 
HETATM    2  C   UNL     1       0.412   7.546 -28.084  1.00  0.00     0.053 A 
HETATM    3  C   UNL     1       0.665   6.225 -28.591  1.00  0.00     0.100 C 
HETATM    4  N   UNL     1       0.871   5.155 -28.991  1.00  0.00    -0.191 NA
HETATM    5  C   UNL     1       1.488   8.280 -27.566  1.00  0.00     0.023 A 
HETATM    6  C   UNL     1       1.289   9.562 -27.055  1.00  0.00     0.002 A 
HETATM    7  C   UNL     1       0.014  10.120 -27.058  1.00  0.00     0.001 A 
HETATM    8  C   UNL     1      -1.064   9.399 -27.574  1.00  0.00     0.011 A 
ENDROOT
BRANCH   1   9
HETATM    9  C   UNL     1      -2.077   7.347 -28.631  1.00  0.00     0.216 C 
BRANCH   9  10
HETATM   10  O   UNL     1      -1.904   7.158 -30.034  1.00  0.00    -0.347 OA
BRANCH  10  11
HETATM   11  C   UNL     1      -2.680   6.197 -30.620  1.00  0.00     0.069 A 
HETATM   12  C   UNL     1      -4.068   6.115 -30.537  1.00  0.00     0.038 A 
HETATM   13  C   UNL     1      -4.750   5.101 -31.218  1.00  0.00     0.020 A 
HETATM   14  C   UNL     1      -4.051   4.167 -31.995  1.00  0.00     0.032 A 
HETATM   15  C   UNL     1      -2.655   4.234 -32.057  1.00  0.00     0.020 A 
HETATM   16  C   UNL     1      -1.978   5.254 -31.378  1.00  0.00     0.038 A 
BRANCH  14  17
HETATM   17  C   UNL     1      -4.845   3.147 -32.737  1.00  0.00     0.256 C 
HETATM   18  N   UNL     1      -4.674   1.836 -32.316  1.00  0.00    -0.323 N 
HETATM   19  H   UNL     1      -4.032   1.679 -31.551  1.00  0.00     0.169 HD
HETATM   20  O   UNL     1      -5.529   3.516 -33.684  1.00  0.00    -0.267 OA
BRANCH  18  21
HETATM   21  C   UNL     1      -5.189   0.676 -32.936  1.00  0.00     0.035 A 
HETATM   22  C   UNL     1      -4.393  -0.394 -33.353  1.00  0.00     0.039 A 
HETATM   23  C   UNL     1      -5.003  -1.521 -33.881  1.00  0.00    -0.022 A 
HETATM   24  C   UNL     1      -4.351  -2.789 -34.312  1.00  0.00     0.274 C 
HETATM   25  C   UNL     1      -6.388  -1.601 -34.017  1.00  0.00    -0.025 A 
HETATM   26  N   UNL     1      -5.473  -3.609 -34.939  1.00  0.00    -0.067 N 
HETATM   27  C   UNL     1      -5.408  -5.063 -34.632  1.00  0.00     0.270 C 
HETATM   28  H   UNL     1      -5.381  -3.480 -35.954  1.00  0.00     0.280 HD
HETATM   29  C   UNL     1      -6.784  -2.937 -34.544  1.00  0.00     0.273 C 
HETATM   30  C   UNL     1      -7.196  -0.545 -33.634  1.00  0.00     0.012 A 
HETATM   31  C   UNL     1      -6.587   0.596 -33.095  1.00  0.00     0.030 A 
ENDBRANCH  18  21
ENDBRANCH  14  17
ENDBRANCH  10  11
ENDBRANCH   9  10
ENDBRANCH   1   9
TORSDOF 5
ENDMDL
MODEL 6
REMARK VINA RESULT:      -8.2      1.584      2.082
REMARK  5 active torsions:
REMARK  status: ('A' for Active; 'I' for Inactive)
REMARK    1  A    between atoms: C_9  and  N_10 
REMARK       I    between atoms: N_10  and  C_11 
REMARK    2  A    between atoms: C_11  and  C_12 
REMARK    3  A    between atoms: C_15  and  O_16 
REMARK    4  A    between atoms: O_16  and  C_17 
REMARK    5  A    between atoms: C_17  and  C_18 
ROOT
HETATM    1  C   UNL     1      -1.251   7.032 -29.967  1.00  0.00    -0.013 A 
HETATM    2  C   UNL     1      -0.800   6.905 -28.638  1.00  0.00     0.053 A 
HETATM    3  C   UNL     1      -1.343   7.709 -27.578  1.00  0.00     0.100 C 
HETATM    4  N   UNL     1      -1.772   8.364 -26.721  1.00  0.00    -0.191 NA
HETATM    5  C   UNL     1       0.207   5.980 -28.327  1.00  0.00     0.023 A 
HETATM    6  C   UNL     1       0.770   5.184 -29.324  1.00  0.00     0.002 A 
HETATM    7  C   UNL     1       0.331   5.306 -30.639  1.00  0.00     0.001 A 
HETATM    8  C   UNL     1      -0.673   6.222 -30.960  1.00  0.00     0.011 A 
ENDROOT
BRANCH   1   9
HETATM    9  C   UNL     1      -2.327   8.025 -30.355  1.00  0.00     0.216 C 
BRANCH   9  10
HETATM   10  O   UNL     1      -3.599   7.478 -30.011  1.00  0.00    -0.347 OA
BRANCH  10  11
HETATM   11  C   UNL     1      -4.089   6.507 -30.839  1.00  0.00     0.069 A 
HETATM   12  C   UNL     1      -4.051   6.535 -32.231  1.00  0.00     0.038 A 
HETATM   13  C   UNL     1      -4.554   5.456 -32.965  1.00  0.00     0.020 A 
HETATM   14  C   UNL     1      -5.088   4.336 -32.315  1.00  0.00     0.032 A 
HETATM   15  C   UNL     1      -5.149   4.319 -30.917  1.00  0.00     0.020 A 
HETATM   16  C   UNL     1      -4.640   5.399 -30.187  1.00  0.00     0.038 A 
BRANCH  14  17
HETATM   17  C   UNL     1      -5.555   3.199 -33.158  1.00  0.00     0.256 C 
HETATM   18  N   UNL     1      -5.652   1.976 -32.511  1.00  0.00    -0.323 N 
HETATM   19  H   UNL     1      -5.399   1.953 -31.532  1.00  0.00     0.169 HD
HETATM   20  O   UNL     1      -5.757   3.401 -34.350  1.00  0.00    -0.267 OA
BRANCH  18  21
HETATM   21  C   UNL     1      -5.926   0.724 -33.105  1.00  0.00     0.035 A 
HETATM   22  C   UNL     1      -4.940  -0.218 -33.410  1.00  0.00     0.039 A 
HETATM   23  C   UNL     1      -5.321  -1.449 -33.922  1.00  0.00    -0.022 A 
HETATM   24  C   UNL     1      -4.445  -2.610 -34.240  1.00  0.00     0.274 C 
HETATM   25  C   UNL     1      -6.661  -1.758 -34.150  1.00  0.00    -0.025 A 
HETATM   26  N   UNL     1      -5.370  -3.625 -34.902  1.00  0.00    -0.067 N 
HETATM   27  C   UNL     1      -5.100  -5.036 -34.517  1.00  0.00     0.270 C 
HETATM   28  H   UNL     1      -5.221  -3.523 -35.913  1.00  0.00     0.280 HD
HETATM   29  C   UNL     1      -6.797  -3.160 -34.636  1.00  0.00     0.273 C 
HETATM   30  C   UNL     1      -7.654  -0.832 -33.880  1.00  0.00     0.012 A 
HETATM   31  C   UNL     1      -7.277   0.412 -33.359  1.00  0.00     0.030 A 
ENDBRANCH  18  21
ENDBRANCH  14  17
ENDBRANCH  10  11
ENDBRANCH   9  10
ENDBRANCH   1   9
TORSDOF 5
ENDMDL
MODEL 7
REMARK VINA RESULT:      -8.2      6.439     10.167
REMARK  5 active torsions:
REMARK  status: ('A' for Active; 'I' for Inactive)
REMARK    1  A    between atoms: C_9  and  N_10 
REMARK       I    between atoms: N_10  and  C_11 
REMARK    2  A    between atoms: C_11  and  C_12 
REMARK    3  A    between atoms: C_15  and  O_16 
REMARK    4  A    between atoms: O_16  and  C_17 
REMARK    5  A    between atoms: C_17  and  C_18 
ROOT
HETATM    1  C   UNL     1      -4.836  -2.313 -33.705  1.00  0.00    -0.013 A 
HETATM    2  C   UNL     1      -4.533  -3.688 -33.760  1.00  0.00     0.053 A 
HETATM    3  C   UNL     1      -5.220  -4.576 -34.658  1.00  0.00     0.100 C 
HETATM    4  N   UNL     1      -5.780  -5.297 -35.374  1.00  0.00    -0.191 NA
HETATM    5  C   UNL     1      -3.544  -4.222 -32.921  1.00  0.00     0.023 A 
HETATM    6  C   UNL     1      -2.857  -3.400 -32.027  1.00  0.00     0.002 A 
HETATM    7  C   UNL     1      -3.152  -2.041 -31.966  1.00  0.00     0.001 A 
HETATM    8  C   UNL     1      -4.133  -1.500 -32.798  1.00  0.00     0.011 A 
ENDROOT
BRANCH   1   9
HETATM    9  C   UNL     1      -5.904  -1.694 -34.582  1.00  0.00     0.216 C 
BRANCH   9  10
HETATM   10  O   UNL     1      -7.138  -1.695 -33.866  1.00  0.00    -0.347 OA
BRANCH  10  11
HETATM   11  C   UNL     1      -7.850  -0.528 -33.879  1.00  0.00     0.069 A 
HETATM   12  C   UNL     1      -7.613   0.557 -34.719  1.00  0.00     0.038 A 
HETATM   13  C   UNL     1      -8.442   1.682 -34.659  1.00  0.00     0.020 A 
HETATM   14  C   UNL     1      -9.521   1.727 -33.767  1.00  0.00     0.032 A 
HETATM   15  C   UNL     1      -9.744   0.648 -32.904  1.00  0.00     0.020 A 
HETATM   16  C   UNL     1      -8.914  -0.477 -32.972  1.00  0.00     0.038 A 
BRANCH  14  17
HETATM   17  C   UNL     1     -10.396   2.934 -33.794  1.00  0.00     0.256 C 
HETATM   18  N   UNL     1     -10.524   3.551 -35.029  1.00  0.00    -0.323 N 
HETATM   19  H   UNL     1     -10.019   3.140 -35.803  1.00  0.00     0.169 HD
HETATM   20  O   UNL     1     -10.881   3.326 -32.739  1.00  0.00    -0.267 OA
BRANCH  18  21
HETATM   21  C   UNL     1     -11.168   4.780 -35.297  1.00  0.00     0.035 A 
HETATM   22  C   UNL     1     -10.497   6.003 -35.368  1.00  0.00     0.039 A 
HETATM   23  C   UNL     1     -11.208   7.142 -35.714  1.00  0.00    -0.022 A 
HETATM   24  C   UNL     1     -10.676   8.518 -35.917  1.00  0.00     0.274 C 
HETATM   25  C   UNL     1     -12.576   7.092 -35.978  1.00  0.00    -0.025 A 
HETATM   26  N   UNL     1     -11.912   9.384 -36.136  1.00  0.00    -0.067 N 
HETATM   27  C   UNL     1     -11.741  10.438 -37.170  1.00  0.00     0.270 C 
HETATM   28  H   UNL     1     -12.102   9.833 -35.232  1.00  0.00     0.280 HD
HETATM   29  C   UNL     1     -13.077   8.433 -36.389  1.00  0.00     0.273 C 
HETATM   30  C   UNL     1     -13.268   5.896 -35.889  1.00  0.00     0.012 A 
HETATM   31  C   UNL     1     -12.555   4.741 -35.545  1.00  0.00     0.030 A 
ENDBRANCH  18  21
ENDBRANCH  14  17
ENDBRANCH  10  11
ENDBRANCH   9  10
ENDBRANCH   1   9
TORSDOF 5
ENDMDL
MODEL 8
REMARK VINA RESULT:      -8.2      5.729      9.921
REMARK  5 active torsions:
REMARK  status: ('A' for Active; 'I' for Inactive)
REMARK    1  A    between atoms: C_9  and  N_10 
REMARK       I    between atoms: N_10  and  C_11 
REMARK    2  A    between atoms: C_11  and  C_12 
REMARK    3  A    between atoms: C_15  and  O_16 
REMARK    4  A    between atoms: O_16  and  C_17 
REMARK    5  A    between atoms: C_17  and  C_18 
ROOT
HETATM    1  C   UNL     1      -4.783  -2.527 -33.761  1.00  0.00    -0.013 A 
HETATM    2  C   UNL     1      -4.732  -3.920 -33.969  1.00  0.00     0.053 A 
HETATM    3  C   UNL     1      -5.570  -4.566 -34.941  1.00  0.00     0.100 C 
HETATM    4  N   UNL     1      -6.254  -5.094 -35.717  1.00  0.00    -0.191 NA
HETATM    5  C   UNL     1      -3.852  -4.709 -33.216  1.00  0.00     0.023 A 
HETATM    6  C   UNL     1      -3.025  -4.126 -32.255  1.00  0.00     0.002 A 
HETATM    7  C   UNL     1      -3.071  -2.751 -32.042  1.00  0.00     0.001 A 
HETATM    8  C   UNL     1      -3.942  -1.956 -32.788  1.00  0.00     0.011 A 
ENDROOT
BRANCH   1   9
HETATM    9  C   UNL     1      -5.725  -1.635 -34.541  1.00  0.00     0.216 C 
BRANCH   9  10
HETATM   10  O   UNL     1      -5.439  -0.275 -34.218  1.00  0.00    -0.347 OA
BRANCH  10  11
HETATM   11  C   UNL     1      -6.514   0.556 -34.072  1.00  0.00     0.069 A 
HETATM   12  C   UNL     1      -6.456   1.941 -33.937  1.00  0.00     0.038 A 
HETATM   13  C   UNL     1      -7.637   2.684 -33.834  1.00  0.00     0.020 A 
HETATM   14  C   UNL     1      -8.885   2.049 -33.875  1.00  0.00     0.032 A 
HETATM   15  C   UNL     1      -8.944   0.655 -33.984  1.00  0.00     0.020 A 
HETATM   16  C   UNL     1      -7.759  -0.082 -34.092  1.00  0.00     0.038 A 
BRANCH  14  17
HETATM   17  C   UNL     1     -10.103   2.907 -33.815  1.00  0.00     0.256 C 
HETATM   18  N   UNL     1     -11.046   2.540 -32.866  1.00  0.00    -0.323 N 
HETATM   19  H   UNL     1     -10.835   1.728 -32.299  1.00  0.00     0.169 HD
HETATM   20  O   UNL     1     -10.217   3.817 -34.628  1.00  0.00    -0.267 OA
BRANCH  18  21
HETATM   21  C   UNL     1     -12.337   3.087 -32.702  1.00  0.00     0.035 A 
HETATM   22  C   UNL     1     -13.511   2.335 -32.795  1.00  0.00     0.039 A 
HETATM   23  C   UNL     1     -14.727   2.952 -32.541  1.00  0.00    -0.022 A 
HETATM   24  C   UNL     1     -16.076   2.322 -32.512  1.00  0.00     0.274 C 
HETATM   25  C   UNL     1     -14.801   4.304 -32.210  1.00  0.00    -0.025 A 
HETATM   26  N   UNL     1     -17.045   3.486 -32.331  1.00  0.00    -0.067 N 
HETATM   27  C   UNL     1     -18.187   3.191 -31.425  1.00  0.00     0.270 C 
HETATM   28  H   UNL     1     -17.410   3.695 -33.268  1.00  0.00     0.280 HD
HETATM   29  C   UNL     1     -16.210   4.694 -31.922  1.00  0.00     0.273 C 
HETATM   30  C   UNL     1     -13.654   5.075 -32.136  1.00  0.00     0.012 A 
HETATM   31  C   UNL     1     -12.422   4.458 -32.387  1.00  0.00     0.030 A 
ENDBRANCH  18  21
ENDBRANCH  14  17
ENDBRANCH  10  11
ENDBRANCH   9  10
ENDBRANCH   1   9
TORSDOF 5
ENDMDL
MODEL 9
REMARK VINA RESULT:      -8.1      3.375      4.916
REMARK  5 active torsions:
REMARK  status: ('A' for Active; 'I' for Inactive)
REMARK    1  A    between atoms: C_9  and  N_10 
REMARK       I    between atoms: N_10  and  C_11 
REMARK    2  A    between atoms: C_11  and  C_12 
REMARK    3  A    between atoms: C_15  and  O_16 
REMARK    4  A    between atoms: O_16  and  C_17 
REMARK    5  A    between atoms: C_17  and  C_18 
ROOT
HETATM    1  C   UNL     1      -0.927   7.075 -32.338  1.00  0.00    -0.013 A 
HETATM    2  C   UNL     1      -0.440   6.615 -31.098  1.00  0.00     0.053 A 
HETATM    3  C   UNL     1       0.477   5.512 -31.011  1.00  0.00     0.100 C 
HETATM    4  N   UNL     1       1.209   4.614 -30.937  1.00  0.00    -0.191 NA
HETATM    5  C   UNL     1      -0.855   7.233 -29.910  1.00  0.00     0.023 A 
HETATM    6  C   UNL     1      -1.750   8.303 -29.944  1.00  0.00     0.002 A 
HETATM    7  C   UNL     1      -2.237   8.761 -31.164  1.00  0.00     0.001 A 
HETATM    8  C   UNL     1      -1.829   8.154 -32.353  1.00  0.00     0.011 A 
ENDROOT
BRANCH   1   9
HETATM    9  C   UNL     1      -0.518   6.432 -33.646  1.00  0.00     0.216 C 
BRANCH   9  10
HETATM   10  O   UNL     1      -1.030   5.101 -33.680  1.00  0.00    -0.347 OA
BRANCH  10  11
HETATM   11  C   UNL     1      -2.389   4.973 -33.754  1.00  0.00     0.069 A 
HETATM   12  C   UNL     1      -3.173   5.281 -34.863  1.00  0.00     0.038 A 
HETATM   13  C   UNL     1      -4.554   5.067 -34.824  1.00  0.00     0.020 A 
HETATM   14  C   UNL     1      -5.162   4.533 -33.681  1.00  0.00     0.032 A 
HETATM   15  C   UNL     1      -4.379   4.247 -32.557  1.00  0.00     0.020 A 
HETATM   16  C   UNL     1      -2.996   4.459 -32.604  1.00  0.00     0.038 A 
BRANCH  14  17
HETATM   17  C   UNL     1      -6.631   4.280 -33.727  1.00  0.00     0.256 C 
HETATM   18  N   UNL     1      -7.040   3.046 -33.244  1.00  0.00    -0.323 N 
HETATM   19  H   UNL     1      -6.318   2.423 -32.905  1.00  0.00     0.169 HD
HETATM   20  O   UNL     1      -7.353   5.130 -34.234  1.00  0.00    -0.267 OA
BRANCH  18  21
HETATM   21  C   UNL     1      -8.342   2.502 -33.308  1.00  0.00     0.035 A 
HETATM   22  C   UNL     1      -9.464   3.116 -32.747  1.00  0.00     0.039 A 
HETATM   23  C   UNL     1     -10.710   2.538 -32.932  1.00  0.00    -0.022 A 
HETATM   24  C   UNL     1     -12.030   3.065 -32.486  1.00  0.00     0.274 C 
HETATM   25  C   UNL     1     -10.863   1.354 -33.652  1.00  0.00    -0.025 A 
HETATM   26  N   UNL     1     -13.025   1.960 -32.827  1.00  0.00    -0.067 N 
HETATM   27  C   UNL     1     -14.329   2.454 -33.342  1.00  0.00     0.270 C 
HETATM   28  H   UNL     1     -13.186   1.449 -31.951  1.00  0.00     0.280 HD
HETATM   29  C   UNL     1     -12.304   0.990 -33.757  1.00  0.00     0.273 C 
HETATM   30  C   UNL     1      -9.764   0.714 -34.196  1.00  0.00     0.012 A 
HETATM   31  C   UNL     1      -8.501   1.294 -34.018  1.00  0.00     0.030 A 
ENDBRANCH  18  21
ENDBRANCH  14  17
ENDBRANCH  10  11
ENDBRANCH   9  10
ENDBRANCH   1   9
TORSDOF 5
ENDMDL
MODEL 10
REMARK VINA RESULT:      -8.1      5.898     10.165
REMARK  5 active torsions:
REMARK  status: ('A' for Active; 'I' for Inactive)
REMARK    1  A    between atoms: C_9  and  N_10 
REMARK       I    between atoms: N_10  and  C_11 
REMARK    2  A    between atoms: C_11  and  C_12 
REMARK    3  A    between atoms: C_15  and  O_16 
REMARK    4  A    between atoms: O_16  and  C_17 
REMARK    5  A    between atoms: C_17  and  C_18 
ROOT
HETATM    1  C   UNL     1      -4.990  -2.537 -33.994  1.00  0.00    -0.013 A 
HETATM    2  C   UNL     1      -4.231  -3.567 -33.404  1.00  0.00     0.053 A 
HETATM    3  C   UNL     1      -3.291  -3.301 -32.350  1.00  0.00     0.100 C 
HETATM    4  N   UNL     1      -2.523  -3.088 -31.505  1.00  0.00    -0.191 NA
HETATM    5  C   UNL     1      -4.378  -4.888 -33.849  1.00  0.00     0.023 A 
HETATM    6  C   UNL     1      -5.272  -5.193 -34.876  1.00  0.00     0.002 A 
HETATM    7  C   UNL     1      -6.024  -4.181 -35.464  1.00  0.00     0.001 A 
HETATM    8  C   UNL     1      -5.886  -2.862 -35.027  1.00  0.00     0.011 A 
ENDROOT
BRANCH   1   9
HETATM    9  C   UNL     1      -4.856  -1.094 -33.556  1.00  0.00     0.216 C 
BRANCH   9  10
HETATM   10  O   UNL     1      -5.774  -0.853 -32.490  1.00  0.00    -0.347 OA
BRANCH  10  11
HETATM   11  C   UNL     1      -6.869  -0.093 -32.789  1.00  0.00     0.069 A 
HETATM   12  C   UNL     1      -8.086  -0.576 -33.265  1.00  0.00     0.038 A 
HETATM   13  C   UNL     1      -9.147   0.306 -33.496  1.00  0.00     0.020 A 
HETATM   14  C   UNL     1      -9.003   1.677 -33.244  1.00  0.00     0.032 A 
HETATM   15  C   UNL     1      -7.773   2.166 -32.791  1.00  0.00     0.020 A 
HETATM   16  C   UNL     1      -6.717   1.278 -32.557  1.00  0.00     0.038 A 
BRANCH  14  17
HETATM   17  C   UNL     1     -10.191   2.551 -33.461  1.00  0.00     0.256 C 
HETATM   18  N   UNL     1     -11.089   2.611 -32.406  1.00  0.00    -0.323 N 
HETATM   19  H   UNL     1     -10.872   2.061 -31.585  1.00  0.00     0.169 HD
HETATM   20  O   UNL     1     -10.322   3.097 -34.550  1.00  0.00    -0.267 OA
BRANCH  18  21
HETATM   21  C   UNL     1     -12.354   3.240 -32.407  1.00  0.00     0.035 A 
HETATM   22  C   UNL     1     -13.563   2.543 -32.436  1.00  0.00     0.039 A 
HETATM   23  C   UNL     1     -14.752   3.253 -32.356  1.00  0.00    -0.022 A 
HETATM   24  C   UNL     1     -16.135   2.704 -32.296  1.00  0.00     0.274 C 
HETATM   25  C   UNL     1     -14.763   4.644 -32.262  1.00  0.00    -0.025 A 
HETATM   26  N   UNL     1     -17.042   3.928 -32.366  1.00  0.00    -0.067 N 
HETATM   27  C   UNL     1     -18.239   3.848 -31.487  1.00  0.00     0.270 C 
HETATM   28  H   UNL     1     -17.351   3.991 -33.343  1.00  0.00     0.280 HD
HETATM   29  C   UNL     1     -16.158   5.146 -32.122  1.00  0.00     0.273 C 
HETATM   30  C   UNL     1     -13.578   5.359 -32.256  1.00  0.00     0.012 A 
HETATM   31  C   UNL     1     -12.373   4.648 -32.332  1.00  0.00     0.030 A 
ENDBRANCH  18  21
ENDBRANCH  14  17
ENDBRANCH  10  11
ENDBRANCH   9  10
ENDBRANCH   1   9
TORSDOF 5
ENDMDL
