MODEL 1
REMARK VINA RESULT:      -9.2      0.000      0.000
REMARK  7 active torsions:
REMARK  status: ('A' for Active; 'I' for Inactive)
REMARK    1  A    between atoms: C_2  and  N_3 
REMARK    2  A    between atoms: C_2  and  C_10 
REMARK    3  A    between atoms: N_11  and  C_12 
REMARK    4  A    between atoms: C_19  and  S_20 
REMARK    5  A    between atoms: S_20  and  C_21 
REMARK    6  A    between atoms: C_21  and  C_22 
REMARK    7  A    between atoms: C_21  and  C_28 
REMARK       I    between atoms: C_22  and  N_23 
REMARK       I    between atoms: N_23  and  C_24 
REMARK       I    between atoms: C_24  and  N_25 
ROOT
HETATM    1  C   UNL     1      -6.275   3.591 -30.999  1.00  0.00     0.166 A 
HETATM    2  N   UNL     1      -5.454   3.060 -31.988  1.00  0.00    -0.274 N 
HETATM    3  C   UNL     1      -5.828   1.729 -32.047  1.00  0.00     0.197 A 
HETATM    4  N   UNL     1      -6.738   1.475 -31.134  1.00  0.00    -0.122 NA
HETATM    5  N   UNL     1      -7.015   2.637 -30.472  1.00  0.00    -0.131 NA
ENDROOT
BRANCH   3   6
HETATM    6  S   UNL     1      -5.124   0.504 -33.049  1.00  0.00    -0.070 SA
BRANCH   6   7
HETATM    7  C   UNL     1      -6.529  -0.637 -33.325  1.00  0.00     0.180 C 
BRANCH   7   8
HETATM    8  C   UNL     1      -7.642   0.086 -34.100  1.00  0.00     0.244 C 
HETATM    9  N   UNL     1      -8.866   0.151 -33.452  1.00  0.00    -0.278 N 
HETATM   10  C   UNL     1      -9.957   0.906 -33.766  1.00  0.00     0.320 C 
HETATM   11  H   UNL     1      -8.965  -0.287 -32.545  1.00  0.00     0.173 HD
HETATM   12  N   UNL     1      -9.889   1.648 -34.890  1.00  0.00    -0.352 N 
HETATM   13  O   UNL     1     -10.939   0.941 -33.034  1.00  0.00    -0.247 OA
HETATM   14  H   UNL     1      -9.195   1.425 -35.593  1.00  0.00     0.160 HD
HETATM   15  H   UNL     1     -10.728   2.138 -35.169  1.00  0.00     0.160 HD
HETATM   16  O   UNL     1      -7.447   0.483 -35.255  1.00  0.00    -0.271 OA
ENDBRANCH   7   8
BRANCH   7  17
HETATM   17  C   UNL     1      -6.165  -1.989 -33.933  1.00  0.00    -0.035 A 
HETATM   18  C   UNL     1      -7.105  -2.905 -34.435  1.00  0.00     0.009 A 
HETATM   19  C   UNL     1      -6.699  -4.139 -34.951  1.00  0.00     0.001 A 
HETATM   20  C   UNL     1      -5.351  -4.485 -34.962  1.00  0.00     0.000 A 
HETATM   21  C   UNL     1      -4.405  -3.599 -34.461  1.00  0.00     0.001 A 
HETATM   22  C   UNL     1      -4.806  -2.362 -33.953  1.00  0.00     0.009 A 
ENDBRANCH   7  17
ENDBRANCH   6   7
ENDBRANCH   3   6
BRANCH   2  23
HETATM   23  C   UNL     1      -4.483   3.750 -32.750  1.00  0.00     0.043 A 
HETATM   24  C   UNL     1      -4.877   4.448 -33.903  1.00  0.00     0.033 A 
HETATM   25  C   UNL     1      -3.921   5.133 -34.657  1.00  0.00     0.044 A 
HETATM   26  C   UNL     1      -2.590   5.120 -34.257  1.00  0.00     0.116 A 
HETATM   27  F   UNL     1      -1.680   5.776 -34.986  1.00  0.00    -0.206 F 
HETATM   28  C   UNL     1      -2.194   4.443 -33.109  1.00  0.00     0.044 A 
HETATM   29  C   UNL     1      -3.141   3.756 -32.346  1.00  0.00     0.033 A 
ENDBRANCH   2  23
BRANCH   1  30
HETATM   30  C   UNL     1      -6.461   5.045 -30.681  1.00  0.00     0.255 C 
HETATM   31  C   UNL     1      -7.883   5.233 -30.135  1.00  0.00     0.049 C 
BRANCH  30  32
HETATM   32  N   UNL     1      -5.420   5.518 -29.639  1.00  0.00    -0.060 N 
HETATM   33  H   UNL     1      -4.815   4.695 -29.484  1.00  0.00     0.280 HD
HETATM   34  C   UNL     1      -4.521   6.601 -30.216  1.00  0.00     0.236 C 
HETATM   35  C   UNL     1      -3.427   6.965 -29.224  1.00  0.00     0.028 C 
HETATM   36  C   UNL     1      -4.009   7.406 -27.890  1.00  0.00     0.003 C 
HETATM   37  C   UNL     1      -4.924   6.328 -27.330  1.00  0.00     0.028 C 
HETATM   38  C   UNL     1      -6.017   5.938 -28.315  1.00  0.00     0.236 C 
ENDBRANCH  30  32
ENDBRANCH   1  30
TORSDOF 7
ENDMDL
MODEL 2
REMARK VINA RESULT:      -9.1      1.304      1.853
REMARK  7 active torsions:
REMARK  status: ('A' for Active; 'I' for Inactive)
REMARK    1  A    between atoms: C_2  and  N_3 
REMARK    2  A    between atoms: C_2  and  C_10 
REMARK    3  A    between atoms: N_11  and  C_12 
REMARK    4  A    between atoms: C_19  and  S_20 
REMARK    5  A    between atoms: S_20  and  C_21 
REMARK    6  A    between atoms: C_21  and  C_22 
REMARK    7  A    between atoms: C_21  and  C_28 
REMARK       I    between atoms: C_22  and  N_23 
REMARK       I    between atoms: N_23  and  C_24 
REMARK       I    between atoms: C_24  and  N_25 
ROOT
HETATM    1  C   UNL     1      -5.101   4.360 -30.453  1.00  0.00     0.166 A 
HETATM    2  N   UNL     1      -4.414   3.709 -31.471  1.00  0.00    -0.274 N 
HETATM    3  C   UNL     1      -4.860   2.402 -31.388  1.00  0.00     0.197 A 
HETATM    4  N   UNL     1      -5.685   2.272 -30.374  1.00  0.00    -0.122 NA
HETATM    5  N   UNL     1      -5.833   3.494 -29.783  1.00  0.00    -0.131 NA
ENDROOT
BRANCH   3   6
HETATM    6  S   UNL     1      -4.327   1.066 -32.352  1.00  0.00    -0.070 SA
BRANCH   6   7
HETATM    7  C   UNL     1      -5.894   0.201 -32.731  1.00  0.00     0.180 C 
BRANCH   7   8
HETATM    8  C   UNL     1      -6.873   1.171 -33.411  1.00  0.00     0.244 C 
HETATM    9  N   UNL     1      -8.026   1.446 -32.692  1.00  0.00    -0.278 N 
HETATM   10  C   UNL     1      -8.956   2.419 -32.911  1.00  0.00     0.320 C 
HETATM   11  H   UNL     1      -8.168   0.990 -31.799  1.00  0.00     0.173 HD
HETATM   12  N   UNL     1      -8.793   3.190 -34.005  1.00  0.00    -0.352 N 
HETATM   13  O   UNL     1      -9.874   2.612 -32.123  1.00  0.00    -0.247 OA
HETATM   14  H   UNL     1      -8.193   2.870 -34.755  1.00  0.00     0.160 HD
HETATM   15  H   UNL     1      -9.528   3.852 -34.215  1.00  0.00     0.160 HD
HETATM   16  O   UNL     1      -6.658   1.580 -34.558  1.00  0.00    -0.271 OA
ENDBRANCH   7   8
BRANCH   7  17
HETATM   17  C   UNL     1      -5.748  -1.118 -33.486  1.00  0.00    -0.035 A 
HETATM   18  C   UNL     1      -4.515  -1.709 -33.808  1.00  0.00     0.009 A 
HETATM   19  C   UNL     1      -4.460  -2.906 -34.528  1.00  0.00     0.001 A 
HETATM   20  C   UNL     1      -5.632  -3.526 -34.950  1.00  0.00     0.000 A 
HETATM   21  C   UNL     1      -6.863  -2.954 -34.651  1.00  0.00     0.001 A 
HETATM   22  C   UNL     1      -6.922  -1.763 -33.925  1.00  0.00     0.009 A 
ENDBRANCH   7  17
ENDBRANCH   6   7
ENDBRANCH   3   6
BRANCH   2  23
HETATM   23  C   UNL     1      -3.489   4.281 -32.376  1.00  0.00     0.043 A 
HETATM   24  C   UNL     1      -2.156   4.465 -31.977  1.00  0.00     0.033 A 
HETATM   25  C   UNL     1      -1.239   5.028 -32.868  1.00  0.00     0.044 A 
HETATM   26  C   UNL     1      -1.654   5.396 -34.142  1.00  0.00     0.116 A 
HETATM   27  F   UNL     1      -0.771   5.936 -34.989  1.00  0.00    -0.206 F 
HETATM   28  C   UNL     1      -2.969   5.203 -34.550  1.00  0.00     0.044 A 
HETATM   29  C   UNL     1      -3.894   4.640 -33.668  1.00  0.00     0.033 A 
ENDBRANCH   2  23
BRANCH   1  30
HETATM   30  C   UNL     1      -5.178   5.842 -30.234  1.00  0.00     0.255 C 
HETATM   31  C   UNL     1      -6.544   6.160 -29.611  1.00  0.00     0.049 C 
BRANCH  30  32
HETATM   32  N   UNL     1      -4.039   6.321 -29.303  1.00  0.00    -0.060 N 
HETATM   33  H   UNL     1      -3.420   5.499 -29.206  1.00  0.00     0.280 HD
HETATM   34  C   UNL     1      -3.205   7.404 -29.970  1.00  0.00     0.236 C 
HETATM   35  C   UNL     1      -2.019   7.773 -29.092  1.00  0.00     0.028 C 
HETATM   36  C   UNL     1      -2.467   8.217 -27.708  1.00  0.00     0.003 C 
HETATM   37  C   UNL     1      -3.319   7.139 -27.056  1.00  0.00     0.028 C 
HETATM   38  C   UNL     1      -4.503   6.743 -27.927  1.00  0.00     0.236 C 
ENDBRANCH  30  32
ENDBRANCH   1  30
TORSDOF 7
ENDMDL
MODEL 3
REMARK VINA RESULT:      -9.0      3.011      5.163
REMARK  7 active torsions:
REMARK  status: ('A' for Active; 'I' for Inactive)
REMARK    1  A    between atoms: C_2  and  N_3 
REMARK    2  A    between atoms: C_2  and  C_10 
REMARK    3  A    between atoms: N_11  and  C_12 
REMARK    4  A    between atoms: C_19  and  S_20 
REMARK    5  A    between atoms: S_20  and  C_21 
REMARK    6  A    between atoms: C_21  and  C_22 
REMARK    7  A    between atoms: C_21  and  C_28 
REMARK       I    between atoms: C_22  and  N_23 
REMARK       I    between atoms: N_23  and  C_24 
REMARK       I    between atoms: C_24  and  N_25 
ROOT
HETATM    1  C   UNL     1      -4.169   3.223 -32.101  1.00  0.00     0.166 A 
HETATM    2  N   UNL     1      -5.270   2.388 -31.949  1.00  0.00    -0.274 N 
HETATM    3  C   UNL     1      -4.726   1.116 -31.973  1.00  0.00     0.197 A 
HETATM    4  N   UNL     1      -3.432   1.184 -32.186  1.00  0.00    -0.122 NA
HETATM    5  N   UNL     1      -3.081   2.501 -32.273  1.00  0.00    -0.131 NA
ENDROOT
BRANCH   3   6
HETATM    6  S   UNL     1      -5.596  -0.379 -31.893  1.00  0.00    -0.070 SA
BRANCH   6   7
HETATM    7  C   UNL     1      -6.347  -0.489 -33.559  1.00  0.00     0.180 C 
BRANCH   7   8
HETATM    8  C   UNL     1      -6.123  -1.895 -34.139  1.00  0.00     0.244 C 
HETATM    9  N   UNL     1      -4.878  -2.448 -33.883  1.00  0.00    -0.278 N 
HETATM   10  C   UNL     1      -4.465  -3.736 -34.057  1.00  0.00     0.320 C 
HETATM   11  H   UNL     1      -4.197  -1.905 -33.367  1.00  0.00     0.173 HD
HETATM   12  N   UNL     1      -5.343  -4.594 -34.612  1.00  0.00    -0.352 N 
HETATM   13  O   UNL     1      -3.358  -4.105 -33.683  1.00  0.00    -0.247 OA
HETATM   14  H   UNL     1      -6.136  -4.231 -35.128  1.00  0.00     0.160 HD
HETATM   15  H   UNL     1      -5.008  -5.525 -34.821  1.00  0.00     0.160 HD
HETATM   16  O   UNL     1      -6.981  -2.423 -34.857  1.00  0.00    -0.271 OA
ENDBRANCH   7   8
BRANCH   7  17
HETATM   17  C   UNL     1      -7.801  -0.034 -33.655  1.00  0.00    -0.035 A 
HETATM   18  C   UNL     1      -8.328   0.696 -34.732  1.00  0.00     0.009 A 
HETATM   19  C   UNL     1      -9.665   1.104 -34.736  1.00  0.00     0.001 A 
HETATM   20  C   UNL     1     -10.494   0.803 -33.660  1.00  0.00     0.000 A 
HETATM   21  C   UNL     1      -9.991   0.090 -32.578  1.00  0.00     0.001 A 
HETATM   22  C   UNL     1      -8.658  -0.326 -32.575  1.00  0.00     0.009 A 
ENDBRANCH   7  17
ENDBRANCH   6   7
ENDBRANCH   3   6
BRANCH   2  23
HETATM   23  C   UNL     1      -6.621   2.780 -31.793  1.00  0.00     0.043 A 
HETATM   24  C   UNL     1      -7.289   2.494 -30.592  1.00  0.00     0.033 A 
HETATM   25  C   UNL     1      -8.621   2.880 -30.433  1.00  0.00     0.044 A 
HETATM   26  C   UNL     1      -9.272   3.549 -31.463  1.00  0.00     0.116 A 
HETATM   27  F   UNL     1     -10.549   3.914 -31.305  1.00  0.00    -0.206 F 
HETATM   28  C   UNL     1      -8.613   3.849 -32.650  1.00  0.00     0.044 A 
HETATM   29  C   UNL     1      -7.280   3.469 -32.820  1.00  0.00     0.033 A 
ENDBRANCH   2  23
BRANCH   1  30
HETATM   30  C   UNL     1      -4.145   4.711 -31.915  1.00  0.00     0.255 C 
HETATM   31  C   UNL     1      -4.471   5.011 -30.445  1.00  0.00     0.049 C 
BRANCH  30  32
HETATM   32  N   UNL     1      -2.759   5.291 -32.286  1.00  0.00    -0.060 N 
HETATM   33  H   UNL     1      -2.199   4.468 -32.562  1.00  0.00     0.280 HD
HETATM   34  C   UNL     1      -2.849   6.176 -33.521  1.00  0.00     0.236 C 
HETATM   35  C   UNL     1      -1.461   6.635 -33.944  1.00  0.00     0.028 C 
HETATM   36  C   UNL     1      -0.747   7.360 -32.814  1.00  0.00     0.003 C 
HETATM   37  C   UNL     1      -0.681   6.479 -31.576  1.00  0.00     0.028 C 
HETATM   38  C   UNL     1      -2.058   5.995 -31.146  1.00  0.00     0.236 C 
ENDBRANCH  30  32
ENDBRANCH   1  30
TORSDOF 7
ENDMDL
MODEL 4
REMARK VINA RESULT:      -8.8      3.084      6.145
REMARK  7 active torsions:
REMARK  status: ('A' for Active; 'I' for Inactive)
REMARK    1  A    between atoms: C_2  and  N_3 
REMARK    2  A    between atoms: C_2  and  C_10 
REMARK    3  A    between atoms: N_11  and  C_12 
REMARK    4  A    between atoms: C_19  and  S_20 
REMARK    5  A    between atoms: S_20  and  C_21 
REMARK    6  A    between atoms: C_21  and  C_22 
REMARK    7  A    between atoms: C_21  and  C_28 
REMARK       I    between atoms: C_22  and  N_23 
REMARK       I    between atoms: N_23  and  C_24 
REMARK       I    between atoms: C_24  and  N_25 
ROOT
HETATM    1  C   UNL     1      -4.979   0.657 -31.620  1.00  0.00     0.166 A 
HETATM    2  N   UNL     1      -5.401   1.982 -31.627  1.00  0.00    -0.274 N 
HETATM    3  C   UNL     1      -6.289   2.050 -30.568  1.00  0.00     0.197 A 
HETATM    4  N   UNL     1      -6.433   0.863 -30.023  1.00  0.00    -0.122 NA
HETATM    5  N   UNL     1      -5.620  -0.012 -30.684  1.00  0.00    -0.131 NA
ENDROOT
BRANCH   3   6
HETATM    6  S   UNL     1      -7.215   3.432 -30.087  1.00  0.00    -0.070 SA
BRANCH   6   7
HETATM    7  C   UNL     1      -8.929   2.912 -30.466  1.00  0.00     0.180 C 
BRANCH   7   8
HETATM    8  C   UNL     1      -9.870   4.124 -30.391  1.00  0.00     0.244 C 
HETATM    9  N   UNL     1     -11.220   3.831 -30.502  1.00  0.00    -0.278 N 
HETATM   10  C   UNL     1     -12.292   4.636 -30.248  1.00  0.00     0.320 C 
HETATM   11  H   UNL     1     -11.504   2.869 -30.646  1.00  0.00     0.173 HD
HETATM   12  N   UNL     1     -12.033   5.914 -29.905  1.00  0.00    -0.352 N 
HETATM   13  O   UNL     1     -13.437   4.203 -30.287  1.00  0.00    -0.247 OA
HETATM   14  H   UNL     1     -11.125   6.311 -30.114  1.00  0.00     0.160 HD
HETATM   15  H   UNL     1     -12.826   6.532 -29.803  1.00  0.00     0.160 HD
HETATM   16  O   UNL     1      -9.413   5.272 -30.331  1.00  0.00    -0.271 OA
ENDBRANCH   7   8
BRANCH   7  17
HETATM   17  C   UNL     1      -9.100   2.109 -31.753  1.00  0.00    -0.035 A 
HETATM   18  C   UNL     1      -9.263   0.714 -31.796  1.00  0.00     0.009 A 
HETATM   19  C   UNL     1      -9.384   0.043 -33.016  1.00  0.00     0.001 A 
HETATM   20  C   UNL     1      -9.332   0.749 -34.213  1.00  0.00     0.000 A 
HETATM   21  C   UNL     1      -9.161   2.129 -34.196  1.00  0.00     0.001 A 
HETATM   22  C   UNL     1      -9.048   2.803 -32.979  1.00  0.00     0.009 A 
ENDBRANCH   7  17
ENDBRANCH   6   7
ENDBRANCH   3   6
BRANCH   2  23
HETATM   23  C   UNL     1      -4.988   3.003 -32.514  1.00  0.00     0.043 A 
HETATM   24  C   UNL     1      -3.790   3.691 -32.266  1.00  0.00     0.033 A 
HETATM   25  C   UNL     1      -3.378   4.698 -33.141  1.00  0.00     0.044 A 
HETATM   26  C   UNL     1      -4.154   5.007 -34.251  1.00  0.00     0.116 A 
HETATM   27  F   UNL     1      -3.754   5.975 -35.083  1.00  0.00    -0.206 F 
HETATM   28  C   UNL     1      -5.334   4.321 -34.512  1.00  0.00     0.044 A 
HETATM   29  C   UNL     1      -5.757   3.310 -33.645  1.00  0.00     0.033 A 
ENDBRANCH   2  23
BRANCH   1  30
HETATM   30  C   UNL     1      -3.840   0.080 -32.407  1.00  0.00     0.255 C 
HETATM   31  C   UNL     1      -2.941  -0.701 -31.439  1.00  0.00     0.049 C 
BRANCH  30  32
HETATM   32  N   UNL     1      -4.360  -0.853 -33.527  1.00  0.00    -0.060 N 
HETATM   33  H   UNL     1      -3.791  -0.607 -34.354  1.00  0.00     0.280 HD
HETATM   34  C   UNL     1      -4.047  -2.309 -33.215  1.00  0.00     0.236 C 
HETATM   35  C   UNL     1      -4.452  -3.198 -34.382  1.00  0.00     0.028 C 
HETATM   36  C   UNL     1      -5.924  -3.027 -34.727  1.00  0.00     0.003 C 
HETATM   37  C   UNL     1      -6.234  -1.566 -35.014  1.00  0.00     0.028 C 
HETATM   38  C   UNL     1      -5.820  -0.657 -33.866  1.00  0.00     0.236 C 
ENDBRANCH  30  32
ENDBRANCH   1  30
TORSDOF 7
ENDMDL
MODEL 5
REMARK VINA RESULT:      -8.7      3.369      6.632
REMARK  7 active torsions:
REMARK  status: ('A' for Active; 'I' for Inactive)
REMARK    1  A    between atoms: C_2  and  N_3 
REMARK    2  A    between atoms: C_2  and  C_10 
REMARK    3  A    between atoms: N_11  and  C_12 
REMARK    4  A    between atoms: C_19  and  S_20 
REMARK    5  A    between atoms: S_20  and  C_21 
REMARK    6  A    between atoms: C_21  and  C_22 
REMARK    7  A    between atoms: C_21  and  C_28 
REMARK       I    between atoms: C_22  and  N_23 
REMARK       I    between atoms: N_23  and  C_24 
REMARK       I    between atoms: C_24  and  N_25 
ROOT
HETATM    1  C   UNL     1     -10.679   1.506 -32.972  1.00  0.00     0.166 A 
HETATM    2  N   UNL     1      -9.571   1.905 -32.234  1.00  0.00    -0.274 N 
HETATM    3  C   UNL     1      -8.843   0.739 -32.073  1.00  0.00     0.197 A 
HETATM    4  N   UNL     1      -9.489  -0.272 -32.608  1.00  0.00    -0.122 NA
HETATM    5  N   UNL     1     -10.642   0.203 -33.165  1.00  0.00    -0.131 NA
ENDROOT
BRANCH   3   6
HETATM    6  S   UNL     1      -7.372   0.556 -31.178  1.00  0.00    -0.070 SA
BRANCH   6   7
HETATM    7  C   UNL     1      -6.093   0.780 -32.468  1.00  0.00     0.180 C 
BRANCH   7   8
HETATM    8  C   UNL     1      -4.874   1.502 -31.873  1.00  0.00     0.244 C 
HETATM    9  N   UNL     1      -4.234   2.384 -32.730  1.00  0.00    -0.278 N 
HETATM   10  C   UNL     1      -3.290   3.323 -32.437  1.00  0.00     0.320 C 
HETATM   11  H   UNL     1      -4.577   2.484 -33.677  1.00  0.00     0.173 HD
HETATM   12  N   UNL     1      -2.852   3.379 -31.163  1.00  0.00    -0.352 N 
HETATM   13  O   UNL     1      -2.890   4.110 -33.286  1.00  0.00    -0.247 OA
HETATM   14  H   UNL     1      -3.002   2.587 -30.550  1.00  0.00     0.160 HD
HETATM   15  H   UNL     1      -2.091   4.015 -30.965  1.00  0.00     0.160 HD
HETATM   16  O   UNL     1      -4.467   1.218 -30.740  1.00  0.00    -0.271 OA
ENDBRANCH   7   8
BRANCH   7  17
HETATM   17  C   UNL     1      -5.716  -0.480 -33.243  1.00  0.00    -0.035 A 
HETATM   18  C   UNL     1      -6.470  -1.008 -34.304  1.00  0.00     0.009 A 
HETATM   19  C   UNL     1      -6.076  -2.185 -34.947  1.00  0.00     0.001 A 
HETATM   20  C   UNL     1      -4.933  -2.862 -34.535  1.00  0.00     0.000 A 
HETATM   21  C   UNL     1      -4.177  -2.363 -33.480  1.00  0.00     0.001 A 
HETATM   22  C   UNL     1      -4.563  -1.184 -32.841  1.00  0.00     0.009 A 
ENDBRANCH   7  17
ENDBRANCH   6   7
ENDBRANCH   3   6
BRANCH   2  23
HETATM   23  C   UNL     1      -9.276   3.212 -31.779  1.00  0.00     0.043 A 
HETATM   24  C   UNL     1      -8.406   4.023 -32.525  1.00  0.00     0.033 A 
HETATM   25  C   UNL     1      -8.114   5.314 -32.081  1.00  0.00     0.044 A 
HETATM   26  C   UNL     1      -8.691   5.786 -30.908  1.00  0.00     0.116 A 
HETATM   27  F   UNL     1      -8.404   7.024 -30.487  1.00  0.00    -0.206 F 
HETATM   28  C   UNL     1      -9.565   4.995 -30.171  1.00  0.00     0.044 A 
HETATM   29  C   UNL     1      -9.866   3.702 -30.606  1.00  0.00     0.033 A 
ENDBRANCH   2  23
BRANCH   1  30
HETATM   30  C   UNL     1     -11.684   2.404 -33.629  1.00  0.00     0.255 C 
HETATM   31  C   UNL     1     -12.081   1.773 -34.971  1.00  0.00     0.049 C 
BRANCH  30  32
HETATM   32  N   UNL     1     -12.932   2.585 -32.732  1.00  0.00    -0.060 N 
HETATM   33  H   UNL     1     -12.660   2.174 -31.824  1.00  0.00     0.280 HD
HETATM   34  C   UNL     1     -13.206   4.057 -32.465  1.00  0.00     0.236 C 
HETATM   35  C   UNL     1     -14.357   4.211 -31.483  1.00  0.00     0.028 C 
HETATM   36  C   UNL     1     -15.613   3.514 -31.983  1.00  0.00     0.003 C 
HETATM   37  C   UNL     1     -15.326   2.048 -32.269  1.00  0.00     0.028 C 
HETATM   38  C   UNL     1     -14.165   1.872 -33.238  1.00  0.00     0.236 C 
ENDBRANCH  30  32
ENDBRANCH   1  30
TORSDOF 7
ENDMDL
MODEL 6
REMARK VINA RESULT:      -8.7      3.929      6.104
REMARK  7 active torsions:
REMARK  status: ('A' for Active; 'I' for Inactive)
REMARK    1  A    between atoms: C_2  and  N_3 
REMARK    2  A    between atoms: C_2  and  C_10 
REMARK    3  A    between atoms: N_11  and  C_12 
REMARK    4  A    between atoms: C_19  and  S_20 
REMARK    5  A    between atoms: S_20  and  C_21 
REMARK    6  A    between atoms: C_21  and  C_22 
REMARK    7  A    between atoms: C_21  and  C_28 
REMARK       I    between atoms: C_22  and  N_23 
REMARK       I    between atoms: N_23  and  C_24 
REMARK       I    between atoms: C_24  and  N_25 
ROOT
HETATM    1  C   UNL     1      -8.324   3.559 -33.292  1.00  0.00     0.166 A 
HETATM    2  N   UNL     1      -8.619   2.311 -33.828  1.00  0.00    -0.274 N 
HETATM    3  C   UNL     1      -7.401   1.860 -34.305  1.00  0.00     0.197 A 
HETATM    4  N   UNL     1      -6.480   2.781 -34.129  1.00  0.00    -0.122 NA
HETATM    5  N   UNL     1      -7.057   3.848 -33.502  1.00  0.00    -0.131 NA
ENDROOT
BRANCH   3   6
HETATM    6  S   UNL     1      -7.109   0.378 -35.152  1.00  0.00    -0.070 SA
BRANCH   6   7
HETATM    7  C   UNL     1      -5.893  -0.462 -34.073  1.00  0.00     0.180 C 
BRANCH   7   8
HETATM    8  C   UNL     1      -6.168  -0.108 -32.603  1.00  0.00     0.244 C 
HETATM    9  N   UNL     1      -5.300   0.818 -32.046  1.00  0.00    -0.278 N 
HETATM   10  C   UNL     1      -5.416   1.496 -30.868  1.00  0.00     0.320 C 
HETATM   11  H   UNL     1      -4.541   1.181 -32.611  1.00  0.00     0.173 HD
HETATM   12  N   UNL     1      -6.473   1.195 -30.088  1.00  0.00    -0.352 N 
HETATM   13  O   UNL     1      -4.616   2.369 -30.555  1.00  0.00    -0.247 OA
HETATM   14  H   UNL     1      -6.970   0.325 -30.236  1.00  0.00     0.160 HD
HETATM   15  H   UNL     1      -6.512   1.632 -29.177  1.00  0.00     0.160 HD
HETATM   16  O   UNL     1      -7.051  -0.698 -31.969  1.00  0.00    -0.271 OA
ENDBRANCH   7   8
BRANCH   7  17
HETATM   17  C   UNL     1      -5.741  -1.963 -34.301  1.00  0.00    -0.035 A 
HETATM   18  C   UNL     1      -6.782  -2.805 -34.726  1.00  0.00     0.009 A 
HETATM   19  C   UNL     1      -6.575  -4.178 -34.885  1.00  0.00     0.001 A 
HETATM   20  C   UNL     1      -5.331  -4.737 -34.611  1.00  0.00     0.000 A 
HETATM   21  C   UNL     1      -4.289  -3.925 -34.180  1.00  0.00     0.001 A 
HETATM   22  C   UNL     1      -4.490  -2.552 -34.027  1.00  0.00     0.009 A 
ENDBRANCH   7  17
ENDBRANCH   6   7
ENDBRANCH   3   6
BRANCH   2  23
HETATM   23  C   UNL     1      -9.880   1.670 -33.853  1.00  0.00     0.043 A 
HETATM   24  C   UNL     1     -10.891   2.167 -34.691  1.00  0.00     0.033 A 
HETATM   25  C   UNL     1     -12.137   1.537 -34.720  1.00  0.00     0.044 A 
HETATM   26  C   UNL     1     -12.363   0.421 -33.923  1.00  0.00     0.116 A 
HETATM   27  F   UNL     1     -13.560  -0.177 -33.954  1.00  0.00    -0.206 F 
HETATM   28  C   UNL     1     -11.362  -0.086 -33.102  1.00  0.00     0.044 A 
HETATM   29  C   UNL     1     -10.112   0.535 -33.065  1.00  0.00     0.033 A 
ENDBRANCH   2  23
BRANCH   1  30
HETATM   30  C   UNL     1      -9.226   4.397 -32.436  1.00  0.00     0.255 C 
HETATM   31  C   UNL     1      -8.352   5.389 -31.655  1.00  0.00     0.049 C 
BRANCH  30  32
HETATM   32  N   UNL     1     -10.259   5.158 -33.301  1.00  0.00    -0.060 N 
HETATM   33  H   UNL     1     -10.944   4.437 -33.580  1.00  0.00     0.280 HD
HETATM   34  C   UNL     1     -11.027   6.174 -32.470  1.00  0.00     0.236 C 
HETATM   35  C   UNL     1     -12.121   6.822 -33.306  1.00  0.00     0.028 C 
HETATM   36  C   UNL     1     -11.553   7.473 -34.557  1.00  0.00     0.003 C 
HETATM   37  C   UNL     1     -10.767   6.457 -35.372  1.00  0.00     0.028 C 
HETATM   38  C   UNL     1      -9.678   5.784 -34.549  1.00  0.00     0.236 C 
ENDBRANCH  30  32
ENDBRANCH   1  30
TORSDOF 7
ENDMDL
MODEL 7
REMARK VINA RESULT:      -8.6      2.882      6.661
REMARK  7 active torsions:
REMARK  status: ('A' for Active; 'I' for Inactive)
REMARK    1  A    between atoms: C_2  and  N_3 
REMARK    2  A    between atoms: C_2  and  C_10 
REMARK    3  A    between atoms: N_11  and  C_12 
REMARK    4  A    between atoms: C_19  and  S_20 
REMARK    5  A    between atoms: S_20  and  C_21 
REMARK    6  A    between atoms: C_21  and  C_22 
REMARK    7  A    between atoms: C_21  and  C_28 
REMARK       I    between atoms: C_22  and  N_23 
REMARK       I    between atoms: N_23  and  C_24 
REMARK       I    between atoms: C_24  and  N_25 
ROOT
HETATM    1  C   UNL     1      -4.652   0.889 -31.615  1.00  0.00     0.166 A 
HETATM    2  N   UNL     1      -4.847   2.265 -31.571  1.00  0.00    -0.274 N 
HETATM    3  C   UNL     1      -5.565   2.460 -30.404  1.00  0.00     0.197 A 
HETATM    4  N   UNL     1      -5.830   1.304 -29.840  1.00  0.00    -0.122 NA
HETATM    5  N   UNL     1      -5.266   0.318 -30.599  1.00  0.00    -0.131 NA
ENDROOT
BRANCH   3   6
HETATM    6  S   UNL     1      -6.179   3.966 -29.811  1.00  0.00    -0.070 SA
BRANCH   6   7
HETATM    7  C   UNL     1      -7.987   3.760 -30.004  1.00  0.00     0.180 C 
BRANCH   7   8
HETATM    8  C   UNL     1      -8.706   5.056 -29.594  1.00  0.00     0.244 C 
HETATM    9  N   UNL     1      -8.053   5.815 -28.636  1.00  0.00    -0.278 N 
HETATM   10  C   UNL     1      -8.308   7.095 -28.242  1.00  0.00     0.320 C 
HETATM   11  H   UNL     1      -7.179   5.475 -28.252  1.00  0.00     0.173 HD
HETATM   12  N   UNL     1      -9.375   7.707 -28.795  1.00  0.00    -0.352 N 
HETATM   13  O   UNL     1      -7.574   7.678 -27.454  1.00  0.00    -0.247 OA
HETATM   14  H   UNL     1     -10.094   7.149 -29.240  1.00  0.00     0.160 HD
HETATM   15  H   UNL     1      -9.616   8.622 -28.439  1.00  0.00     0.160 HD
HETATM   16  O   UNL     1      -9.829   5.319 -30.039  1.00  0.00    -0.271 OA
ENDBRANCH   7   8
BRANCH   7  17
HETATM   17  C   UNL     1      -8.445   3.234 -31.362  1.00  0.00    -0.035 A 
HETATM   18  C   UNL     1      -8.420   3.987 -32.548  1.00  0.00     0.009 A 
HETATM   19  C   UNL     1      -8.884   3.447 -33.751  1.00  0.00     0.001 A 
HETATM   20  C   UNL     1      -9.394   2.153 -33.788  1.00  0.00     0.000 A 
HETATM   21  C   UNL     1      -9.438   1.393 -32.625  1.00  0.00     0.001 A 
HETATM   22  C   UNL     1      -8.968   1.927 -31.424  1.00  0.00     0.009 A 
ENDBRANCH   7  17
ENDBRANCH   6   7
ENDBRANCH   3   6
BRANCH   2  23
HETATM   23  C   UNL     1      -4.392   3.220 -32.510  1.00  0.00     0.043 A 
HETATM   24  C   UNL     1      -3.066   3.677 -32.444  1.00  0.00     0.033 A 
HETATM   25  C   UNL     1      -2.612   4.618 -33.370  1.00  0.00     0.044 A 
HETATM   26  C   UNL     1      -3.475   5.090 -34.352  1.00  0.00     0.116 A 
HETATM   27  F   UNL     1      -3.034   5.994 -35.234  1.00  0.00    -0.206 F 
HETATM   28  C   UNL     1      -4.785   4.632 -34.434  1.00  0.00     0.044 A 
HETATM   29  C   UNL     1      -5.250   3.690 -33.514  1.00  0.00     0.033 A 
ENDBRANCH   2  23
BRANCH   1  30
HETATM   30  C   UNL     1      -3.738   0.147 -32.543  1.00  0.00     0.255 C 
HETATM   31  C   UNL     1      -2.921  -0.850 -31.709  1.00  0.00     0.049 C 
BRANCH  30  32
HETATM   32  N   UNL     1      -4.544  -0.599 -33.633  1.00  0.00    -0.060 N 
HETATM   33  H   UNL     1      -4.033  -0.407 -34.510  1.00  0.00     0.280 HD
HETATM   34  C   UNL     1      -4.481  -2.105 -33.426  1.00  0.00     0.236 C 
HETATM   35  C   UNL     1      -5.173  -2.825 -34.573  1.00  0.00     0.028 C 
HETATM   36  C   UNL     1      -6.614  -2.365 -34.732  1.00  0.00     0.003 C 
HETATM   37  C   UNL     1      -6.671  -0.856 -34.915  1.00  0.00     0.028 C 
HETATM   38  C   UNL     1      -5.969  -0.117 -33.785  1.00  0.00     0.236 C 
ENDBRANCH  30  32
ENDBRANCH   1  30
TORSDOF 7
ENDMDL
MODEL 8
REMARK VINA RESULT:      -8.6      3.183      7.561
REMARK  7 active torsions:
REMARK  status: ('A' for Active; 'I' for Inactive)
REMARK    1  A    between atoms: C_2  and  N_3 
REMARK    2  A    between atoms: C_2  and  C_10 
REMARK    3  A    between atoms: N_11  and  C_12 
REMARK    4  A    between atoms: C_19  and  S_20 
REMARK    5  A    between atoms: S_20  and  C_21 
REMARK    6  A    between atoms: C_21  and  C_22 
REMARK    7  A    between atoms: C_21  and  C_28 
REMARK       I    between atoms: C_22  and  N_23 
REMARK       I    between atoms: N_23  and  C_24 
REMARK       I    between atoms: C_24  and  N_25 
ROOT
HETATM    1  C   UNL     1      -8.899   3.431 -32.650  1.00  0.00     0.166 A 
HETATM    2  N   UNL     1      -7.650   3.070 -33.142  1.00  0.00    -0.274 N 
HETATM    3  C   UNL     1      -7.074   4.277 -33.497  1.00  0.00     0.197 A 
HETATM    4  N   UNL     1      -7.924   5.259 -33.297  1.00  0.00    -0.122 NA
HETATM    5  N   UNL     1      -9.070   4.731 -32.774  1.00  0.00    -0.131 NA
ENDROOT
BRANCH   3   6
HETATM    6  S   UNL     1      -5.526   4.502 -34.241  1.00  0.00    -0.070 SA
BRANCH   6   7
HETATM    7  C   UNL     1      -4.610   5.448 -32.970  1.00  0.00     0.180 C 
BRANCH   7   8
HETATM    8  C   UNL     1      -4.679   4.712 -31.622  1.00  0.00     0.244 C 
HETATM    9  N   UNL     1      -5.756   5.054 -30.818  1.00  0.00    -0.278 N 
HETATM   10  C   UNL     1      -6.215   4.428 -29.697  1.00  0.00     0.320 C 
HETATM   11  H   UNL     1      -6.403   5.763 -31.140  1.00  0.00     0.173 HD
HETATM   12  N   UNL     1      -5.507   3.372 -29.248  1.00  0.00    -0.352 N 
HETATM   13  O   UNL     1      -7.250   4.785 -29.147  1.00  0.00    -0.247 OA
HETATM   14  H   UNL     1      -4.550   3.248 -29.555  1.00  0.00     0.160 HD
HETATM   15  H   UNL     1      -5.797   2.964 -28.370  1.00  0.00     0.160 HD
HETATM   16  O   UNL     1      -3.771   3.949 -31.275  1.00  0.00    -0.271 OA
ENDBRANCH   7   8
BRANCH   7  17
HETATM   17  C   UNL     1      -3.188   5.851 -33.351  1.00  0.00    -0.035 A 
HETATM   18  C   UNL     1      -2.489   6.920 -32.766  1.00  0.00     0.009 A 
HETATM   19  C   UNL     1      -1.197   7.249 -33.189  1.00  0.00     0.001 A 
HETATM   20  C   UNL     1      -0.588   6.527 -34.210  1.00  0.00     0.000 A 
HETATM   21  C   UNL     1      -1.265   5.472 -34.810  1.00  0.00     0.001 A 
HETATM   22  C   UNL     1      -2.551   5.135 -34.385  1.00  0.00     0.009 A 
ENDBRANCH   7  17
ENDBRANCH   6   7
ENDBRANCH   3   6
BRANCH   2  23
HETATM   23  C   UNL     1      -7.115   1.764 -33.233  1.00  0.00     0.043 A 
HETATM   24  C   UNL     1      -6.517   1.183 -32.103  1.00  0.00     0.033 A 
HETATM   25  C   UNL     1      -5.990  -0.108 -32.188  1.00  0.00     0.044 A 
HETATM   26  C   UNL     1      -6.065  -0.805 -33.387  1.00  0.00     0.116 A 
HETATM   27  F   UNL     1      -5.555  -2.040 -33.461  1.00  0.00    -0.206 F 
HETATM   28  C   UNL     1      -6.668  -0.243 -34.506  1.00  0.00     0.044 A 
HETATM   29  C   UNL     1      -7.201   1.046 -34.433  1.00  0.00     0.033 A 
ENDBRANCH   2  23
BRANCH   1  30
HETATM   30  C   UNL     1      -9.857   2.544 -31.912  1.00  0.00     0.255 C 
HETATM   31  C   UNL     1     -10.270   3.263 -30.620  1.00  0.00     0.049 C 
BRANCH  30  32
HETATM   32  N   UNL     1     -11.103   2.237 -32.776  1.00  0.00    -0.060 N 
HETATM   33  H   UNL     1     -11.518   1.396 -32.343  1.00  0.00     0.280 HD
HETATM   34  C   UNL     1     -12.144   3.338 -32.648  1.00  0.00     0.236 C 
HETATM   35  C   UNL     1     -13.409   2.960 -33.403  1.00  0.00     0.028 C 
HETATM   36  C   UNL     1     -13.117   2.667 -34.866  1.00  0.00     0.003 C 
HETATM   37  C   UNL     1     -12.059   1.581 -34.987  1.00  0.00     0.028 C 
HETATM   38  C   UNL     1     -10.790   1.932 -34.224  1.00  0.00     0.236 C 
ENDBRANCH  30  32
ENDBRANCH   1  30
TORSDOF 7
ENDMDL
MODEL 9
REMARK VINA RESULT:      -8.6      3.538      7.700
REMARK  7 active torsions:
REMARK  status: ('A' for Active; 'I' for Inactive)
REMARK    1  A    between atoms: C_2  and  N_3 
REMARK    2  A    between atoms: C_2  and  C_10 
REMARK    3  A    between atoms: N_11  and  C_12 
REMARK    4  A    between atoms: C_19  and  S_20 
REMARK    5  A    between atoms: S_20  and  C_21 
REMARK    6  A    between atoms: C_21  and  C_22 
REMARK    7  A    between atoms: C_21  and  C_28 
REMARK       I    between atoms: C_22  and  N_23 
REMARK       I    between atoms: N_23  and  C_24 
REMARK       I    between atoms: C_24  and  N_25 
ROOT
HETATM    1  C   UNL     1      -9.016   3.544 -32.848  1.00  0.00     0.166 A 
HETATM    2  N   UNL     1      -7.846   2.968 -33.332  1.00  0.00    -0.274 N 
HETATM    3  C   UNL     1      -7.007   4.049 -33.539  1.00  0.00     0.197 A 
HETATM    4  N   UNL     1      -7.639   5.168 -33.268  1.00  0.00    -0.122 NA
HETATM    5  N   UNL     1      -8.898   4.856 -32.841  1.00  0.00    -0.131 NA
ENDROOT
BRANCH   3   6
HETATM    6  S   UNL     1      -5.408   4.000 -34.202  1.00  0.00    -0.070 SA
BRANCH   6   7
HETATM    7  C   UNL     1      -4.366   4.403 -32.752  1.00  0.00     0.180 C 
BRANCH   7   8
HETATM    8  C   UNL     1      -4.044   3.120 -31.969  1.00  0.00     0.244 C 
HETATM    9  N   UNL     1      -4.024   1.958 -32.725  1.00  0.00    -0.278 N 
HETATM   10  C   UNL     1      -3.556   0.724 -32.380  1.00  0.00     0.320 C 
HETATM   11  H   UNL     1      -4.240   2.010 -33.713  1.00  0.00     0.173 HD
HETATM   12  N   UNL     1      -3.106   0.568 -31.118  1.00  0.00    -0.352 N 
HETATM   13  O   UNL     1      -3.506  -0.189 -33.195  1.00  0.00    -0.247 OA
HETATM   14  H   UNL     1      -3.376   1.237 -30.407  1.00  0.00     0.160 HD
HETATM   15  H   UNL     1      -2.841  -0.366 -30.837  1.00  0.00     0.160 HD
HETATM   16  O   UNL     1      -3.911   3.150 -30.740  1.00  0.00    -0.271 OA
ENDBRANCH   7   8
BRANCH   7  17
HETATM   17  C   UNL     1      -3.127   5.243 -33.048  1.00  0.00    -0.035 A 
HETATM   18  C   UNL     1      -2.702   6.326 -32.261  1.00  0.00     0.009 A 
HETATM   19  C   UNL     1      -1.571   7.068 -32.612  1.00  0.00     0.001 A 
HETATM   20  C   UNL     1      -0.853   6.751 -33.761  1.00  0.00     0.000 A 
HETATM   21  C   UNL     1      -1.261   5.690 -34.561  1.00  0.00     0.001 A 
HETATM   22  C   UNL     1      -2.385   4.942 -34.209  1.00  0.00     0.009 A 
ENDBRANCH   7  17
ENDBRANCH   6   7
ENDBRANCH   3   6
BRANCH   2  23
HETATM   23  C   UNL     1      -7.598   1.591 -33.540  1.00  0.00     0.043 A 
HETATM   24  C   UNL     1      -7.235   0.783 -32.450  1.00  0.00     0.033 A 
HETATM   25  C   UNL     1      -6.991  -0.578 -32.650  1.00  0.00     0.044 A 
HETATM   26  C   UNL     1      -7.114  -1.119 -33.924  1.00  0.00     0.116 A 
HETATM   27  F   UNL     1      -6.876  -2.423 -34.108  1.00  0.00    -0.206 F 
HETATM   28  C   UNL     1      -7.487  -0.329 -35.005  1.00  0.00     0.044 A 
HETATM   29  C   UNL     1      -7.735   1.032 -34.817  1.00  0.00     0.033 A 
ENDBRANCH   2  23
BRANCH   1  30
HETATM   30  C   UNL     1     -10.180   2.821 -32.239  1.00  0.00     0.255 C 
HETATM   31  C   UNL     1     -10.639   3.613 -31.006  1.00  0.00     0.049 C 
BRANCH  30  32
HETATM   32  N   UNL     1     -11.340   2.691 -33.255  1.00  0.00    -0.060 N 
HETATM   33  H   UNL     1     -11.088   3.338 -34.020  1.00  0.00     0.280 HD
HETATM   34  C   UNL     1     -11.376   1.300 -33.870  1.00  0.00     0.236 C 
HETATM   35  C   UNL     1     -12.440   1.228 -34.954  1.00  0.00     0.028 C 
HETATM   36  C   UNL     1     -13.810   1.611 -34.415  1.00  0.00     0.003 C 
HETATM   37  C   UNL     1     -13.762   2.993 -33.782  1.00  0.00     0.028 C 
HETATM   38  C   UNL     1     -12.691   3.091 -32.705  1.00  0.00     0.236 C 
ENDBRANCH  30  32
ENDBRANCH   1  30
TORSDOF 7
ENDMDL
MODEL 10
REMARK VINA RESULT:      -8.4      3.120      4.499
REMARK  7 active torsions:
REMARK  status: ('A' for Active; 'I' for Inactive)
REMARK    1  A    between atoms: C_2  and  N_3 
REMARK    2  A    between atoms: C_2  and  C_10 
REMARK    3  A    between atoms: N_11  and  C_12 
REMARK    4  A    between atoms: C_19  and  S_20 
REMARK    5  A    between atoms: S_20  and  C_21 
REMARK    6  A    between atoms: C_21  and  C_22 
REMARK    7  A    between atoms: C_21  and  C_28 
REMARK       I    between atoms: C_22  and  N_23 
REMARK       I    between atoms: N_23  and  C_24 
REMARK       I    between atoms: C_24  and  N_25 
ROOT
HETATM    1  C   UNL     1      -5.370   4.393 -32.717  1.00  0.00     0.166 A 
HETATM    2  N   UNL     1      -5.884   3.251 -32.112  1.00  0.00    -0.274 N 
HETATM    3  C   UNL     1      -7.181   3.606 -31.785  1.00  0.00     0.197 A 
HETATM    4  N   UNL     1      -7.399   4.862 -32.105  1.00  0.00    -0.122 NA
HETATM    5  N   UNL     1      -6.265   5.359 -32.682  1.00  0.00    -0.131 NA
ENDROOT
BRANCH   3   6
HETATM    6  S   UNL     1      -8.336   2.630 -30.940  1.00  0.00    -0.070 SA
BRANCH   6   7
HETATM    7  C   UNL     1      -9.209   1.780 -32.306  1.00  0.00     0.180 C 
BRANCH   7   8
HETATM    8  C   UNL     1     -10.124   2.775 -33.038  1.00  0.00     0.244 C 
HETATM    9  N   UNL     1      -9.471   3.818 -33.676  1.00  0.00    -0.278 N 
HETATM   10  C   UNL     1      -9.968   4.709 -34.581  1.00  0.00     0.320 C 
HETATM   11  H   UNL     1      -8.463   3.880 -33.608  1.00  0.00     0.173 HD
HETATM   12  N   UNL     1     -11.285   4.632 -34.861  1.00  0.00    -0.352 N 
HETATM   13  O   UNL     1      -9.240   5.516 -35.146  1.00  0.00    -0.247 OA
HETATM   14  H   UNL     1     -11.902   4.143 -34.223  1.00  0.00     0.160 HD
HETATM   15  H   UNL     1     -11.670   5.346 -35.463  1.00  0.00     0.160 HD
HETATM   16  O   UNL     1     -11.354   2.672 -32.960  1.00  0.00    -0.271 OA
ENDBRANCH   7   8
BRANCH   7  17
HETATM   17  C   UNL     1      -8.321   0.984 -33.257  1.00  0.00    -0.035 A 
HETATM   18  C   UNL     1      -7.948   1.421 -34.539  1.00  0.00     0.009 A 
HETATM   19  C   UNL     1      -7.154   0.622 -35.367  1.00  0.00     0.001 A 
HETATM   20  C   UNL     1      -6.731  -0.631 -34.936  1.00  0.00     0.000 A 
HETATM   21  C   UNL     1      -7.096  -1.089 -33.676  1.00  0.00     0.001 A 
HETATM   22  C   UNL     1      -7.882  -0.290 -32.843  1.00  0.00     0.009 A 
ENDBRANCH   7  17
ENDBRANCH   6   7
ENDBRANCH   3   6
BRANCH   2  23
HETATM   23  C   UNL     1      -5.216   2.022 -31.906  1.00  0.00     0.043 A 
HETATM   24  C   UNL     1      -5.324   1.376 -30.664  1.00  0.00     0.033 A 
HETATM   25  C   UNL     1      -4.667   0.161 -30.457  1.00  0.00     0.044 A 
HETATM   26  C   UNL     1      -3.917  -0.400 -31.483  1.00  0.00     0.116 A 
HETATM   27  F   UNL     1      -3.289  -1.563 -31.276  1.00  0.00    -0.206 F 
HETATM   28  C   UNL     1      -3.817   0.225 -32.720  1.00  0.00     0.044 A 
HETATM   29  C   UNL     1      -4.470   1.440 -32.940  1.00  0.00     0.033 A 
ENDBRANCH   2  23
BRANCH   1  30
HETATM   30  C   UNL     1      -4.079   4.497 -33.474  1.00  0.00     0.255 C 
HETATM   31  C   UNL     1      -4.400   4.974 -34.897  1.00  0.00     0.049 C 
BRANCH  30  32
HETATM   32  N   UNL     1      -3.113   5.487 -32.781  1.00  0.00    -0.060 N 
HETATM   33  H   UNL     1      -3.689   5.950 -32.059  1.00  0.00     0.280 HD
HETATM   34  C   UNL     1      -2.013   4.747 -32.035  1.00  0.00     0.236 C 
HETATM   35  C   UNL     1      -1.148   5.728 -31.259  1.00  0.00     0.028 C 
HETATM   36  C   UNL     1      -0.556   6.790 -32.172  1.00  0.00     0.003 C 
HETATM   37  C   UNL     1      -1.659   7.511 -32.932  1.00  0.00     0.028 C 
HETATM   38  C   UNL     1      -2.547   6.544 -33.702  1.00  0.00     0.236 C 
ENDBRANCH  30  32
ENDBRANCH   1  30
TORSDOF 7
ENDMDL
