MODEL 1
REMARK VINA RESULT:      -9.1      0.000      0.000
REMARK  5 active torsions:
REMARK  status: ('A' for Active; 'I' for Inactive)
REMARK    1  A    between atoms: O_2  and  C_3 
REMARK    2  A    between atoms: C_4  and  N_5 
REMARK    3  A    between atoms: N_5  and  C_6 
REMARK    4  A    between atoms: C_6  and  C_7 
REMARK       I    between atoms: C_7  and  N_8 
REMARK    5  A    between atoms: N_8  and  C_9 
ROOT
HETATM    1  C   UNL     1      -4.543   1.406 -31.365  1.00  0.00     0.235 C 
HETATM    2  N   UNL     1      -4.558   1.084 -32.713  1.00  0.00    -0.326 N 
HETATM    3  O   UNL     1      -4.788   0.645 -30.432  1.00  0.00    -0.272 OA
HETATM    4  H   UNL     1      -4.133   1.758 -33.337  1.00  0.00     0.169 HD
ENDROOT
BRANCH   1   5
HETATM    5  C   UNL     1      -4.178   2.873 -31.102  1.00  0.00     0.195 C 
BRANCH   5   6
HETATM    6  N   UNL     1      -2.764   3.134 -31.361  1.00  0.00    -0.282 NA
HETATM    7  H   UNL     1      -2.247   2.264 -31.522  1.00  0.00     0.128 HD
BRANCH   6   8
HETATM    8  C   UNL     1      -2.330   4.110 -32.263  1.00  0.00     0.042 A 
HETATM    9  C   UNL     1      -1.280   4.975 -31.886  1.00  0.00     0.089 A 
HETATM   10  C   UNL     1      -0.812   5.984 -32.730  1.00  0.00     0.038 A 
HETATM   11  C   UNL     1      -1.440   6.204 -33.949  1.00  0.00     0.003 A 
HETATM   12  C   UNL     1      -2.530   5.417 -34.314  1.00  0.00     0.002 A 
HETATM   13  C   UNL     1      -2.977   4.389 -33.471  1.00  0.00     0.026 A 
BRANCH   9  14
HETATM   14  O   UNL     1      -0.637   4.815 -30.681  1.00  0.00    -0.354 OA
HETATM   15  C   UNL     1       0.734   5.209 -30.793  1.00  0.00     0.210 C 
ENDBRANCH   9  14
ENDBRANCH   6   8
ENDBRANCH   5   6
ENDBRANCH   1   5
BRANCH   2  16
HETATM   16  C   UNL     1      -5.037  -0.103 -33.307  1.00  0.00     0.035 A 
HETATM   17  C   UNL     1      -4.324  -1.304 -33.334  1.00  0.00     0.042 A 
HETATM   18  C   UNL     1      -4.877  -2.470 -33.896  1.00  0.00    -0.024 A 
HETATM   19  C   UNL     1      -6.178  -2.428 -34.442  1.00  0.00    -0.026 A 
HETATM   20  C   UNL     1      -4.163  -3.680 -33.921  1.00  0.00     0.012 A 
HETATM   21  C   UNL     1      -6.887  -1.219 -34.421  1.00  0.00     0.014 A 
HETATM   22  C   UNL     1      -6.733  -3.596 -34.992  1.00  0.00     0.012 A 
HETATM   23  C   UNL     1      -6.321  -0.070 -33.859  1.00  0.00     0.030 A 
HETATM   24  C   UNL     1      -6.011  -4.791 -35.005  1.00  0.00     0.001 A 
HETATM   25  C   UNL     1      -4.727  -4.832 -34.471  1.00  0.00     0.001 A 
ENDBRANCH   2  16
TORSDOF 5
ENDMDL
MODEL 2
REMARK VINA RESULT:      -8.7      0.945      1.793
REMARK  5 active torsions:
REMARK  status: ('A' for Active; 'I' for Inactive)
REMARK    1  A    between atoms: O_2  and  C_3 
REMARK    2  A    between atoms: C_4  and  N_5 
REMARK    3  A    between atoms: N_5  and  C_6 
REMARK    4  A    between atoms: C_6  and  C_7 
REMARK       I    between atoms: C_7  and  N_8 
REMARK    5  A    between atoms: N_8  and  C_9 
ROOT
HETATM    1  C   UNL     1      -4.309   1.675 -31.218  1.00  0.00     0.235 C 
HETATM    2  N   UNL     1      -3.601   0.944 -32.159  1.00  0.00    -0.326 N 
HETATM    3  O   UNL     1      -5.088   1.226 -30.381  1.00  0.00    -0.272 OA
HETATM    4  H   UNL     1      -2.850   1.433 -32.629  1.00  0.00     0.169 HD
ENDROOT
BRANCH   1   5
HETATM    5  C   UNL     1      -4.036   3.183 -31.300  1.00  0.00     0.195 C 
BRANCH   5   6
HETATM    6  N   UNL     1      -2.605   3.472 -31.371  1.00  0.00    -0.282 NA
HETATM    7  H   UNL     1      -2.053   2.610 -31.411  1.00  0.00     0.128 HD
BRANCH   6   8
HETATM    8  C   UNL     1      -2.070   4.414 -32.255  1.00  0.00     0.042 A 
HETATM    9  C   UNL     1      -1.347   5.509 -31.735  1.00  0.00     0.089 A 
HETATM   10  C   UNL     1      -0.803   6.497 -32.559  1.00  0.00     0.038 A 
HETATM   11  C   UNL     1      -1.036   6.452 -33.928  1.00  0.00     0.003 A 
HETATM   12  C   UNL     1      -1.812   5.425 -34.461  1.00  0.00     0.002 A 
HETATM   13  C   UNL     1      -2.334   4.424 -33.629  1.00  0.00     0.026 A 
BRANCH   9  14
HETATM   14  O   UNL     1      -1.105   5.614 -30.385  1.00  0.00    -0.354 OA
HETATM   15  C   UNL     1       0.269   5.331 -30.103  1.00  0.00     0.210 C 
ENDBRANCH   9  14
ENDBRANCH   6   8
ENDBRANCH   5   6
ENDBRANCH   1   5
BRANCH   2  16
HETATM   16  C   UNL     1      -3.762  -0.419 -32.485  1.00  0.00     0.035 A 
HETATM   17  C   UNL     1      -4.635  -0.887 -33.470  1.00  0.00     0.042 A 
HETATM   18  C   UNL     1      -4.713  -2.257 -33.787  1.00  0.00    -0.024 A 
HETATM   19  C   UNL     1      -3.892  -3.176 -33.100  1.00  0.00    -0.026 A 
HETATM   20  C   UNL     1      -5.588  -2.729 -34.779  1.00  0.00     0.012 A 
HETATM   21  C   UNL     1      -3.022  -2.703 -32.107  1.00  0.00     0.014 A 
HETATM   22  C   UNL     1      -3.962  -4.541 -33.427  1.00  0.00     0.012 A 
HETATM   23  C   UNL     1      -2.960  -1.340 -31.805  1.00  0.00     0.030 A 
HETATM   24  C   UNL     1      -4.835  -4.993 -34.418  1.00  0.00     0.001 A 
HETATM   25  C   UNL     1      -5.648  -4.088 -35.092  1.00  0.00     0.001 A 
ENDBRANCH   2  16
TORSDOF 5
ENDMDL
MODEL 3
REMARK VINA RESULT:      -8.6      1.180      2.004
REMARK  5 active torsions:
REMARK  status: ('A' for Active; 'I' for Inactive)
REMARK    1  A    between atoms: O_2  and  C_3 
REMARK    2  A    between atoms: C_4  and  N_5 
REMARK    3  A    between atoms: N_5  and  C_6 
REMARK    4  A    between atoms: C_6  and  C_7 
REMARK       I    between atoms: C_7  and  N_8 
REMARK    5  A    between atoms: N_8  and  C_9 
ROOT
HETATM    1  C   UNL     1      -4.439   1.668 -31.406  1.00  0.00     0.235 C 
HETATM    2  N   UNL     1      -4.289   1.194 -32.700  1.00  0.00    -0.326 N 
HETATM    3  O   UNL     1      -4.956   1.069 -30.466  1.00  0.00    -0.272 OA
HETATM    4  H   UNL     1      -3.661   1.719 -33.296  1.00  0.00     0.169 HD
ENDROOT
BRANCH   1   5
HETATM    5  C   UNL     1      -3.881   3.085 -31.217  1.00  0.00     0.195 C 
BRANCH   5   6
HETATM    6  N   UNL     1      -2.641   3.283 -31.964  1.00  0.00    -0.282 NA
HETATM    7  H   UNL     1      -2.585   2.651 -32.768  1.00  0.00     0.128 HD
BRANCH   6   8
HETATM    8  C   UNL     1      -2.177   4.550 -32.330  1.00  0.00     0.042 A 
HETATM    9  C   UNL     1      -2.722   5.179 -33.470  1.00  0.00     0.089 A 
HETATM   10  C   UNL     1      -2.291   6.434 -33.903  1.00  0.00     0.038 A 
HETATM   11  C   UNL     1      -1.241   7.062 -33.245  1.00  0.00     0.003 A 
HETATM   12  C   UNL     1      -0.629   6.430 -32.164  1.00  0.00     0.002 A 
HETATM   13  C   UNL     1      -1.086   5.180 -31.721  1.00  0.00     0.026 A 
BRANCH   9  14
HETATM   14  O   UNL     1      -3.751   4.592 -34.170  1.00  0.00    -0.354 OA
HETATM   15  C   UNL     1      -4.968   5.316 -33.967  1.00  0.00     0.210 C 
ENDBRANCH   9  14
ENDBRANCH   6   8
ENDBRANCH   5   6
ENDBRANCH   1   5
BRANCH   2  16
HETATM   16  C   UNL     1      -4.856   0.030 -33.259  1.00  0.00     0.035 A 
HETATM   17  C   UNL     1      -4.192  -1.196 -33.348  1.00  0.00     0.042 A 
HETATM   18  C   UNL     1      -4.831  -2.337 -33.870  1.00  0.00    -0.024 A 
HETATM   19  C   UNL     1      -6.169  -2.244 -34.310  1.00  0.00    -0.026 A 
HETATM   20  C   UNL     1      -4.166  -3.571 -33.957  1.00  0.00     0.012 A 
HETATM   21  C   UNL     1      -6.829  -1.010 -34.226  1.00  0.00     0.014 A 
HETATM   22  C   UNL     1      -6.808  -3.387 -34.819  1.00  0.00     0.012 A 
HETATM   23  C   UNL     1      -6.178   0.113 -33.706  1.00  0.00     0.030 A 
HETATM   24  C   UNL     1      -6.134  -4.607 -34.895  1.00  0.00     0.001 A 
HETATM   25  C   UNL     1      -4.814  -4.699 -34.466  1.00  0.00     0.001 A 
ENDBRANCH   2  16
TORSDOF 5
ENDMDL
MODEL 4
REMARK VINA RESULT:      -8.4      1.629      2.257
REMARK  5 active torsions:
REMARK  status: ('A' for Active; 'I' for Inactive)
REMARK    1  A    between atoms: O_2  and  C_3 
REMARK    2  A    between atoms: C_4  and  N_5 
REMARK    3  A    between atoms: N_5  and  C_6 
REMARK    4  A    between atoms: C_6  and  C_7 
REMARK       I    between atoms: C_7  and  N_8 
REMARK    5  A    between atoms: N_8  and  C_9 
ROOT
HETATM    1  C   UNL     1      -6.282   2.161 -33.292  1.00  0.00     0.235 C 
HETATM    2  N   UNL     1      -5.941   1.076 -32.500  1.00  0.00    -0.326 N 
HETATM    3  O   UNL     1      -6.516   2.138 -34.498  1.00  0.00    -0.272 OA
HETATM    4  H   UNL     1      -5.988   1.222 -31.500  1.00  0.00     0.169 HD
ENDROOT
BRANCH   1   5
HETATM    5  C   UNL     1      -6.352   3.478 -32.507  1.00  0.00     0.195 C 
BRANCH   5   6
HETATM    6  N   UNL     1      -5.023   3.970 -32.155  1.00  0.00    -0.282 NA
HETATM    7  H   UNL     1      -4.568   3.358 -31.471  1.00  0.00     0.128 HD
BRANCH   6   8
HETATM    8  C   UNL     1      -4.091   4.376 -33.115  1.00  0.00     0.042 A 
HETATM    9  C   UNL     1      -2.718   4.361 -32.788  1.00  0.00     0.089 A 
HETATM   10  C   UNL     1      -1.736   4.772 -33.692  1.00  0.00     0.038 A 
HETATM   11  C   UNL     1      -2.112   5.284 -34.927  1.00  0.00     0.003 A 
HETATM   12  C   UNL     1      -3.465   5.383 -35.248  1.00  0.00     0.002 A 
HETATM   13  C   UNL     1      -4.443   4.945 -34.343  1.00  0.00     0.026 A 
BRANCH   9  14
HETATM   14  O   UNL     1      -2.291   3.884 -31.571  1.00  0.00    -0.354 OA
HETATM   15  C   UNL     1      -1.364   4.797 -30.976  1.00  0.00     0.210 C 
ENDBRANCH   9  14
ENDBRANCH   6   8
ENDBRANCH   5   6
ENDBRANCH   1   5
BRANCH   2  16
HETATM   16  C   UNL     1      -5.602  -0.225 -32.927  1.00  0.00     0.035 A 
HETATM   17  C   UNL     1      -6.476  -1.076 -33.608  1.00  0.00     0.042 A 
HETATM   18  C   UNL     1      -6.062  -2.346 -34.054  1.00  0.00    -0.024 A 
HETATM   19  C   UNL     1      -4.737  -2.768 -33.813  1.00  0.00    -0.026 A 
HETATM   20  C   UNL     1      -6.939  -3.201 -34.742  1.00  0.00     0.012 A 
HETATM   21  C   UNL     1      -3.864  -1.915 -33.123  1.00  0.00     0.014 A 
HETATM   22  C   UNL     1      -4.322  -4.030 -34.271  1.00  0.00     0.012 A 
HETATM   23  C   UNL     1      -4.294  -0.658 -32.685  1.00  0.00     0.030 A 
HETATM   24  C   UNL     1      -5.205  -4.866 -34.956  1.00  0.00     0.001 A 
HETATM   25  C   UNL     1      -6.513  -4.453 -35.190  1.00  0.00     0.001 A 
ENDBRANCH   2  16
TORSDOF 5
ENDMDL
MODEL 5
REMARK VINA RESULT:      -8.2      4.351      7.217
REMARK  5 active torsions:
REMARK  status: ('A' for Active; 'I' for Inactive)
REMARK    1  A    between atoms: O_2  and  C_3 
REMARK    2  A    between atoms: C_4  and  N_5 
REMARK    3  A    between atoms: N_5  and  C_6 
REMARK    4  A    between atoms: C_6  and  C_7 
REMARK       I    between atoms: C_7  and  N_8 
REMARK    5  A    between atoms: N_8  and  C_9 
ROOT
HETATM    1  C   UNL     1      -8.064   1.810 -31.900  1.00  0.00     0.235 C 
HETATM    2  N   UNL     1      -7.660   1.336 -33.138  1.00  0.00    -0.326 N 
HETATM    3  O   UNL     1      -7.679   1.410 -30.805  1.00  0.00    -0.272 OA
HETATM    4  H   UNL     1      -7.907   1.907 -33.937  1.00  0.00     0.169 HD
ENDROOT
BRANCH   1   5
HETATM    5  C   UNL     1      -9.094   2.944 -32.000  1.00  0.00     0.195 C 
BRANCH   5   6
HETATM    6  N   UNL     1     -10.436   2.435 -32.272  1.00  0.00    -0.282 NA
HETATM    7  H   UNL     1     -11.067   2.608 -31.484  1.00  0.00     0.128 HD
BRANCH   6   8
HETATM    8  C   UNL     1     -11.107   2.683 -33.473  1.00  0.00     0.042 A 
HETATM    9  C   UNL     1     -11.773   1.620 -34.120  1.00  0.00     0.089 A 
HETATM   10  C   UNL     1     -12.445   1.793 -35.332  1.00  0.00     0.038 A 
HETATM   11  C   UNL     1     -12.402   3.027 -35.969  1.00  0.00     0.003 A 
HETATM   12  C   UNL     1     -11.686   4.075 -35.392  1.00  0.00     0.002 A 
HETATM   13  C   UNL     1     -11.035   3.898 -34.163  1.00  0.00     0.026 A 
BRANCH   9  14
HETATM   14  O   UNL     1     -11.829   0.372 -33.544  1.00  0.00    -0.354 OA
HETATM   15  C   UNL     1     -13.164  -0.139 -33.594  1.00  0.00     0.210 C 
ENDBRANCH   9  14
ENDBRANCH   6   8
ENDBRANCH   5   6
ENDBRANCH   1   5
BRANCH   2  16
HETATM   16  C   UNL     1      -6.887   0.187 -33.406  1.00  0.00     0.035 A 
HETATM   17  C   UNL     1      -7.421  -1.030 -33.837  1.00  0.00     0.042 A 
HETATM   18  C   UNL     1      -6.591  -2.127 -34.139  1.00  0.00    -0.024 A 
HETATM   19  C   UNL     1      -5.192  -1.996 -34.006  1.00  0.00    -0.026 A 
HETATM   20  C   UNL     1      -7.127  -3.350 -34.576  1.00  0.00     0.012 A 
HETATM   21  C   UNL     1      -4.660  -0.776 -33.566  1.00  0.00     0.014 A 
HETATM   22  C   UNL     1      -4.365  -3.088 -34.320  1.00  0.00     0.012 A 
HETATM   23  C   UNL     1      -5.500   0.302 -33.269  1.00  0.00     0.030 A 
HETATM   24  C   UNL     1      -4.914  -4.296 -34.757  1.00  0.00     0.001 A 
HETATM   25  C   UNL     1      -6.293  -4.427 -34.883  1.00  0.00     0.001 A 
ENDBRANCH   2  16
TORSDOF 5
ENDMDL
MODEL 6
REMARK VINA RESULT:      -7.8      5.409      8.374
REMARK  5 active torsions:
REMARK  status: ('A' for Active; 'I' for Inactive)
REMARK    1  A    between atoms: O_2  and  C_3 
REMARK    2  A    between atoms: C_4  and  N_5 
REMARK    3  A    between atoms: N_5  and  C_6 
REMARK    4  A    between atoms: C_6  and  C_7 
REMARK       I    between atoms: C_7  and  N_8 
REMARK    5  A    between atoms: N_8  and  C_9 
ROOT
HETATM    1  C   UNL     1      -9.020   2.468 -32.938  1.00  0.00     0.235 C 
HETATM    2  N   UNL     1      -8.908   1.128 -32.603  1.00  0.00    -0.326 N 
HETATM    3  O   UNL     1      -8.238   3.114 -33.631  1.00  0.00    -0.272 OA
HETATM    4  H   UNL     1      -9.734   0.698 -32.207  1.00  0.00     0.169 HD
ENDROOT
BRANCH   1   5
HETATM    5  C   UNL     1     -10.269   3.133 -32.344  1.00  0.00     0.195 C 
BRANCH   5   6
HETATM    6  N   UNL     1     -11.333   3.271 -33.335  1.00  0.00    -0.282 NA
HETATM    7  H   UNL     1     -10.953   3.468 -34.266  1.00  0.00     0.128 HD
BRANCH   6   8
HETATM    8  C   UNL     1     -12.386   2.358 -33.442  1.00  0.00     0.042 A 
HETATM    9  C   UNL     1     -13.666   2.728 -32.975  1.00  0.00     0.089 A 
HETATM   10  C   UNL     1     -14.757   1.859 -33.033  1.00  0.00     0.038 A 
HETATM   11  C   UNL     1     -14.575   0.560 -33.493  1.00  0.00     0.003 A 
HETATM   12  C   UNL     1     -13.305   0.142 -33.888  1.00  0.00     0.002 A 
HETATM   13  C   UNL     1     -12.221   1.030 -33.849  1.00  0.00     0.026 A 
BRANCH   9  14
HETATM   14  O   UNL     1     -13.897   3.994 -32.490  1.00  0.00    -0.354 OA
HETATM   15  C   UNL     1     -15.213   4.081 -31.935  1.00  0.00     0.210 C 
ENDBRANCH   9  14
ENDBRANCH   6   8
ENDBRANCH   5   6
ENDBRANCH   1   5
BRANCH   2  16
HETATM   16  C   UNL     1      -7.800   0.280 -32.813  1.00  0.00     0.035 A 
HETATM   17  C   UNL     1      -7.796  -0.789 -33.712  1.00  0.00     0.042 A 
HETATM   18  C   UNL     1      -6.641  -1.568 -33.916  1.00  0.00    -0.024 A 
HETATM   19  C   UNL     1      -5.462  -1.262 -33.202  1.00  0.00    -0.026 A 
HETATM   20  C   UNL     1      -6.634  -2.642 -34.821  1.00  0.00     0.012 A 
HETATM   21  C   UNL     1      -5.472  -0.193 -32.296  1.00  0.00     0.014 A 
HETATM   22  C   UNL     1      -4.307  -2.033 -33.417  1.00  0.00     0.012 A 
HETATM   23  C   UNL     1      -6.630   0.568 -32.105  1.00  0.00     0.030 A 
HETATM   24  C   UNL     1      -4.316  -3.095 -34.323  1.00  0.00     0.001 A 
HETATM   25  C   UNL     1      -5.479  -3.400 -35.023  1.00  0.00     0.001 A 
ENDBRANCH   2  16
TORSDOF 5
ENDMDL
MODEL 7
REMARK VINA RESULT:      -7.7      2.050      3.156
REMARK  5 active torsions:
REMARK  status: ('A' for Active; 'I' for Inactive)
REMARK    1  A    between atoms: O_2  and  C_3 
REMARK    2  A    between atoms: C_4  and  N_5 
REMARK    3  A    between atoms: N_5  and  C_6 
REMARK    4  A    between atoms: C_6  and  C_7 
REMARK       I    between atoms: C_7  and  N_8 
REMARK    5  A    between atoms: N_8  and  C_9 
ROOT
HETATM    1  C   UNL     1      -4.927   4.110 -32.791  1.00  0.00     0.235 C 
HETATM    2  N   UNL     1      -4.974   2.945 -32.041  1.00  0.00    -0.326 N 
HETATM    3  O   UNL     1      -4.984   4.191 -34.015  1.00  0.00    -0.272 OA
HETATM    4  H   UNL     1      -5.127   3.062 -31.047  1.00  0.00     0.169 HD
ENDROOT
BRANCH   1   5
HETATM    5  C   UNL     1      -4.789   5.373 -31.930  1.00  0.00     0.195 C 
BRANCH   5   6
HETATM    6  N   UNL     1      -3.839   6.321 -32.506  1.00  0.00    -0.282 NA
HETATM    7  H   UNL     1      -4.287   7.220 -32.711  1.00  0.00     0.128 HD
BRANCH   6   8
HETATM    8  C   UNL     1      -2.571   6.542 -31.962  1.00  0.00     0.042 A 
HETATM    9  C   UNL     1      -1.486   5.758 -32.409  1.00  0.00     0.089 A 
HETATM   10  C   UNL     1      -0.197   5.912 -31.895  1.00  0.00     0.038 A 
HETATM   11  C   UNL     1       0.023   6.809 -30.857  1.00  0.00     0.003 A 
HETATM   12  C   UNL     1      -1.044   7.541 -30.341  1.00  0.00     0.002 A 
HETATM   13  C   UNL     1      -2.330   7.397 -30.881  1.00  0.00     0.026 A 
BRANCH   9  14
HETATM   14  O   UNL     1      -1.653   4.840 -33.421  1.00  0.00    -0.354 OA
HETATM   15  C   UNL     1      -1.295   5.417 -34.680  1.00  0.00     0.210 C 
ENDBRANCH   9  14
ENDBRANCH   6   8
ENDBRANCH   5   6
ENDBRANCH   1   5
BRANCH   2  16
HETATM   16  C   UNL     1      -4.900   1.618 -32.512  1.00  0.00     0.035 A 
HETATM   17  C   UNL     1      -5.969   0.939 -33.101  1.00  0.00     0.042 A 
HETATM   18  C   UNL     1      -5.819  -0.370 -33.600  1.00  0.00    -0.024 A 
HETATM   19  C   UNL     1      -4.564  -1.009 -33.506  1.00  0.00    -0.026 A 
HETATM   20  C   UNL     1      -6.892  -1.052 -34.196  1.00  0.00     0.012 A 
HETATM   21  C   UNL     1      -3.495  -0.327 -32.906  1.00  0.00     0.014 A 
HETATM   22  C   UNL     1      -4.413  -2.309 -34.015  1.00  0.00     0.012 A 
HETATM   23  C   UNL     1      -3.664   0.971 -32.415  1.00  0.00     0.030 A 
HETATM   24  C   UNL     1      -5.489  -2.972 -34.608  1.00  0.00     0.001 A 
HETATM   25  C   UNL     1      -6.727  -2.345 -34.697  1.00  0.00     0.001 A 
ENDBRANCH   2  16
TORSDOF 5
ENDMDL
MODEL 8
REMARK VINA RESULT:      -7.6      1.784      8.356
REMARK  5 active torsions:
REMARK  status: ('A' for Active; 'I' for Inactive)
REMARK    1  A    between atoms: O_2  and  C_3 
REMARK    2  A    between atoms: C_4  and  N_5 
REMARK    3  A    between atoms: N_5  and  C_6 
REMARK    4  A    between atoms: C_6  and  C_7 
REMARK       I    between atoms: C_7  and  N_8 
REMARK    5  A    between atoms: N_8  and  C_9 
ROOT
HETATM    1  C   UNL     1      -5.053   2.036 -32.255  1.00  0.00     0.235 C 
HETATM    2  N   UNL     1      -4.590   3.251 -32.734  1.00  0.00    -0.326 N 
HETATM    3  O   UNL     1      -4.963   1.624 -31.102  1.00  0.00    -0.272 OA
HETATM    4  H   UNL     1      -4.927   3.528 -33.647  1.00  0.00     0.169 HD
ENDROOT
BRANCH   1   5
HETATM    5  C   UNL     1      -5.730   1.184 -33.338  1.00  0.00     0.195 C 
BRANCH   5   6
HETATM    6  N   UNL     1      -6.203  -0.092 -32.807  1.00  0.00    -0.282 NA
HETATM    7  H   UNL     1      -7.176  -0.028 -32.492  1.00  0.00     0.128 HD
BRANCH   6   8
HETATM    8  C   UNL     1      -6.004  -1.305 -33.472  1.00  0.00     0.042 A 
HETATM    9  C   UNL     1      -4.691  -1.800 -33.621  1.00  0.00     0.089 A 
HETATM   10  C   UNL     1      -4.419  -2.994 -34.291  1.00  0.00     0.038 A 
HETATM   11  C   UNL     1      -5.456  -3.689 -34.901  1.00  0.00     0.003 A 
HETATM   12  C   UNL     1      -6.753  -3.184 -34.838  1.00  0.00     0.002 A 
HETATM   13  C   UNL     1      -7.020  -1.996 -34.141  1.00  0.00     0.026 A 
BRANCH   9  14
HETATM   14  O   UNL     1      -3.624  -1.141 -33.055  1.00  0.00    -0.354 OA
HETATM   15  C   UNL     1      -3.128  -1.873 -31.930  1.00  0.00     0.210 C 
ENDBRANCH   9  14
ENDBRANCH   6   8
ENDBRANCH   5   6
ENDBRANCH   1   5
BRANCH   2  16
HETATM   16  C   UNL     1      -3.760   4.176 -32.066  1.00  0.00     0.035 A 
HETATM   17  C   UNL     1      -2.371   4.219 -32.205  1.00  0.00     0.042 A 
HETATM   18  C   UNL     1      -1.600   5.201 -31.553  1.00  0.00    -0.024 A 
HETATM   19  C   UNL     1      -2.243   6.163 -30.744  1.00  0.00    -0.026 A 
HETATM   20  C   UNL     1      -0.203   5.247 -31.694  1.00  0.00     0.012 A 
HETATM   21  C   UNL     1      -3.636   6.112 -30.601  1.00  0.00     0.014 A 
HETATM   22  C   UNL     1      -1.474   7.150 -30.104  1.00  0.00     0.012 A 
HETATM   23  C   UNL     1      -4.385   5.128 -31.255  1.00  0.00     0.030 A 
HETATM   24  C   UNL     1      -0.086   7.183 -30.258  1.00  0.00     0.001 A 
HETATM   25  C   UNL     1       0.548   6.232 -31.050  1.00  0.00     0.001 A 
ENDBRANCH   2  16
TORSDOF 5
ENDMDL
MODEL 9
REMARK VINA RESULT:      -7.4      2.118      3.617
REMARK  5 active torsions:
REMARK  status: ('A' for Active; 'I' for Inactive)
REMARK    1  A    between atoms: O_2  and  C_3 
REMARK    2  A    between atoms: C_4  and  N_5 
REMARK    3  A    between atoms: N_5  and  C_6 
REMARK    4  A    between atoms: C_6  and  C_7 
REMARK       I    between atoms: C_7  and  N_8 
REMARK    5  A    between atoms: N_8  and  C_9 
ROOT
HETATM    1  C   UNL     1      -3.909   4.565 -32.726  1.00  0.00     0.235 C 
HETATM    2  N   UNL     1      -4.366   3.485 -31.989  1.00  0.00    -0.326 N 
HETATM    3  O   UNL     1      -3.715   4.591 -33.938  1.00  0.00    -0.272 OA
HETATM    4  H   UNL     1      -4.672   3.686 -31.045  1.00  0.00     0.169 HD
ENDROOT
BRANCH   1   5
HETATM    5  C   UNL     1      -3.644   5.809 -31.866  1.00  0.00     0.195 C 
BRANCH   5   6
HETATM    6  N   UNL     1      -2.900   5.481 -30.652  1.00  0.00    -0.282 NA
HETATM    7  H   UNL     1      -2.522   4.529 -30.693  1.00  0.00     0.128 HD
BRANCH   6   8
HETATM    8  C   UNL     1      -1.948   6.341 -30.097  1.00  0.00     0.042 A 
HETATM    9  C   UNL     1      -0.596   5.938 -30.063  1.00  0.00     0.089 A 
HETATM   10  C   UNL     1       0.403   6.739 -29.505  1.00  0.00     0.038 A 
HETATM   11  C   UNL     1       0.058   7.938 -28.894  1.00  0.00     0.003 A 
HETATM   12  C   UNL     1      -1.279   8.325 -28.843  1.00  0.00     0.002 A 
HETATM   13  C   UNL     1      -2.272   7.526 -29.428  1.00  0.00     0.026 A 
BRANCH   9  14
HETATM   14  O   UNL     1      -0.202   4.750 -30.635  1.00  0.00    -0.354 OA
HETATM   15  C   UNL     1       1.216   4.737 -30.826  1.00  0.00     0.210 C 
ENDBRANCH   9  14
ENDBRANCH   6   8
ENDBRANCH   5   6
ENDBRANCH   1   5
BRANCH   2  16
HETATM   16  C   UNL     1      -4.518   2.151 -32.424  1.00  0.00     0.035 A 
HETATM   17  C   UNL     1      -5.636   1.678 -33.114  1.00  0.00     0.042 A 
HETATM   18  C   UNL     1      -5.707   0.347 -33.569  1.00  0.00    -0.024 A 
HETATM   19  C   UNL     1      -4.625  -0.527 -33.326  1.00  0.00    -0.026 A 
HETATM   20  C   UNL     1      -6.830  -0.129 -34.266  1.00  0.00     0.012 A 
HETATM   21  C   UNL     1      -3.508  -0.051 -32.627  1.00  0.00     0.014 A 
HETATM   22  C   UNL     1      -4.692  -1.851 -33.792  1.00  0.00     0.012 A 
HETATM   23  C   UNL     1      -3.457   1.274 -32.181  1.00  0.00     0.030 A 
HETATM   24  C   UNL     1      -5.814  -2.307 -34.486  1.00  0.00     0.001 A 
HETATM   25  C   UNL     1      -6.882  -1.447 -34.721  1.00  0.00     0.001 A 
ENDBRANCH   2  16
TORSDOF 5
ENDMDL
MODEL 10
REMARK VINA RESULT:      -7.3      5.878      8.778
REMARK  5 active torsions:
REMARK  status: ('A' for Active; 'I' for Inactive)
REMARK    1  A    between atoms: O_2  and  C_3 
REMARK    2  A    between atoms: C_4  and  N_5 
REMARK    3  A    between atoms: N_5  and  C_6 
REMARK    4  A    between atoms: C_6  and  C_7 
REMARK       I    between atoms: C_7  and  N_8 
REMARK    5  A    between atoms: N_8  and  C_9 
ROOT
HETATM    1  C   UNL     1      -9.569   2.603 -34.223  1.00  0.00     0.235 C 
HETATM    2  N   UNL     1      -9.333   1.243 -34.341  1.00  0.00    -0.326 N 
HETATM    3  O   UNL     1      -8.719   3.482 -34.102  1.00  0.00    -0.272 OA
HETATM    4  H   UNL     1     -10.119   0.679 -34.642  1.00  0.00     0.169 HD
ENDROOT
BRANCH   1   5
HETATM    5  C   UNL     1     -11.061   2.959 -34.255  1.00  0.00     0.195 C 
BRANCH   5   6
HETATM    6  N   UNL     1     -11.777   2.400 -33.110  1.00  0.00    -0.282 NA
HETATM    7  H   UNL     1     -11.479   2.839 -32.234  1.00  0.00     0.128 HD
BRANCH   6   8
HETATM    8  C   UNL     1     -13.164   2.225 -33.100  1.00  0.00     0.042 A 
HETATM    9  C   UNL     1     -13.932   2.890 -32.121  1.00  0.00     0.089 A 
HETATM   10  C   UNL     1     -15.319   2.746 -32.042  1.00  0.00     0.038 A 
HETATM   11  C   UNL     1     -15.966   1.864 -32.899  1.00  0.00     0.003 A 
HETATM   12  C   UNL     1     -15.223   1.134 -33.825  1.00  0.00     0.002 A 
HETATM   13  C   UNL     1     -13.834   1.305 -33.914  1.00  0.00     0.026 A 
BRANCH   9  14
HETATM   14  O   UNL     1     -13.340   3.759 -31.234  1.00  0.00    -0.354 OA
HETATM   15  C   UNL     1     -13.738   5.104 -31.513  1.00  0.00     0.210 C 
ENDBRANCH   9  14
ENDBRANCH   6   8
ENDBRANCH   5   6
ENDBRANCH   1   5
BRANCH   2  16
HETATM   16  C   UNL     1      -8.111   0.564 -34.155  1.00  0.00     0.035 A 
HETATM   17  C   UNL     1      -7.356   0.622 -32.981  1.00  0.00     0.042 A 
HETATM   18  C   UNL     1      -6.169  -0.121 -32.837  1.00  0.00    -0.024 A 
HETATM   19  C   UNL     1      -5.732  -0.944 -33.898  1.00  0.00    -0.026 A 
HETATM   20  C   UNL     1      -5.411  -0.066 -31.656  1.00  0.00     0.012 A 
HETATM   21  C   UNL     1      -6.487  -0.994 -35.078  1.00  0.00     0.014 A 
HETATM   22  C   UNL     1      -4.553  -1.694 -33.747  1.00  0.00     0.012 A 
HETATM   23  C   UNL     1      -7.663  -0.247 -35.203  1.00  0.00     0.030 A 
HETATM   24  C   UNL     1      -3.814  -1.631 -32.565  1.00  0.00     0.001 A 
HETATM   25  C   UNL     1      -4.241  -0.817 -31.521  1.00  0.00     0.001 A 
ENDBRANCH   2  16
TORSDOF 5
ENDMDL
