MODEL 1
REMARK VINA RESULT:      -9.2      0.000      0.000
REMARK  5 active torsions:
REMARK  status: ('A' for Active; 'I' for Inactive)
REMARK    1  A    between atoms: C_7  and  C_8 
REMARK    2  A    between atoms: C_16  and  C_17 
REMARK    3  A    between atoms: C_19  and  O_20 
REMARK    4  A    between atoms: C_24  and  C_25 
REMARK       I    between atoms: C_25  and  N_26 
REMARK    5  A    between atoms: N_26  and  C_27 
ROOT
HETATM    1  C   UNL     1      -8.429   3.847 -29.821  1.00  0.00     0.070 C 
HETATM    2  C   UNL     1      -8.437   2.968 -31.048  1.00  0.00     0.037 C 
HETATM    3  N   UNL     1      -7.882   1.700 -30.886  1.00  0.00    -0.192 N 
HETATM    4  C   UNL     1      -7.598   0.893 -31.927  1.00  0.00     0.726 A 
HETATM    5  N   UNL     1      -8.042   1.233 -33.171  1.00  0.00    -0.083 N 
HETATM    6  N   UNL     1      -7.634   0.355 -34.105  1.00  0.00    -0.135 NA
HETATM    7  C   UNL     1      -6.946  -0.525 -33.353  1.00  0.00     0.200 A 
HETATM    8  N   UNL     1      -6.925  -0.225 -32.004  1.00  0.00    -0.041 NA
HETATM    9  C   UNL     1      -8.896   2.390 -33.447  1.00  0.00     0.202 C 
HETATM   10  C   UNL     1      -8.929   3.345 -32.257  1.00  0.00     0.062 C 
HETATM   11  H   UNL     1      -7.423   1.506 -29.998  1.00  0.00     0.184 HD
ENDROOT
BRANCH  10  12
HETATM   12  C   UNL     1      -9.305   4.767 -32.514  1.00  0.00     0.256 C 
HETATM   13  N   UNL     1     -10.639   5.050 -32.318  1.00  0.00    -0.323 N 
HETATM   14  H   UNL     1     -11.247   4.311 -31.990  1.00  0.00     0.169 HD
HETATM   15  O   UNL     1      -8.443   5.548 -32.901  1.00  0.00    -0.267 OA
BRANCH  13  16
HETATM   16  C   UNL     1     -11.293   6.283 -32.530  1.00  0.00     0.035 A 
HETATM   17  C   UNL     1     -11.389   7.295 -31.573  1.00  0.00     0.029 A 
HETATM   18  C   UNL     1     -12.059   8.487 -31.868  1.00  0.00     0.002 A 
HETATM   19  C   UNL     1     -12.628   8.681 -33.124  1.00  0.00     0.000 A 
HETATM   20  C   UNL     1     -12.536   7.681 -34.086  1.00  0.00     0.002 A 
HETATM   21  C   UNL     1     -11.878   6.484 -33.788  1.00  0.00     0.029 A 
ENDBRANCH  13  16
ENDBRANCH  10  12
BRANCH   9  22
HETATM   22  C   UNL     1     -10.280   1.882 -33.857  1.00  0.00    -0.025 A 
HETATM   23  C   UNL     1     -10.871   0.766 -33.234  1.00  0.00     0.046 A 
HETATM   24  C   UNL     1     -12.140   0.344 -33.622  1.00  0.00     0.066 A 
HETATM   25  C   UNL     1     -12.834   1.003 -34.629  1.00  0.00     0.036 A 
HETATM   26  C   UNL     1     -12.251   2.094 -35.268  1.00  0.00     0.003 A 
HETATM   27  C   UNL     1     -10.982   2.533 -34.886  1.00  0.00     0.010 A 
BRANCH  24  28
HETATM   28  O   UNL     1     -12.746  -0.724 -33.030  1.00  0.00    -0.361 OA
HETATM   29  H   UNL     1     -12.620  -1.511 -33.588  1.00  0.00     0.217 HD
ENDBRANCH  24  28
ENDBRANCH   9  22
BRANCH   7  30
HETATM   30  C   UNL     1      -6.359  -1.738 -33.905  1.00  0.00     0.036 A 
HETATM   31  C   UNL     1      -4.975  -1.955 -33.979  1.00  0.00     0.048 A 
HETATM   32 CL   UNL     1      -3.805  -0.776 -33.489  1.00  0.00    -0.083 Cl
HETATM   33  C   UNL     1      -4.477  -3.152 -34.512  1.00  0.00     0.025 A 
HETATM   34  C   UNL     1      -5.349  -4.139 -34.976  1.00  0.00     0.002 A 
HETATM   35  C   UNL     1      -6.723  -3.932 -34.917  1.00  0.00     0.001 A 
HETATM   36  C   UNL     1      -7.223  -2.741 -34.388  1.00  0.00     0.017 A 
ENDBRANCH   7  30
TORSDOF 5
ENDMDL
MODEL 2
REMARK VINA RESULT:      -9.1      5.016      7.295
REMARK  5 active torsions:
REMARK  status: ('A' for Active; 'I' for Inactive)
REMARK    1  A    between atoms: C_7  and  C_8 
REMARK    2  A    between atoms: C_16  and  C_17 
REMARK    3  A    between atoms: C_19  and  O_20 
REMARK    4  A    between atoms: C_24  and  C_25 
REMARK       I    between atoms: C_25  and  N_26 
REMARK    5  A    between atoms: N_26  and  C_27 
ROOT
HETATM    1  C   UNL     1      -7.411   5.640 -30.108  1.00  0.00     0.070 C 
HETATM    2  C   UNL     1      -6.290   4.760 -30.606  1.00  0.00     0.037 C 
HETATM    3  N   UNL     1      -6.682   3.573 -31.223  1.00  0.00    -0.192 N 
HETATM    4  C   UNL     1      -5.815   2.580 -31.504  1.00  0.00     0.726 A 
HETATM    5  N   UNL     1      -4.477   2.806 -31.364  1.00  0.00    -0.083 N 
HETATM    6  N   UNL     1      -3.753   1.705 -31.633  1.00  0.00    -0.135 NA
HETATM    7  C   UNL     1      -4.722   0.827 -31.954  1.00  0.00     0.200 A 
HETATM    8  N   UNL     1      -6.002   1.348 -31.899  1.00  0.00    -0.041 NA
HETATM    9  C   UNL     1      -3.901   4.104 -31.008  1.00  0.00     0.202 C 
HETATM   10  C   UNL     1      -4.970   5.053 -30.475  1.00  0.00     0.062 C 
HETATM   11  H   UNL     1      -7.673   3.342 -31.195  1.00  0.00     0.184 HD
ENDROOT
BRANCH  10  12
HETATM   12  C   UNL     1      -4.527   6.190 -29.613  1.00  0.00     0.256 C 
HETATM   13  N   UNL     1      -4.511   5.913 -28.265  1.00  0.00    -0.323 N 
HETATM   14  H   UNL     1      -4.756   4.980 -27.960  1.00  0.00     0.169 HD
HETATM   15  O   UNL     1      -4.253   7.263 -30.141  1.00  0.00    -0.267 OA
BRANCH  13  16
HETATM   16  C   UNL     1      -4.189   6.798 -27.212  1.00  0.00     0.035 A 
HETATM   17  C   UNL     1      -5.019   7.832 -26.777  1.00  0.00     0.029 A 
HETATM   18  C   UNL     1      -4.619   8.666 -25.726  1.00  0.00     0.002 A 
HETATM   19  C   UNL     1      -3.394   8.463 -25.095  1.00  0.00     0.000 A 
HETATM   20  C   UNL     1      -2.561   7.433 -25.520  1.00  0.00     0.002 A 
HETATM   21  C   UNL     1      -2.953   6.609 -26.578  1.00  0.00     0.029 A 
ENDBRANCH  13  16
ENDBRANCH  10  12
BRANCH   9  22
HETATM   22  C   UNL     1      -3.155   4.652 -32.226  1.00  0.00    -0.025 A 
HETATM   23  C   UNL     1      -3.809   4.879 -33.453  1.00  0.00     0.046 A 
HETATM   24  C   UNL     1      -3.101   5.395 -34.534  1.00  0.00     0.066 A 
HETATM   25  C   UNL     1      -1.747   5.683 -34.428  1.00  0.00     0.036 A 
HETATM   26  C   UNL     1      -1.082   5.442 -33.228  1.00  0.00     0.003 A 
HETATM   27  C   UNL     1      -1.780   4.930 -32.133  1.00  0.00     0.010 A 
BRANCH  24  28
HETATM   28  O   UNL     1      -3.708   5.640 -35.730  1.00  0.00    -0.361 OA
HETATM   29  H   UNL     1      -4.629   5.910 -35.570  1.00  0.00     0.217 HD
ENDBRANCH  24  28
ENDBRANCH   9  22
BRANCH   7  30
HETATM   30  C   UNL     1      -4.436  -0.526 -32.411  1.00  0.00     0.036 A 
HETATM   31  C   UNL     1      -5.017  -1.088 -33.557  1.00  0.00     0.048 A 
HETATM   32 CL   UNL     1      -6.197  -0.263 -34.520  1.00  0.00    -0.083 Cl
HETATM   33  C   UNL     1      -4.688  -2.393 -33.946  1.00  0.00     0.025 A 
HETATM   34  C   UNL     1      -3.783  -3.149 -33.200  1.00  0.00     0.002 A 
HETATM   35  C   UNL     1      -3.206  -2.607 -32.056  1.00  0.00     0.001 A 
HETATM   36  C   UNL     1      -3.532  -1.307 -31.664  1.00  0.00     0.017 A 
ENDBRANCH   7  30
TORSDOF 5
ENDMDL
MODEL 3
REMARK VINA RESULT:      -9.0      4.686      6.735
REMARK  5 active torsions:
REMARK  status: ('A' for Active; 'I' for Inactive)
REMARK    1  A    between atoms: C_7  and  C_8 
REMARK    2  A    between atoms: C_16  and  C_17 
REMARK    3  A    between atoms: C_19  and  O_20 
REMARK    4  A    between atoms: C_24  and  C_25 
REMARK       I    between atoms: C_25  and  N_26 
REMARK    5  A    between atoms: N_26  and  C_27 
ROOT
HETATM    1  C   UNL     1      -8.088   5.488 -30.390  1.00  0.00     0.070 C 
HETATM    2  C   UNL     1      -7.042   4.529 -30.904  1.00  0.00     0.037 C 
HETATM    3  N   UNL     1      -7.504   3.535 -31.766  1.00  0.00    -0.192 N 
HETATM    4  C   UNL     1      -6.754   2.472 -32.117  1.00  0.00     0.726 A 
HETATM    5  N   UNL     1      -5.432   2.453 -31.785  1.00  0.00    -0.083 N 
HETATM    6  N   UNL     1      -4.838   1.306 -32.161  1.00  0.00    -0.135 NA
HETATM    7  C   UNL     1      -5.865   0.659 -32.744  1.00  0.00     0.200 A 
HETATM    8  N   UNL     1      -7.054   1.366 -32.746  1.00  0.00    -0.041 NA
HETATM    9  C   UNL     1      -4.735   3.567 -31.137  1.00  0.00     0.202 C 
HETATM   10  C   UNL     1      -5.726   4.579 -30.570  1.00  0.00     0.062 C 
HETATM   11  H   UNL     1      -8.512   3.467 -31.894  1.00  0.00     0.184 HD
ENDROOT
BRANCH  10  12
HETATM   12  C   UNL     1      -5.255   5.477 -29.473  1.00  0.00     0.256 C 
HETATM   13  N   UNL     1      -4.538   6.572 -29.899  1.00  0.00    -0.323 N 
HETATM   14  H   UNL     1      -4.412   6.711 -30.893  1.00  0.00     0.169 HD
HETATM   15  O   UNL     1      -5.498   5.172 -28.311  1.00  0.00    -0.267 OA
BRANCH  13  16
HETATM   16  C   UNL     1      -3.926   7.561 -29.097  1.00  0.00     0.035 A 
HETATM   17  C   UNL     1      -4.616   8.599 -28.470  1.00  0.00     0.029 A 
HETATM   18  C   UNL     1      -3.928   9.538 -27.693  1.00  0.00     0.002 A 
HETATM   19  C   UNL     1      -2.549   9.440 -27.530  1.00  0.00     0.000 A 
HETATM   20  C   UNL     1      -1.852   8.408 -28.149  1.00  0.00     0.002 A 
HETATM   21  C   UNL     1      -2.536   7.477 -28.935  1.00  0.00     0.029 A 
ENDBRANCH  13  16
ENDBRANCH  10  12
BRANCH   9  22
HETATM   22  C   UNL     1      -3.755   4.174 -32.143  1.00  0.00    -0.025 A 
HETATM   23  C   UNL     1      -4.179   4.628 -33.406  1.00  0.00     0.046 A 
HETATM   24  C   UNL     1      -3.261   5.191 -34.287  1.00  0.00     0.066 A 
HETATM   25  C   UNL     1      -1.919   5.302 -33.945  1.00  0.00     0.036 A 
HETATM   26  C   UNL     1      -1.482   4.836 -32.708  1.00  0.00     0.003 A 
HETATM   27  C   UNL     1      -2.392   4.274 -31.811  1.00  0.00     0.010 A 
BRANCH  24  28
HETATM   28  O   UNL     1      -3.642   5.654 -35.512  1.00  0.00    -0.361 OA
HETATM   29  H   UNL     1      -4.526   6.053 -35.440  1.00  0.00     0.217 HD
ENDBRANCH  24  28
ENDBRANCH   9  22
BRANCH   7  30
HETATM   30  C   UNL     1      -5.709  -0.632 -33.400  1.00  0.00     0.036 A 
HETATM   31  C   UNL     1      -4.503  -1.348 -33.407  1.00  0.00     0.048 A 
HETATM   32 CL   UNL     1      -3.042  -0.748 -32.697  1.00  0.00    -0.083 Cl
HETATM   33  C   UNL     1      -4.427  -2.592 -34.048  1.00  0.00     0.025 A 
HETATM   34  C   UNL     1      -5.544  -3.130 -34.689  1.00  0.00     0.002 A 
HETATM   35  C   UNL     1      -6.743  -2.425 -34.698  1.00  0.00     0.001 A 
HETATM   36  C   UNL     1      -6.824  -1.185 -34.061  1.00  0.00     0.017 A 
ENDBRANCH   7  30
TORSDOF 5
ENDMDL
MODEL 4
REMARK VINA RESULT:      -8.9      3.001      8.501
REMARK  5 active torsions:
REMARK  status: ('A' for Active; 'I' for Inactive)
REMARK    1  A    between atoms: C_7  and  C_8 
REMARK    2  A    between atoms: C_16  and  C_17 
REMARK    3  A    between atoms: C_19  and  O_20 
REMARK    4  A    between atoms: C_24  and  C_25 
REMARK       I    between atoms: C_25  and  N_26 
REMARK    5  A    between atoms: N_26  and  C_27 
ROOT
HETATM    1  C   UNL     1      -4.074   2.019 -33.018  1.00  0.00     0.070 C 
HETATM    2  C   UNL     1      -5.429   2.348 -32.439  1.00  0.00     0.037 C 
HETATM    3  N   UNL     1      -5.649   3.692 -32.144  1.00  0.00    -0.192 N 
HETATM    4  C   UNL     1      -6.700   4.112 -31.410  1.00  0.00     0.726 A 
HETATM    5  N   UNL     1      -7.693   3.228 -31.107  1.00  0.00    -0.083 N 
HETATM    6  N   UNL     1      -8.639   3.786 -30.331  1.00  0.00    -0.135 NA
HETATM    7  C   UNL     1      -8.168   5.042 -30.206  1.00  0.00     0.200 A 
HETATM    8  N   UNL     1      -6.981   5.272 -30.879  1.00  0.00    -0.041 NA
HETATM    9  C   UNL     1      -7.743   1.852 -31.604  1.00  0.00     0.202 C 
HETATM   10  C   UNL     1      -6.400   1.430 -32.193  1.00  0.00     0.062 C 
HETATM   11  H   UNL     1      -4.855   4.323 -32.237  1.00  0.00     0.184 HD
ENDROOT
BRANCH  10  12
HETATM   12  C   UNL     1      -6.102  -0.031 -32.276  1.00  0.00     0.256 C 
HETATM   13  N   UNL     1      -6.052  -0.531 -33.558  1.00  0.00    -0.323 N 
HETATM   14  H   UNL     1      -6.179   0.107 -34.332  1.00  0.00     0.169 HD
HETATM   15  O   UNL     1      -5.964  -0.669 -31.238  1.00  0.00    -0.267 OA
BRANCH  13  16
HETATM   16  C   UNL     1      -5.843  -1.873 -33.946  1.00  0.00     0.035 A 
HETATM   17  C   UNL     1      -4.604  -2.515 -33.916  1.00  0.00     0.029 A 
HETATM   18  C   UNL     1      -4.488  -3.849 -34.322  1.00  0.00     0.002 A 
HETATM   19  C   UNL     1      -5.611  -4.554 -34.749  1.00  0.00     0.000 A 
HETATM   20  C   UNL     1      -6.851  -3.925 -34.780  1.00  0.00     0.002 A 
HETATM   21  C   UNL     1      -6.966  -2.588 -34.387  1.00  0.00     0.029 A 
ENDBRANCH  13  16
ENDBRANCH  10  12
BRANCH   9  22
HETATM   22  C   UNL     1      -8.903   1.738 -32.596  1.00  0.00    -0.025 A 
HETATM   23  C   UNL     1      -9.133   2.720 -33.579  1.00  0.00     0.046 A 
HETATM   24  C   UNL     1     -10.188   2.573 -34.475  1.00  0.00     0.066 A 
HETATM   25  C   UNL     1     -11.032   1.472 -34.409  1.00  0.00     0.036 A 
HETATM   26  C   UNL     1     -10.830   0.506 -33.428  1.00  0.00     0.003 A 
HETATM   27  C   UNL     1      -9.773   0.636 -32.525  1.00  0.00     0.010 A 
BRANCH  24  28
HETATM   28  O   UNL     1     -10.428   3.498 -35.448  1.00  0.00    -0.361 OA
HETATM   29  H   UNL     1     -10.541   4.371 -35.035  1.00  0.00     0.217 HD
ENDBRANCH  24  28
ENDBRANCH   9  22
BRANCH   7  30
HETATM   30  C   UNL     1      -8.896   6.088 -29.503  1.00  0.00     0.036 A 
HETATM   31  C   UNL     1     -10.033   6.719 -30.030  1.00  0.00     0.048 A 
HETATM   32 CL   UNL     1     -10.659   6.376 -31.608  1.00  0.00    -0.083 Cl
HETATM   33  C   UNL     1     -10.693   7.712 -29.293  1.00  0.00     0.025 A 
HETATM   34  C   UNL     1     -10.228   8.086 -28.032  1.00  0.00     0.002 A 
HETATM   35  C   UNL     1      -9.096   7.475 -27.502  1.00  0.00     0.001 A 
HETATM   36  C   UNL     1      -8.435   6.486 -28.233  1.00  0.00     0.017 A 
ENDBRANCH   7  30
TORSDOF 5
ENDMDL
MODEL 5
REMARK VINA RESULT:      -8.7      4.179      6.176
REMARK  5 active torsions:
REMARK  status: ('A' for Active; 'I' for Inactive)
REMARK    1  A    between atoms: C_7  and  C_8 
REMARK    2  A    between atoms: C_16  and  C_17 
REMARK    3  A    between atoms: C_19  and  O_20 
REMARK    4  A    between atoms: C_24  and  C_25 
REMARK       I    between atoms: C_25  and  N_26 
REMARK    5  A    between atoms: N_26  and  C_27 
ROOT
HETATM    1  C   UNL     1     -10.492   5.656 -30.910  1.00  0.00     0.070 C 
HETATM    2  C   UNL     1      -9.332   5.159 -31.736  1.00  0.00     0.037 C 
HETATM    3  N   UNL     1      -8.081   5.669 -31.391  1.00  0.00    -0.192 N 
HETATM    4  C   UNL     1      -6.993   5.514 -32.171  1.00  0.00     0.726 A 
HETATM    5  N   UNL     1      -7.055   4.667 -33.238  1.00  0.00    -0.083 N 
HETATM    6  N   UNL     1      -5.909   4.662 -33.941  1.00  0.00    -0.135 NA
HETATM    7  C   UNL     1      -5.163   5.530 -33.231  1.00  0.00     0.200 A 
HETATM    8  N   UNL     1      -5.804   6.055 -32.123  1.00  0.00    -0.041 NA
HETATM    9  C   UNL     1      -8.217   3.831 -33.551  1.00  0.00     0.202 C 
HETATM   10  C   UNL     1      -9.446   4.281 -32.767  1.00  0.00     0.062 C 
HETATM   11  H   UNL     1      -8.060   6.408 -30.691  1.00  0.00     0.184 HD
ENDROOT
BRANCH  10  12
HETATM   12  C   UNL     1     -10.790   3.911 -33.303  1.00  0.00     0.256 C 
HETATM   13  N   UNL     1     -11.324   2.763 -32.762  1.00  0.00    -0.323 N 
HETATM   14  H   UNL     1     -10.807   2.284 -32.037  1.00  0.00     0.169 HD
HETATM   15  O   UNL     1     -11.291   4.606 -34.180  1.00  0.00    -0.267 OA
BRANCH  13  16
HETATM   16  C   UNL     1     -12.546   2.142 -33.106  1.00  0.00     0.035 A 
HETATM   17  C   UNL     1     -13.799   2.599 -32.697  1.00  0.00     0.029 A 
HETATM   18  C   UNL     1     -14.961   1.919 -33.083  1.00  0.00     0.002 A 
HETATM   19  C   UNL     1     -14.876   0.786 -33.889  1.00  0.00     0.000 A 
HETATM   20  C   UNL     1     -13.632   0.324 -34.304  1.00  0.00     0.002 A 
HETATM   21  C   UNL     1     -12.471   0.995 -33.908  1.00  0.00     0.029 A 
ENDBRANCH  13  16
ENDBRANCH  10  12
BRANCH   9  22
HETATM   22  C   UNL     1      -7.841   2.369 -33.305  1.00  0.00    -0.025 A 
HETATM   23  C   UNL     1      -7.606   1.876 -32.006  1.00  0.00     0.046 A 
HETATM   24  C   UNL     1      -7.283   0.535 -31.820  1.00  0.00     0.066 A 
HETATM   25  C   UNL     1      -7.176  -0.330 -32.901  1.00  0.00     0.036 A 
HETATM   26  C   UNL     1      -7.383   0.149 -34.191  1.00  0.00     0.003 A 
HETATM   27  C   UNL     1      -7.713   1.491 -34.395  1.00  0.00     0.010 A 
BRANCH  24  28
HETATM   28  O   UNL     1      -7.065   0.023 -30.575  1.00  0.00    -0.361 OA
HETATM   29  H   UNL     1      -6.459  -0.735 -30.645  1.00  0.00     0.217 HD
ENDBRANCH  24  28
ENDBRANCH   9  22
BRANCH   7  30
HETATM   30  C   UNL     1      -3.771   5.814 -33.550  1.00  0.00     0.036 A 
HETATM   31  C   UNL     1      -3.020   6.801 -32.895  1.00  0.00     0.048 A 
HETATM   32 CL   UNL     1      -3.682   7.843 -31.681  1.00  0.00    -0.083 Cl
HETATM   33  C   UNL     1      -1.680   7.014 -33.246  1.00  0.00     0.025 A 
HETATM   34  C   UNL     1      -1.079   6.252 -34.249  1.00  0.00     0.002 A 
HETATM   35  C   UNL     1      -1.816   5.277 -34.912  1.00  0.00     0.001 A 
HETATM   36  C   UNL     1      -3.151   5.062 -34.567  1.00  0.00     0.017 A 
ENDBRANCH   7  30
TORSDOF 5
ENDMDL
MODEL 6
REMARK VINA RESULT:      -8.6      4.469      9.554
REMARK  5 active torsions:
REMARK  status: ('A' for Active; 'I' for Inactive)
REMARK    1  A    between atoms: C_7  and  C_8 
REMARK    2  A    between atoms: C_16  and  C_17 
REMARK    3  A    between atoms: C_19  and  O_20 
REMARK    4  A    between atoms: C_24  and  C_25 
REMARK       I    between atoms: C_25  and  N_26 
REMARK    5  A    between atoms: N_26  and  C_27 
ROOT
HETATM    1  C   UNL     1      -5.801   0.913 -29.714  1.00  0.00     0.070 C 
HETATM    2  C   UNL     1      -5.712   2.133 -30.597  1.00  0.00     0.037 C 
HETATM    3  N   UNL     1      -6.319   3.285 -30.100  1.00  0.00    -0.192 N 
HETATM    4  C   UNL     1      -6.534   4.379 -30.858  1.00  0.00     0.726 A 
HETATM    5  N   UNL     1      -5.970   4.449 -32.098  1.00  0.00    -0.083 N 
HETATM    6  N   UNL     1      -6.320   5.575 -32.744  1.00  0.00    -0.135 NA
HETATM    7  C   UNL     1      -7.100   6.172 -31.823  1.00  0.00     0.200 A 
HETATM    8  N   UNL     1      -7.233   5.462 -30.644  1.00  0.00    -0.041 NA
HETATM    9  C   UNL     1      -5.057   3.439 -32.639  1.00  0.00     0.202 C 
HETATM   10  C   UNL     1      -5.101   2.158 -31.811  1.00  0.00     0.062 C 
HETATM   11  H   UNL     1      -6.862   3.189 -29.243  1.00  0.00     0.184 HD
ENDROOT
BRANCH  10  12
HETATM   12  C   UNL     1      -4.658   0.890 -32.463  1.00  0.00     0.256 C 
HETATM   13  N   UNL     1      -5.675   0.146 -33.018  1.00  0.00    -0.323 N 
HETATM   14  H   UNL     1      -6.617   0.513 -32.980  1.00  0.00     0.169 HD
HETATM   15  O   UNL     1      -3.469   0.590 -32.431  1.00  0.00    -0.267 OA
BRANCH  13  16
HETATM   16  C   UNL     1      -5.570  -1.112 -33.651  1.00  0.00     0.035 A 
HETATM   17  C   UNL     1      -4.371  -1.806 -33.820  1.00  0.00     0.029 A 
HETATM   18  C   UNL     1      -4.359  -3.049 -34.463  1.00  0.00     0.002 A 
HETATM   19  C   UNL     1      -5.544  -3.611 -34.930  1.00  0.00     0.000 A 
HETATM   20  C   UNL     1      -6.745  -2.928 -34.764  1.00  0.00     0.002 A 
HETATM   21  C   UNL     1      -6.757  -1.680 -34.134  1.00  0.00     0.029 A 
ENDBRANCH  13  16
ENDBRANCH  10  12
BRANCH   9  22
HETATM   22  C   UNL     1      -3.659   4.053 -32.735  1.00  0.00    -0.025 A 
HETATM   23  C   UNL     1      -3.104   4.435 -33.972  1.00  0.00     0.046 A 
HETATM   24  C   UNL     1      -1.836   5.007 -34.018  1.00  0.00     0.066 A 
HETATM   25  C   UNL     1      -1.097   5.199 -32.858  1.00  0.00     0.036 A 
HETATM   26  C   UNL     1      -1.625   4.805 -31.631  1.00  0.00     0.003 A 
HETATM   27  C   UNL     1      -2.898   4.235 -31.567  1.00  0.00     0.010 A 
BRANCH  24  28
HETATM   28  O   UNL     1      -1.276   5.401 -35.197  1.00  0.00    -0.361 OA
HETATM   29  H   UNL     1      -0.539   4.805 -35.414  1.00  0.00     0.217 HD
ENDBRANCH  24  28
ENDBRANCH   9  22
BRANCH   7  30
HETATM   30  C   UNL     1      -7.675   7.496 -32.020  1.00  0.00     0.036 A 
HETATM   31  C   UNL     1      -6.971   8.683 -31.767  1.00  0.00     0.048 A 
HETATM   32 CL   UNL     1      -5.364   8.711 -31.124  1.00  0.00    -0.083 Cl
HETATM   33  C   UNL     1      -7.582   9.925 -31.990  1.00  0.00     0.025 A 
HETATM   34  C   UNL     1      -8.894   9.996 -32.461  1.00  0.00     0.002 A 
HETATM   35  C   UNL     1      -9.606   8.826 -32.706  1.00  0.00     0.001 A 
HETATM   36  C   UNL     1      -9.002   7.587 -32.485  1.00  0.00     0.017 A 
ENDBRANCH   7  30
TORSDOF 5
ENDMDL
MODEL 7
REMARK VINA RESULT:      -8.5      5.458      8.454
REMARK  5 active torsions:
REMARK  status: ('A' for Active; 'I' for Inactive)
REMARK    1  A    between atoms: C_7  and  C_8 
REMARK    2  A    between atoms: C_16  and  C_17 
REMARK    3  A    between atoms: C_19  and  O_20 
REMARK    4  A    between atoms: C_24  and  C_25 
REMARK       I    between atoms: C_25  and  N_26 
REMARK    5  A    between atoms: N_26  and  C_27 
ROOT
HETATM    1  C   UNL     1      -2.466   5.881 -34.265  1.00  0.00     0.070 C 
HETATM    2  C   UNL     1      -3.641   5.238 -33.569  1.00  0.00     0.037 C 
HETATM    3  N   UNL     1      -4.821   5.174 -34.310  1.00  0.00    -0.192 N 
HETATM    4  C   UNL     1      -6.008   4.853 -33.758  1.00  0.00     0.726 A 
HETATM    5  N   UNL     1      -6.040   4.381 -32.479  1.00  0.00    -0.083 N 
HETATM    6  N   UNL     1      -7.298   4.156 -32.060  1.00  0.00    -0.135 NA
HETATM    7  C   UNL     1      -8.003   4.499 -33.155  1.00  0.00     0.200 A 
HETATM    8  N   UNL     1      -7.228   4.915 -34.222  1.00  0.00    -0.041 NA
HETATM    9  C   UNL     1      -4.845   4.112 -31.676  1.00  0.00     0.202 C 
HETATM   10  C   UNL     1      -3.607   4.747 -32.303  1.00  0.00     0.062 C 
HETATM   11  H   UNL     1      -4.831   5.656 -35.207  1.00  0.00     0.184 HD
ENDROOT
BRANCH  10  12
HETATM   12  C   UNL     1      -2.437   5.018 -31.415  1.00  0.00     0.256 C 
HETATM   13  N   UNL     1      -2.463   6.246 -30.793  1.00  0.00    -0.323 N 
HETATM   14  H   UNL     1      -3.262   6.847 -30.944  1.00  0.00     0.169 HD
HETATM   15  O   UNL     1      -1.549   4.177 -31.332  1.00  0.00    -0.267 OA
BRANCH  13  16
HETATM   16  C   UNL     1      -1.477   6.797 -29.945  1.00  0.00     0.035 A 
HETATM   17  C   UNL     1      -0.143   6.981 -30.309  1.00  0.00     0.029 A 
HETATM   18  C   UNL     1       0.769   7.533 -29.402  1.00  0.00     0.002 A 
HETATM   19  C   UNL     1       0.350   7.916 -28.130  1.00  0.00     0.000 A 
HETATM   20  C   UNL     1      -0.979   7.740 -27.758  1.00  0.00     0.002 A 
HETATM   21  C   UNL     1      -1.887   7.176 -28.658  1.00  0.00     0.029 A 
ENDBRANCH  13  16
ENDBRANCH  10  12
BRANCH   9  22
HETATM   22  C   UNL     1      -4.721   2.599 -31.487  1.00  0.00    -0.025 A 
HETATM   23  C   UNL     1      -3.997   1.798 -32.391  1.00  0.00     0.046 A 
HETATM   24  C   UNL     1      -3.892   0.427 -32.176  1.00  0.00     0.066 A 
HETATM   25  C   UNL     1      -4.503  -0.173 -31.083  1.00  0.00     0.036 A 
HETATM   26  C   UNL     1      -5.241   0.604 -30.193  1.00  0.00     0.003 A 
HETATM   27  C   UNL     1      -5.352   1.982 -30.392  1.00  0.00     0.010 A 
BRANCH  24  28
HETATM   28  O   UNL     1      -3.186  -0.374 -33.024  1.00  0.00    -0.361 OA
HETATM   29  H   UNL     1      -3.109   0.067 -33.887  1.00  0.00     0.217 HD
ENDBRANCH  24  28
ENDBRANCH   9  22
BRANCH   7  30
HETATM   30  C   UNL     1      -9.450   4.351 -33.236  1.00  0.00     0.036 A 
HETATM   31  C   UNL     1     -10.078   3.177 -33.676  1.00  0.00     0.048 A 
HETATM   32 CL   UNL     1      -9.205   1.793 -34.242  1.00  0.00    -0.083 Cl
HETATM   33  C   UNL     1     -11.477   3.100 -33.718  1.00  0.00     0.025 A 
HETATM   34  C   UNL     1     -12.260   4.187 -33.327  1.00  0.00     0.002 A 
HETATM   35  C   UNL     1     -11.649   5.361 -32.897  1.00  0.00     0.001 A 
HETATM   36  C   UNL     1     -10.256   5.443 -32.854  1.00  0.00     0.017 A 
ENDBRANCH   7  30
TORSDOF 5
ENDMDL
MODEL 8
REMARK VINA RESULT:      -8.5      4.803      9.738
REMARK  5 active torsions:
REMARK  status: ('A' for Active; 'I' for Inactive)
REMARK    1  A    between atoms: C_7  and  C_8 
REMARK    2  A    between atoms: C_16  and  C_17 
REMARK    3  A    between atoms: C_19  and  O_20 
REMARK    4  A    between atoms: C_24  and  C_25 
REMARK       I    between atoms: C_25  and  N_26 
REMARK    5  A    between atoms: N_26  and  C_27 
ROOT
HETATM    1  C   UNL     1      -5.607   0.668 -29.865  1.00  0.00     0.070 C 
HETATM    2  C   UNL     1      -5.576   2.104 -30.329  1.00  0.00     0.037 C 
HETATM    3  N   UNL     1      -5.519   3.064 -29.320  1.00  0.00    -0.192 N 
HETATM    4  C   UNL     1      -5.724   4.376 -29.552  1.00  0.00     0.726 A 
HETATM    5  N   UNL     1      -5.796   4.818 -30.840  1.00  0.00    -0.083 N 
HETATM    6  N   UNL     1      -6.054   6.137 -30.902  1.00  0.00    -0.135 NA
HETATM    7  C   UNL     1      -6.112   6.453 -29.595  1.00  0.00     0.200 A 
HETATM    8  N   UNL     1      -5.894   5.387 -28.742  1.00  0.00    -0.041 NA
HETATM    9  C   UNL     1      -5.576   3.967 -32.011  1.00  0.00     0.202 C 
HETATM   10  C   UNL     1      -5.611   2.489 -31.631  1.00  0.00     0.062 C 
HETATM   11  H   UNL     1      -5.611   2.733 -28.361  1.00  0.00     0.184 HD
ENDROOT
BRANCH  10  12
HETATM   12  C   UNL     1      -5.912   1.499 -32.708  1.00  0.00     0.256 C 
HETATM   13  N   UNL     1      -5.511   0.212 -32.428  1.00  0.00    -0.323 N 
HETATM   14  H   UNL     1      -5.088   0.022 -31.530  1.00  0.00     0.169 HD
HETATM   15  O   UNL     1      -6.441   1.889 -33.743  1.00  0.00    -0.267 OA
BRANCH  13  16
HETATM   16  C   UNL     1      -5.612  -0.919 -33.269  1.00  0.00     0.035 A 
HETATM   17  C   UNL     1      -6.816  -1.417 -33.770  1.00  0.00     0.029 A 
HETATM   18  C   UNL     1      -6.825  -2.547 -34.596  1.00  0.00     0.002 A 
HETATM   19  C   UNL     1      -5.631  -3.179 -34.936  1.00  0.00     0.000 A 
HETATM   20  C   UNL     1      -4.426  -2.688 -34.443  1.00  0.00     0.002 A 
HETATM   21  C   UNL     1      -4.417  -1.568 -33.608  1.00  0.00     0.029 A 
ENDBRANCH  13  16
ENDBRANCH  10  12
BRANCH   9  22
HETATM   22  C   UNL     1      -4.266   4.392 -32.678  1.00  0.00    -0.025 A 
HETATM   23  C   UNL     1      -3.040   4.358 -31.986  1.00  0.00     0.046 A 
HETATM   24  C   UNL     1      -1.866   4.735 -32.631  1.00  0.00     0.066 A 
HETATM   25  C   UNL     1      -1.884   5.159 -33.953  1.00  0.00     0.036 A 
HETATM   26  C   UNL     1      -3.093   5.219 -34.643  1.00  0.00     0.003 A 
HETATM   27  C   UNL     1      -4.278   4.839 -34.011  1.00  0.00     0.010 A 
BRANCH  24  28
HETATM   28  O   UNL     1      -0.662   4.700 -31.994  1.00  0.00    -0.361 OA
HETATM   29  H   UNL     1      -0.697   4.037 -31.284  1.00  0.00     0.217 HD
ENDBRANCH  24  28
ENDBRANCH   9  22
BRANCH   7  30
HETATM   30  C   UNL     1      -6.294   7.820 -29.124  1.00  0.00     0.036 A 
HETATM   31  C   UNL     1      -7.439   8.248 -28.437  1.00  0.00     0.048 A 
HETATM   32 CL   UNL     1      -8.799   7.221 -28.131  1.00  0.00    -0.083 Cl
HETATM   33  C   UNL     1      -7.543   9.577 -28.003  1.00  0.00     0.025 A 
HETATM   34  C   UNL     1      -6.514  10.487 -28.250  1.00  0.00     0.002 A 
HETATM   35  C   UNL     1      -5.378  10.077 -28.938  1.00  0.00     0.001 A 
HETATM   36  C   UNL     1      -5.270   8.755 -29.374  1.00  0.00     0.017 A 
ENDBRANCH   7  30
TORSDOF 5
ENDMDL
MODEL 9
REMARK VINA RESULT:      -8.4      4.015      9.362
REMARK  5 active torsions:
REMARK  status: ('A' for Active; 'I' for Inactive)
REMARK    1  A    between atoms: C_7  and  C_8 
REMARK    2  A    between atoms: C_16  and  C_17 
REMARK    3  A    between atoms: C_19  and  O_20 
REMARK    4  A    between atoms: C_24  and  C_25 
REMARK       I    between atoms: C_25  and  N_26 
REMARK    5  A    between atoms: N_26  and  C_27 
ROOT
HETATM    1  C   UNL     1      -5.869   0.376 -29.470  1.00  0.00     0.070 C 
HETATM    2  C   UNL     1      -5.966   1.632 -30.300  1.00  0.00     0.037 C 
HETATM    3  N   UNL     1      -6.648   2.696 -29.709  1.00  0.00    -0.192 N 
HETATM    4  C   UNL     1      -7.026   3.790 -30.400  1.00  0.00     0.726 A 
HETATM    5  N   UNL     1      -6.563   3.965 -31.671  1.00  0.00    -0.083 N 
HETATM    6  N   UNL     1      -7.070   5.074 -32.239  1.00  0.00    -0.135 NA
HETATM    7  C   UNL     1      -7.837   5.552 -31.241  1.00  0.00     0.200 A 
HETATM    8  N   UNL     1      -7.812   4.786 -30.089  1.00  0.00    -0.041 NA
HETATM    9  C   UNL     1      -5.597   3.076 -32.320  1.00  0.00     0.202 C 
HETATM   10  C   UNL     1      -5.452   1.767 -31.550  1.00  0.00     0.062 C 
HETATM   11  H   UNL     1      -7.114   2.511 -28.823  1.00  0.00     0.184 HD
ENDROOT
BRANCH  10  12
HETATM   12  C   UNL     1      -4.933   0.577 -32.289  1.00  0.00     0.256 C 
HETATM   13  N   UNL     1      -5.909  -0.220 -32.846  1.00  0.00    -0.323 N 
HETATM   14  H   UNL     1      -6.875   0.062 -32.752  1.00  0.00     0.169 HD
HETATM   15  O   UNL     1      -3.724   0.378 -32.319  1.00  0.00    -0.267 OA
BRANCH  13  16
HETATM   16  C   UNL     1      -5.727  -1.429 -33.552  1.00  0.00     0.035 A 
HETATM   17  C   UNL     1      -4.491  -2.050 -33.739  1.00  0.00     0.029 A 
HETATM   18  C   UNL     1      -4.401  -3.248 -34.456  1.00  0.00     0.002 A 
HETATM   19  C   UNL     1      -5.548  -3.840 -34.981  1.00  0.00     0.000 A 
HETATM   20  C   UNL     1      -6.785  -3.231 -34.798  1.00  0.00     0.002 A 
HETATM   21  C   UNL     1      -6.874  -2.027 -34.093  1.00  0.00     0.029 A 
ENDBRANCH  13  16
ENDBRANCH  10  12
BRANCH   9  22
HETATM   22  C   UNL     1      -4.278   3.834 -32.484  1.00  0.00    -0.025 A 
HETATM   23  C   UNL     1      -3.248   3.739 -31.529  1.00  0.00     0.046 A 
HETATM   24  C   UNL     1      -2.054   4.429 -31.721  1.00  0.00     0.066 A 
HETATM   25  C   UNL     1      -1.864   5.226 -32.842  1.00  0.00     0.036 A 
HETATM   26  C   UNL     1      -2.884   5.347 -33.783  1.00  0.00     0.003 A 
HETATM   27  C   UNL     1      -4.084   4.657 -33.607  1.00  0.00     0.010 A 
BRANCH  24  28
HETATM   28  O   UNL     1      -1.032   4.346 -30.823  1.00  0.00    -0.361 OA
HETATM   29  H   UNL     1      -1.402   4.256 -29.928  1.00  0.00     0.217 HD
ENDBRANCH  24  28
ENDBRANCH   9  22
BRANCH   7  30
HETATM   30  C   UNL     1      -8.553   6.816 -31.336  1.00  0.00     0.036 A 
HETATM   31  C   UNL     1      -9.808   6.942 -31.950  1.00  0.00     0.048 A 
HETATM   32 CL   UNL     1     -10.618   5.624 -32.726  1.00  0.00    -0.083 Cl
HETATM   33  C   UNL     1     -10.447   8.189 -31.996  1.00  0.00     0.025 A 
HETATM   34  C   UNL     1      -9.844   9.317 -31.438  1.00  0.00     0.002 A 
HETATM   35  C   UNL     1      -8.595   9.207 -30.836  1.00  0.00     0.001 A 
HETATM   36  C   UNL     1      -7.955   7.967 -30.787  1.00  0.00     0.017 A 
ENDBRANCH   7  30
TORSDOF 5
ENDMDL
MODEL 10
REMARK VINA RESULT:      -8.3      7.785     11.294
REMARK  5 active torsions:
REMARK  status: ('A' for Active; 'I' for Inactive)
REMARK    1  A    between atoms: C_7  and  C_8 
REMARK    2  A    between atoms: C_16  and  C_17 
REMARK    3  A    between atoms: C_19  and  O_20 
REMARK    4  A    between atoms: C_24  and  C_25 
REMARK       I    between atoms: C_25  and  N_26 
REMARK    5  A    between atoms: N_26  and  C_27 
ROOT
HETATM    1  C   UNL     1      -1.388   5.082 -33.483  1.00  0.00     0.070 C 
HETATM    2  C   UNL     1      -1.629   5.714 -32.134  1.00  0.00     0.037 C 
HETATM    3  N   UNL     1      -0.627   6.570 -31.680  1.00  0.00    -0.192 N 
HETATM    4  C   UNL     1      -0.576   7.020 -30.410  1.00  0.00     0.726 A 
HETATM    5  N   UNL     1      -1.638   6.799 -29.584  1.00  0.00    -0.083 N 
HETATM    6  N   UNL     1      -1.412   7.263 -28.342  1.00  0.00    -0.135 NA
HETATM    7  C   UNL     1      -0.177   7.783 -28.479  1.00  0.00     0.200 A 
HETATM    8  N   UNL     1       0.353   7.662 -29.751  1.00  0.00    -0.041 NA
HETATM    9  C   UNL     1      -2.890   6.171 -30.012  1.00  0.00     0.202 C 
HETATM   10  C   UNL     1      -2.727   5.488 -31.367  1.00  0.00     0.062 C 
HETATM   11  H   UNL     1       0.227   6.618 -32.233  1.00  0.00     0.184 HD
ENDROOT
BRANCH  10  12
HETATM   12  C   UNL     1      -3.690   4.402 -31.721  1.00  0.00     0.256 C 
HETATM   13  N   UNL     1      -3.425   3.188 -31.128  1.00  0.00    -0.323 N 
HETATM   14  H   UNL     1      -2.647   3.124 -30.485  1.00  0.00     0.169 HD
HETATM   15  O   UNL     1      -4.593   4.645 -32.513  1.00  0.00    -0.267 OA
BRANCH  13  16
HETATM   16  C   UNL     1      -4.124   1.975 -31.311  1.00  0.00     0.035 A 
HETATM   17  C   UNL     1      -3.775   1.004 -32.251  1.00  0.00     0.029 A 
HETATM   18  C   UNL     1      -4.527  -0.171 -32.368  1.00  0.00     0.002 A 
HETATM   19  C   UNL     1      -5.624  -0.388 -31.537  1.00  0.00     0.000 A 
HETATM   20  C   UNL     1      -5.978   0.572 -30.595  1.00  0.00     0.002 A 
HETATM   21  C   UNL     1      -5.236   1.751 -30.487  1.00  0.00     0.029 A 
ENDBRANCH  13  16
ENDBRANCH  10  12
BRANCH   9  22
HETATM   22  C   UNL     1      -3.993   7.231 -29.994  1.00  0.00    -0.025 A 
HETATM   23  C   UNL     1      -3.870   8.437 -30.711  1.00  0.00     0.046 A 
HETATM   24  C   UNL     1      -4.902   9.370 -30.685  1.00  0.00     0.066 A 
HETATM   25  C   UNL     1      -6.057   9.136 -29.949  1.00  0.00     0.036 A 
HETATM   26  C   UNL     1      -6.182   7.958 -29.218  1.00  0.00     0.003 A 
HETATM   27  C   UNL     1      -5.158   7.009 -29.238  1.00  0.00     0.010 A 
BRANCH  24  28
HETATM   28  O   UNL     1      -4.820  10.541 -31.379  1.00  0.00    -0.361 OA
HETATM   29  H   UNL     1      -5.253  10.429 -32.243  1.00  0.00     0.217 HD
ENDBRANCH  24  28
ENDBRANCH   9  22
BRANCH   7  30
HETATM   30  C   UNL     1       0.499   8.496 -27.404  1.00  0.00     0.036 A 
HETATM   31  C   UNL     1       0.126   9.780 -26.982  1.00  0.00     0.048 A 
HETATM   32 CL   UNL     1      -1.134  10.695 -27.737  1.00  0.00    -0.083 Cl
HETATM   33  C   UNL     1       0.814  10.403 -25.931  1.00  0.00     0.025 A 
HETATM   34  C   UNL     1       1.877   9.758 -25.297  1.00  0.00     0.002 A 
HETATM   35  C   UNL     1       2.262   8.487 -25.713  1.00  0.00     0.001 A 
HETATM   36  C   UNL     1       1.580   7.863 -26.759  1.00  0.00     0.017 A 
ENDBRANCH   7  30
TORSDOF 5
ENDMDL
