MODEL 1
REMARK VINA RESULT:      -8.8      0.000      0.000
REMARK  9 active torsions:
REMARK  status: ('A' for Active; 'I' for Inactive)
REMARK    1  A    between atoms: C_4  and  C_5 
REMARK    2  A    between atoms: C_7  and  O_8 
REMARK    3  A    between atoms: C_10  and  O_11 
REMARK    4  A    between atoms: C_16  and  C_17 
REMARK    5  A    between atoms: C_20  and  C_21 
REMARK    6  A    between atoms: C_21  and  N_22 
REMARK    7  A    between atoms: N_22  and  C_23 
REMARK    8  A    between atoms: C_23  and  N_24 
REMARK    9  A    between atoms: N_24  and  C_25 
ROOT
HETATM    1  C   UNL     1      -8.695   3.673 -32.506  1.00  0.00     0.067 C 
HETATM    2  C   UNL     1      -8.470   4.639 -33.702  1.00  0.00     0.001 C 
HETATM    3  C   UNL     1      -6.960   4.874 -33.926  1.00  0.00     0.040 C 
HETATM    4  C   UNL     1      -6.325   5.559 -32.703  1.00  0.00     0.206 C 
HETATM    5  N   UNL     1      -7.389   5.603 -31.598  1.00  0.00    -0.065 N 
HETATM    6  H   UNL     1      -6.965   5.988 -30.741  1.00  0.00     0.280 HD
HETATM    7  C   UNL     1      -7.949   4.215 -31.269  1.00  0.00     0.246 C 
HETATM    8  C   UNL     1      -9.103   5.997 -33.333  1.00  0.00     0.033 C 
HETATM    9  C   UNL     1      -8.521   6.526 -32.020  1.00  0.00     0.236 C 
ENDROOT
BRANCH   1  10
HETATM   10  C   UNL     1      -8.344   2.255 -32.856  1.00  0.00     0.038 A 
HETATM   11  N   UNL     1      -9.243   1.363 -33.395  1.00  0.00    -0.277 N 
HETATM   12  C   UNL     1     -10.650   1.562 -33.661  1.00  0.00     0.179 C 
HETATM   13  N   UNL     1      -8.697   0.188 -33.723  1.00  0.00    -0.172 NA
HETATM   14  C   UNL     1      -7.406   0.276 -33.379  1.00  0.00     0.089 A 
HETATM   15  C   UNL     1      -7.156   1.546 -32.792  1.00  0.00     0.061 A 
BRANCH  14  16
HETATM   16  C   UNL     1      -6.461  -0.816 -33.648  1.00  0.00    -0.003 A 
HETATM   17  C   UNL     1      -5.281  -0.927 -32.891  1.00  0.00     0.053 A 
HETATM   18  C   UNL     1      -4.378  -1.976 -33.101  1.00  0.00     0.102 A 
HETATM   19  C   UNL     1      -4.649  -2.936 -34.095  1.00  0.00     0.101 A 
HETATM   20  C   UNL     1      -5.819  -2.831 -34.852  1.00  0.00     0.040 A 
HETATM   21  C   UNL     1      -6.716  -1.779 -34.631  1.00  0.00     0.017 A 
BRANCH  18  22
HETATM   22  O   UNL     1      -3.215  -2.153 -32.394  1.00  0.00    -0.353 OA
HETATM   23  C   UNL     1      -2.614  -1.005 -31.811  1.00  0.00     0.210 C 
ENDBRANCH  18  22
BRANCH  19  24
HETATM   24  O   UNL     1      -3.722  -3.938 -34.234  1.00  0.00    -0.353 OA
HETATM   25  C   UNL     1      -4.107  -5.251 -33.852  1.00  0.00     0.210 C 
ENDBRANCH  19  24
ENDBRANCH  14  16
ENDBRANCH   1  10
BRANCH   4  26
HETATM   26  C   UNL     1      -5.013   4.930 -32.191  1.00  0.00     0.155 C 
BRANCH  26  27
HETATM   27  N   UNL     1      -4.120   4.443 -33.234  1.00  0.00    -0.365 N 
HETATM   28  H   UNL     1      -4.511   4.239 -34.149  1.00  0.00     0.161 HD
BRANCH  27  29
HETATM   29  C   UNL     1      -2.782   4.746 -33.304  1.00  0.00     0.172 C 
HETATM   30  S   UNL     1      -2.001   5.352 -34.650  1.00  0.00    -0.041 SA
BRANCH  29  31
HETATM   31  N   UNL     1      -2.038   4.462 -32.196  1.00  0.00    -0.333 N 
HETATM   32  H   UNL     1      -1.841   3.470 -32.084  1.00  0.00     0.168 HD
BRANCH  31  33
HETATM   33  C   UNL     1      -1.363   5.313 -31.298  1.00  0.00     0.034 A 
HETATM   34  C   UNL     1      -2.008   6.281 -30.522  1.00  0.00     0.031 A 
HETATM   35  C   UNL     1      -1.270   7.129 -29.689  1.00  0.00     0.026 A 
HETATM   36  C   UNL     1       0.117   7.014 -29.636  1.00  0.00     0.034 A 
HETATM   37 CL   UNL     1       1.021   8.057 -28.612  1.00  0.00    -0.084 Cl
HETATM   38  C   UNL     1       0.773   6.069 -30.420  1.00  0.00     0.026 A 
HETATM   39  C   UNL     1       0.033   5.229 -31.258  1.00  0.00     0.031 A 
ENDBRANCH  31  33
ENDBRANCH  29  31
ENDBRANCH  27  29
ENDBRANCH  26  27
ENDBRANCH   4  26
TORSDOF 9
ENDMDL
MODEL 2
REMARK VINA RESULT:      -8.6      4.006      7.667
REMARK  9 active torsions:
REMARK  status: ('A' for Active; 'I' for Inactive)
REMARK    1  A    between atoms: C_4  and  C_5 
REMARK    2  A    between atoms: C_7  and  O_8 
REMARK    3  A    between atoms: C_10  and  O_11 
REMARK    4  A    between atoms: C_16  and  C_17 
REMARK    5  A    between atoms: C_20  and  C_21 
REMARK    6  A    between atoms: C_21  and  N_22 
REMARK    7  A    between atoms: N_22  and  C_23 
REMARK    8  A    between atoms: C_23  and  N_24 
REMARK    9  A    between atoms: N_24  and  C_25 
ROOT
HETATM    1  C   UNL     1      -4.369   6.389 -32.756  1.00  0.00     0.067 C 
HETATM    2  C   UNL     1      -3.504   5.764 -33.884  1.00  0.00     0.001 C 
HETATM    3  C   UNL     1      -3.326   4.248 -33.649  1.00  0.00     0.040 C 
HETATM    4  C   UNL     1      -2.567   3.982 -32.338  1.00  0.00     0.206 C 
HETATM    5  N   UNL     1      -2.411   5.329 -31.617  1.00  0.00    -0.065 N 
HETATM    6  H   UNL     1      -1.973   5.167 -30.699  1.00  0.00     0.280 HD
HETATM    7  C   UNL     1      -3.755   6.029 -31.387  1.00  0.00     0.246 C 
HETATM    8  C   UNL     1      -2.106   6.413 -33.816  1.00  0.00     0.033 C 
HETATM    9  C   UNL     1      -1.493   6.233 -32.424  1.00  0.00     0.236 C 
ENDROOT
BRANCH   1  10
HETATM   10  C   UNL     1      -5.819   6.016 -32.890  1.00  0.00     0.038 A 
HETATM   11  N   UNL     1      -6.849   6.804 -32.429  1.00  0.00    -0.277 N 
HETATM   12  C   UNL     1      -6.765   8.051 -31.700  1.00  0.00     0.179 C 
HETATM   13  N   UNL     1      -8.060   6.334 -32.740  1.00  0.00    -0.172 NA
HETATM   14  C   UNL     1      -7.850   5.191 -33.405  1.00  0.00     0.089 A 
HETATM   15  C   UNL     1      -6.453   4.937 -33.482  1.00  0.00     0.061 A 
BRANCH  14  16
HETATM   16  C   UNL     1      -8.960   4.412 -33.968  1.00  0.00    -0.003 A 
HETATM   17  C   UNL     1      -8.984   3.014 -33.817  1.00  0.00     0.053 A 
HETATM   18  C   UNL     1     -10.046   2.247 -34.312  1.00  0.00     0.102 A 
HETATM   19  C   UNL     1     -11.108   2.884 -34.983  1.00  0.00     0.101 A 
HETATM   20  C   UNL     1     -11.088   4.272 -35.138  1.00  0.00     0.040 A 
HETATM   21  C   UNL     1     -10.024   5.029 -34.636  1.00  0.00     0.017 A 
BRANCH  18  22
HETATM   22  O   UNL     1     -10.141   0.883 -34.192  1.00  0.00    -0.353 OA
HETATM   23  C   UNL     1      -9.947   0.317 -32.903  1.00  0.00     0.210 C 
ENDBRANCH  18  22
BRANCH  19  24
HETATM   24  O   UNL     1     -12.115   2.066 -35.430  1.00  0.00    -0.353 OA
HETATM   25  C   UNL     1     -13.329   2.052 -34.695  1.00  0.00     0.210 C 
ENDBRANCH  19  24
ENDBRANCH  14  16
ENDBRANCH   1  10
BRANCH   4  26
HETATM   26  C   UNL     1      -3.190   2.920 -31.408  1.00  0.00     0.155 C 
BRANCH  26  27
HETATM   27  N   UNL     1      -4.559   2.547 -31.737  1.00  0.00    -0.365 N 
HETATM   28  H   UNL     1      -5.111   3.183 -32.306  1.00  0.00     0.161 HD
BRANCH  27  29
HETATM   29  C   UNL     1      -4.997   1.250 -31.846  1.00  0.00     0.172 C 
HETATM   30  S   UNL     1      -5.926   0.448 -30.713  1.00  0.00    -0.041 SA
BRANCH  29  31
HETATM   31  N   UNL     1      -4.576   0.559 -32.946  1.00  0.00    -0.333 N 
HETATM   32  H   UNL     1      -3.660   0.850 -33.279  1.00  0.00     0.168 HD
BRANCH  31  33
HETATM   33  C   UNL     1      -5.110  -0.584 -33.574  1.00  0.00     0.034 A 
HETATM   34  C   UNL     1      -6.412  -0.646 -34.081  1.00  0.00     0.031 A 
HETATM   35  C   UNL     1      -6.895  -1.830 -34.647  1.00  0.00     0.026 A 
HETATM   36  C   UNL     1      -6.079  -2.957 -34.701  1.00  0.00     0.034 A 
HETATM   37 CL   UNL     1      -6.676  -4.411 -35.397  1.00  0.00    -0.084 Cl
HETATM   38  C   UNL     1      -4.789  -2.914 -34.180  1.00  0.00     0.026 A 
HETATM   39  C   UNL     1      -4.311  -1.731 -33.607  1.00  0.00     0.031 A 
ENDBRANCH  31  33
ENDBRANCH  29  31
ENDBRANCH  27  29
ENDBRANCH  26  27
ENDBRANCH   4  26
TORSDOF 9
ENDMDL
MODEL 3
REMARK VINA RESULT:      -8.6      2.313      2.857
REMARK  9 active torsions:
REMARK  status: ('A' for Active; 'I' for Inactive)
REMARK    1  A    between atoms: C_4  and  C_5 
REMARK    2  A    between atoms: C_7  and  O_8 
REMARK    3  A    between atoms: C_10  and  O_11 
REMARK    4  A    between atoms: C_16  and  C_17 
REMARK    5  A    between atoms: C_20  and  C_21 
REMARK    6  A    between atoms: C_21  and  N_22 
REMARK    7  A    between atoms: N_22  and  C_23 
REMARK    8  A    between atoms: C_23  and  N_24 
REMARK    9  A    between atoms: N_24  and  C_25 
ROOT
HETATM    1  C   UNL     1      -9.519   3.202 -31.941  1.00  0.00     0.067 C 
HETATM    2  C   UNL     1      -8.911   4.500 -32.541  1.00  0.00     0.001 C 
HETATM    3  C   UNL     1      -7.453   4.680 -32.066  1.00  0.00     0.040 C 
HETATM    4  C   UNL     1      -7.392   4.851 -30.538  1.00  0.00     0.206 C 
HETATM    5  N   UNL     1      -8.803   4.595 -29.991  1.00  0.00    -0.065 N 
HETATM    6  H   UNL     1      -8.774   4.628 -28.962  1.00  0.00     0.280 HD
HETATM    7  C   UNL     1      -9.353   3.226 -30.408  1.00  0.00     0.246 C 
HETATM    8  C   UNL     1      -9.728   5.692 -32.002  1.00  0.00     0.033 C 
HETATM    9  C   UNL     1      -9.740   5.691 -30.471  1.00  0.00     0.236 C 
ENDROOT
BRANCH   1  10
HETATM   10  C   UNL     1      -8.965   1.968 -32.595  1.00  0.00     0.038 A 
HETATM   11  N   UNL     1      -9.518   1.390 -33.715  1.00  0.00    -0.277 N 
HETATM   12  C   UNL     1     -10.719   1.779 -34.421  1.00  0.00     0.179 C 
HETATM   13  N   UNL     1      -8.810   0.361 -34.189  1.00  0.00    -0.172 NA
HETATM   14  C   UNL     1      -7.767   0.223 -33.362  1.00  0.00     0.089 A 
HETATM   15  C   UNL     1      -7.853   1.189 -32.322  1.00  0.00     0.061 A 
BRANCH  14  16
HETATM   16  C   UNL     1      -6.721  -0.781 -33.602  1.00  0.00    -0.003 A 
HETATM   17  C   UNL     1      -5.499  -0.701 -32.910  1.00  0.00     0.053 A 
HETATM   18  C   UNL     1      -4.497  -1.662 -33.092  1.00  0.00     0.102 A 
HETATM   19  C   UNL     1      -4.710  -2.726 -33.990  1.00  0.00     0.101 A 
HETATM   20  C   UNL     1      -5.922  -2.810 -34.681  1.00  0.00     0.040 A 
HETATM   21  C   UNL     1      -6.918  -1.845 -34.489  1.00  0.00     0.017 A 
BRANCH  18  22
HETATM   22  O   UNL     1      -3.287  -1.654 -32.445  1.00  0.00    -0.353 OA
HETATM   23  C   UNL     1      -2.984  -0.536 -31.622  1.00  0.00     0.210 C 
ENDBRANCH  18  22
BRANCH  19  24
HETATM   24  O   UNL     1      -3.686  -3.632 -34.106  1.00  0.00    -0.353 OA
HETATM   25  C   UNL     1      -3.980  -4.997 -33.851  1.00  0.00     0.210 C 
ENDBRANCH  19  24
ENDBRANCH  14  16
ENDBRANCH   1  10
BRANCH   4  26
HETATM   26  C   UNL     1      -6.344   3.985 -29.809  1.00  0.00     0.155 C 
BRANCH  26  27
HETATM   27  N   UNL     1      -5.466   4.718 -28.907  1.00  0.00    -0.365 N 
HETATM   28  H   UNL     1      -4.844   4.190 -28.301  1.00  0.00     0.161 HD
BRANCH  27  29
HETATM   29  C   UNL     1      -4.987   5.980 -29.158  1.00  0.00     0.172 C 
HETATM   30  S   UNL     1      -5.857   7.395 -28.980  1.00  0.00    -0.041 SA
BRANCH  29  31
HETATM   31  N   UNL     1      -3.717   6.059 -29.652  1.00  0.00    -0.333 N 
HETATM   32  H   UNL     1      -3.017   6.253 -28.939  1.00  0.00     0.168 HD
BRANCH  31  33
HETATM   33  C   UNL     1      -3.204   5.747 -30.927  1.00  0.00     0.034 A 
HETATM   34  C   UNL     1      -1.896   5.304 -31.143  1.00  0.00     0.031 A 
HETATM   35  C   UNL     1      -1.436   5.062 -32.442  1.00  0.00     0.026 A 
HETATM   36  C   UNL     1      -2.282   5.269 -33.528  1.00  0.00     0.034 A 
HETATM   37 CL   UNL     1      -1.714   4.971 -35.122  1.00  0.00    -0.084 Cl
HETATM   38  C   UNL     1      -3.580   5.732 -33.327  1.00  0.00     0.026 A 
HETATM   39  C   UNL     1      -4.034   5.981 -32.029  1.00  0.00     0.031 A 
ENDBRANCH  31  33
ENDBRANCH  29  31
ENDBRANCH  27  29
ENDBRANCH  26  27
ENDBRANCH   4  26
TORSDOF 9
ENDMDL
MODEL 4
REMARK VINA RESULT:      -8.5      1.124      1.992
REMARK  9 active torsions:
REMARK  status: ('A' for Active; 'I' for Inactive)
REMARK    1  A    between atoms: C_4  and  C_5 
REMARK    2  A    between atoms: C_7  and  O_8 
REMARK    3  A    between atoms: C_10  and  O_11 
REMARK    4  A    between atoms: C_16  and  C_17 
REMARK    5  A    between atoms: C_20  and  C_21 
REMARK    6  A    between atoms: C_21  and  N_22 
REMARK    7  A    between atoms: N_22  and  C_23 
REMARK    8  A    between atoms: C_23  and  N_24 
REMARK    9  A    between atoms: N_24  and  C_25 
ROOT
HETATM    1  C   UNL     1      -8.503   3.468 -31.141  1.00  0.00     0.067 C 
HETATM    2  C   UNL     1      -8.311   4.650 -32.131  1.00  0.00     0.001 C 
HETATM    3  C   UNL     1      -6.808   4.956 -32.318  1.00  0.00     0.040 C 
HETATM    4  C   UNL     1      -6.172   5.406 -30.992  1.00  0.00     0.206 C 
HETATM    5  N   UNL     1      -7.224   5.215 -29.890  1.00  0.00    -0.065 N 
HETATM    6  H   UNL     1      -6.797   5.438 -28.979  1.00  0.00     0.280 HD
HETATM    7  C   UNL     1      -7.753   3.778 -29.829  1.00  0.00     0.246 C 
HETATM    8  C   UNL     1      -8.966   5.898 -31.504  1.00  0.00     0.033 C 
HETATM    9  C   UNL     1      -8.378   6.178 -30.118  1.00  0.00     0.236 C 
ENDROOT
BRANCH   1  10
HETATM   10  C   UNL     1      -8.129   2.151 -31.761  1.00  0.00     0.038 A 
HETATM   11  N   UNL     1      -8.957   1.448 -32.606  1.00  0.00    -0.277 N 
HETATM   12  C   UNL     1     -10.311   1.769 -33.003  1.00  0.00     0.179 C 
HETATM   13  N   UNL     1      -8.390   0.354 -33.121  1.00  0.00    -0.172 NA
HETATM   14  C   UNL     1      -7.158   0.300 -32.598  1.00  0.00     0.089 A 
HETATM   15  C   UNL     1      -6.973   1.390 -31.704  1.00  0.00     0.061 A 
BRANCH  14  16
HETATM   16  C   UNL     1      -6.203  -0.746 -32.984  1.00  0.00    -0.003 A 
HETATM   17  C   UNL     1      -6.495  -1.602 -34.062  1.00  0.00     0.053 A 
HETATM   18  C   UNL     1      -5.588  -2.586 -34.475  1.00  0.00     0.102 A 
HETATM   19  C   UNL     1      -4.363  -2.730 -33.796  1.00  0.00     0.101 A 
HETATM   20  C   UNL     1      -4.068  -1.884 -32.724  1.00  0.00     0.040 A 
HETATM   21  C   UNL     1      -4.980  -0.901 -32.321  1.00  0.00     0.017 A 
BRANCH  18  22
HETATM   22  O   UNL     1      -5.801  -3.447 -35.522  1.00  0.00    -0.353 OA
HETATM   23  C   UNL     1      -6.698  -4.530 -35.317  1.00  0.00     0.210 C 
ENDBRANCH  18  22
BRANCH  19  24
HETATM   24  O   UNL     1      -3.525  -3.709 -34.266  1.00  0.00    -0.353 OA
HETATM   25  C   UNL     1      -3.370  -4.880 -33.478  1.00  0.00     0.210 C 
ENDBRANCH  19  24
ENDBRANCH  14  16
ENDBRANCH   1  10
BRANCH   4  26
HETATM   26  C   UNL     1      -4.842   4.719 -30.621  1.00  0.00     0.155 C 
BRANCH  26  27
HETATM   27  N   UNL     1      -4.146   4.093 -31.736  1.00  0.00    -0.365 N 
HETATM   28  H   UNL     1      -4.646   3.410 -32.298  1.00  0.00     0.161 HD
BRANCH  27  29
HETATM   29  C   UNL     1      -3.130   4.691 -32.441  1.00  0.00     0.172 C 
HETATM   30  S   UNL     1      -3.312   5.513 -33.883  1.00  0.00    -0.041 SA
BRANCH  29  31
HETATM   31  N   UNL     1      -1.870   4.535 -31.939  1.00  0.00    -0.333 N 
HETATM   32  H   UNL     1      -1.359   3.763 -32.361  1.00  0.00     0.168 HD
BRANCH  31  33
HETATM   33  C   UNL     1      -1.114   5.356 -31.079  1.00  0.00     0.034 A 
HETATM   34  C   UNL     1      -0.047   4.885 -30.307  1.00  0.00     0.031 A 
HETATM   35  C   UNL     1       0.628   5.745 -29.434  1.00  0.00     0.026 A 
HETATM   36  C   UNL     1       0.233   7.076 -29.327  1.00  0.00     0.034 A 
HETATM   37 CL   UNL     1       1.065   8.130 -28.254  1.00  0.00    -0.084 Cl
HETATM   38  C   UNL     1      -0.841   7.551 -30.075  1.00  0.00     0.026 A 
HETATM   39  C   UNL     1      -1.520   6.687 -30.940  1.00  0.00     0.031 A 
ENDBRANCH  31  33
ENDBRANCH  29  31
ENDBRANCH  27  29
ENDBRANCH  26  27
ENDBRANCH   4  26
TORSDOF 9
ENDMDL
MODEL 5
REMARK VINA RESULT:      -8.5      4.759      9.585
REMARK  9 active torsions:
REMARK  status: ('A' for Active; 'I' for Inactive)
REMARK    1  A    between atoms: C_4  and  C_5 
REMARK    2  A    between atoms: C_7  and  O_8 
REMARK    3  A    between atoms: C_10  and  O_11 
REMARK    4  A    between atoms: C_16  and  C_17 
REMARK    5  A    between atoms: C_20  and  C_21 
REMARK    6  A    between atoms: C_21  and  N_22 
REMARK    7  A    between atoms: N_22  and  C_23 
REMARK    8  A    between atoms: C_23  and  N_24 
REMARK    9  A    between atoms: N_24  and  C_25 
ROOT
HETATM    1  C   UNL     1      -3.254   4.536 -33.006  1.00  0.00     0.067 C 
HETATM    2  C   UNL     1      -4.524   5.353 -33.373  1.00  0.00     0.001 C 
HETATM    3  C   UNL     1      -5.422   5.538 -32.130  1.00  0.00     0.040 C 
HETATM    4  C   UNL     1      -5.927   4.180 -31.613  1.00  0.00     0.206 C 
HETATM    5  N   UNL     1      -5.204   3.086 -32.411  1.00  0.00    -0.065 N 
HETATM    6  H   UNL     1      -5.467   2.166 -32.032  1.00  0.00     0.280 HD
HETATM    7  C   UNL     1      -3.679   3.215 -32.331  1.00  0.00     0.246 C 
HETATM    8  C   UNL     1      -5.323   4.536 -34.409  1.00  0.00     0.033 C 
HETATM    9  C   UNL     1      -5.647   3.142 -33.865  1.00  0.00     0.236 C 
ENDROOT
BRANCH   1  10
HETATM   10  C   UNL     1      -2.279   5.347 -32.200  1.00  0.00     0.038 A 
HETATM   11  N   UNL     1      -1.353   6.196 -32.762  1.00  0.00    -0.277 N 
HETATM   12  C   UNL     1      -1.087   6.427 -34.164  1.00  0.00     0.179 C 
HETATM   13  N   UNL     1      -0.654   6.893 -31.862  1.00  0.00    -0.172 NA
HETATM   14  C   UNL     1      -1.098   6.493 -30.663  1.00  0.00     0.089 A 
HETATM   15  C   UNL     1      -2.091   5.489 -30.835  1.00  0.00     0.061 A 
BRANCH  14  16
HETATM   16  C   UNL     1      -0.600   7.091 -29.418  1.00  0.00    -0.003 A 
HETATM   17  C   UNL     1      -1.441   7.177 -28.294  1.00  0.00     0.053 A 
HETATM   18  C   UNL     1      -0.983   7.710 -27.083  1.00  0.00     0.102 A 
HETATM   19  C   UNL     1       0.341   8.179 -26.987  1.00  0.00     0.101 A 
HETATM   20  C   UNL     1       1.181   8.098 -28.101  1.00  0.00     0.040 A 
HETATM   21  C   UNL     1       0.715   7.560 -29.306  1.00  0.00     0.017 A 
BRANCH  18  22
HETATM   22  O   UNL     1      -1.743   7.815 -25.945  1.00  0.00    -0.353 OA
HETATM   23  C   UNL     1      -2.896   6.992 -25.840  1.00  0.00     0.210 C 
ENDBRANCH  18  22
BRANCH  19  24
HETATM   24  O   UNL     1       0.717   8.678 -25.765  1.00  0.00    -0.353 OA
HETATM   25  C   UNL     1       2.081   8.550 -25.391  1.00  0.00     0.210 C 
ENDBRANCH  19  24
ENDBRANCH  14  16
ENDBRANCH   1  10
BRANCH   4  26
HETATM   26  C   UNL     1      -5.787   3.948 -30.094  1.00  0.00     0.155 C 
BRANCH  26  27
HETATM   27  N   UNL     1      -7.006   3.512 -29.427  1.00  0.00    -0.365 N 
HETATM   28  H   UNL     1      -7.100   3.682 -28.430  1.00  0.00     0.161 HD
BRANCH  27  29
HETATM   29  C   UNL     1      -8.228   3.413 -30.047  1.00  0.00     0.172 C 
HETATM   30  S   UNL     1      -9.265   4.689 -30.342  1.00  0.00    -0.041 SA
BRANCH  29  31
HETATM   31  N   UNL     1      -8.637   2.155 -30.384  1.00  0.00    -0.333 N 
HETATM   32  H   UNL     1      -9.462   1.847 -29.873  1.00  0.00     0.168 HD
BRANCH  31  33
HETATM   33  C   UNL     1      -8.221   1.300 -31.424  1.00  0.00     0.034 A 
HETATM   34  C   UNL     1      -7.161   0.397 -31.301  1.00  0.00     0.031 A 
HETATM   35  C   UNL     1      -6.767  -0.386 -32.391  1.00  0.00     0.026 A 
HETATM   36  C   UNL     1      -7.429  -0.262 -33.610  1.00  0.00     0.034 A 
HETATM   37 CL   UNL     1      -6.943  -1.225 -34.948  1.00  0.00    -0.084 Cl
HETATM   38  C   UNL     1      -8.472   0.650 -33.751  1.00  0.00     0.026 A 
HETATM   39  C   UNL     1      -8.858   1.437 -32.662  1.00  0.00     0.031 A 
ENDBRANCH  31  33
ENDBRANCH  29  31
ENDBRANCH  27  29
ENDBRANCH  26  27
ENDBRANCH   4  26
TORSDOF 9
ENDMDL
MODEL 6
REMARK VINA RESULT:      -8.4      1.641      2.144
REMARK  9 active torsions:
REMARK  status: ('A' for Active; 'I' for Inactive)
REMARK    1  A    between atoms: C_4  and  C_5 
REMARK    2  A    between atoms: C_7  and  O_8 
REMARK    3  A    between atoms: C_10  and  O_11 
REMARK    4  A    between atoms: C_16  and  C_17 
REMARK    5  A    between atoms: C_20  and  C_21 
REMARK    6  A    between atoms: C_21  and  N_22 
REMARK    7  A    between atoms: N_22  and  C_23 
REMARK    8  A    between atoms: C_23  and  N_24 
REMARK    9  A    between atoms: N_24  and  C_25 
ROOT
HETATM    1  C   UNL     1     -10.104   3.280 -31.507  1.00  0.00     0.067 C 
HETATM    2  C   UNL     1     -10.447   4.388 -32.540  1.00  0.00     0.001 C 
HETATM    3  C   UNL     1      -9.155   5.059 -33.057  1.00  0.00     0.040 C 
HETATM    4  C   UNL     1      -8.408   5.765 -31.912  1.00  0.00     0.206 C 
HETATM    5  N   UNL     1      -9.120   5.394 -30.603  1.00  0.00    -0.065 N 
HETATM    6  H   UNL     1      -8.593   5.792 -29.812  1.00  0.00     0.280 HD
HETATM    7  C   UNL     1      -9.214   3.878 -30.397  1.00  0.00     0.246 C 
HETATM    8  C   UNL     1     -11.274   5.467 -31.811  1.00  0.00     0.033 C 
HETATM    9  C   UNL     1     -10.514   6.001 -30.594  1.00  0.00     0.236 C 
ENDROOT
BRANCH   1  10
HETATM   10  C   UNL     1      -9.520   2.061 -32.164  1.00  0.00     0.038 A 
HETATM   11  N   UNL     1     -10.206   1.289 -33.074  1.00  0.00    -0.277 N 
HETATM   12  C   UNL     1     -11.575   1.433 -33.517  1.00  0.00     0.179 C 
HETATM   13  N   UNL     1      -9.467   0.313 -33.610  1.00  0.00    -0.172 NA
HETATM   14  C   UNL     1      -8.261   0.410 -33.036  1.00  0.00     0.089 A 
HETATM   15  C   UNL     1      -8.269   1.471 -32.089  1.00  0.00     0.061 A 
BRANCH  14  16
HETATM   16  C   UNL     1      -7.151  -0.469 -33.424  1.00  0.00    -0.003 A 
HETATM   17  C   UNL     1      -5.836  -0.150 -33.042  1.00  0.00     0.053 A 
HETATM   18  C   UNL     1      -4.761  -0.987 -33.367  1.00  0.00     0.102 A 
HETATM   19  C   UNL     1      -4.996  -2.167 -34.098  1.00  0.00     0.101 A 
HETATM   20  C   UNL     1      -6.301  -2.489 -34.482  1.00  0.00     0.040 A 
HETATM   21  C   UNL     1      -7.368  -1.647 -34.148  1.00  0.00     0.017 A 
BRANCH  18  22
HETATM   22  O   UNL     1      -3.455  -0.744 -33.019  1.00  0.00    -0.353 OA
HETATM   23  C   UNL     1      -3.139  -0.685 -31.635  1.00  0.00     0.210 C 
ENDBRANCH  18  22
BRANCH  19  24
HETATM   24  O   UNL     1      -3.894  -2.938 -34.370  1.00  0.00    -0.353 OA
HETATM   25  C   UNL     1      -3.946  -4.312 -34.013  1.00  0.00     0.210 C 
ENDBRANCH  19  24
ENDBRANCH  14  16
ENDBRANCH   1  10
BRANCH   4  26
HETATM   26  C   UNL     1      -6.895   5.480 -31.825  1.00  0.00     0.155 C 
BRANCH  26  27
HETATM   27  N   UNL     1      -6.126   5.901 -32.989  1.00  0.00    -0.365 N 
HETATM   28  H   UNL     1      -5.744   6.843 -33.002  1.00  0.00     0.161 HD
BRANCH  27  29
HETATM   29  C   UNL     1      -5.406   5.045 -33.785  1.00  0.00     0.172 C 
HETATM   30  S   UNL     1      -5.865   3.492 -34.193  1.00  0.00    -0.041 SA
BRANCH  29  31
HETATM   31  N   UNL     1      -4.190   5.495 -34.215  1.00  0.00    -0.333 N 
HETATM   32  H   UNL     1      -4.200   5.828 -35.176  1.00  0.00     0.168 HD
BRANCH  31  33
HETATM   33  C   UNL     1      -2.995   5.734 -33.507  1.00  0.00     0.034 A 
HETATM   34  C   UNL     1      -2.559   4.939 -32.443  1.00  0.00     0.031 A 
HETATM   35  C   UNL     1      -1.388   5.264 -31.750  1.00  0.00     0.026 A 
HETATM   36  C   UNL     1      -0.654   6.389 -32.118  1.00  0.00     0.034 A 
HETATM   37 CL   UNL     1       0.785   6.785 -31.265  1.00  0.00    -0.084 Cl
HETATM   38  C   UNL     1      -1.090   7.200 -33.162  1.00  0.00     0.026 A 
HETATM   39  C   UNL     1      -2.265   6.878 -33.847  1.00  0.00     0.031 A 
ENDBRANCH  31  33
ENDBRANCH  29  31
ENDBRANCH  27  29
ENDBRANCH  26  27
ENDBRANCH   4  26
TORSDOF 9
ENDMDL
MODEL 7
REMARK VINA RESULT:      -8.4      2.757      3.604
REMARK  9 active torsions:
REMARK  status: ('A' for Active; 'I' for Inactive)
REMARK    1  A    between atoms: C_4  and  C_5 
REMARK    2  A    between atoms: C_7  and  O_8 
REMARK    3  A    between atoms: C_10  and  O_11 
REMARK    4  A    between atoms: C_16  and  C_17 
REMARK    5  A    between atoms: C_20  and  C_21 
REMARK    6  A    between atoms: C_21  and  N_22 
REMARK    7  A    between atoms: N_22  and  C_23 
REMARK    8  A    between atoms: C_23  and  N_24 
REMARK    9  A    between atoms: N_24  and  C_25 
ROOT
HETATM    1  C   UNL     1     -11.361   3.747 -32.040  1.00  0.00     0.067 C 
HETATM    2  C   UNL     1     -11.250   5.066 -32.853  1.00  0.00     0.001 C 
HETATM    3  C   UNL     1      -9.852   5.697 -32.667  1.00  0.00     0.040 C 
HETATM    4  C   UNL     1      -9.618   6.084 -31.197  1.00  0.00     0.206 C 
HETATM    5  N   UNL     1     -10.797   5.533 -30.383  1.00  0.00    -0.065 N 
HETATM    6  H   UNL     1     -10.626   5.713 -29.383  1.00  0.00     0.280 HD
HETATM    7  C   UNL     1     -10.982   4.023 -30.571  1.00  0.00     0.246 C 
HETATM    8  C   UNL     1     -12.287   6.056 -32.283  1.00  0.00     0.033 C 
HETATM    9  C   UNL     1     -12.072   6.260 -30.781  1.00  0.00     0.236 C 
ENDROOT
BRANCH   1  10
HETATM   10  C   UNL     1     -10.577   2.631 -32.672  1.00  0.00     0.038 A 
HETATM   11  N   UNL     1     -10.952   2.008 -33.841  1.00  0.00    -0.277 N 
HETATM   12  C   UNL     1     -12.144   2.230 -34.629  1.00  0.00     0.179 C 
HETATM   13  N   UNL     1     -10.062   1.114 -34.278  1.00  0.00    -0.172 NA
HETATM   14  C   UNL     1      -9.072   1.112 -33.377  1.00  0.00     0.089 A 
HETATM   15  C   UNL     1      -9.381   2.023 -32.329  1.00  0.00     0.061 A 
BRANCH  14  16
HETATM   16  C   UNL     1      -7.869   0.287 -33.554  1.00  0.00    -0.003 A 
HETATM   17  C   UNL     1      -6.990   0.085 -32.475  1.00  0.00     0.053 A 
HETATM   18  C   UNL     1      -5.855  -0.724 -32.604  1.00  0.00     0.102 A 
HETATM   19  C   UNL     1      -5.580  -1.342 -33.839  1.00  0.00     0.101 A 
HETATM   20  C   UNL     1      -6.449  -1.144 -34.915  1.00  0.00     0.040 A 
HETATM   21  C   UNL     1      -7.583  -0.336 -34.774  1.00  0.00     0.017 A 
BRANCH  18  22
HETATM   22  O   UNL     1      -4.960  -0.973 -31.593  1.00  0.00    -0.353 OA
HETATM   23  C   UNL     1      -4.210   0.122 -31.087  1.00  0.00     0.210 C 
ENDBRANCH  18  22
BRANCH  19  24
HETATM   24  O   UNL     1      -4.455  -2.126 -33.883  1.00  0.00    -0.353 OA
HETATM   25  C   UNL     1      -4.558  -3.393 -34.516  1.00  0.00     0.210 C 
ENDBRANCH  19  24
ENDBRANCH  14  16
ENDBRANCH   1  10
BRANCH   4  26
HETATM   26  C   UNL     1      -8.268   5.640 -30.596  1.00  0.00     0.155 C 
BRANCH  26  27
HETATM   27  N   UNL     1      -7.295   5.159 -31.567  1.00  0.00    -0.365 N 
HETATM   28  H   UNL     1      -6.765   5.842 -32.101  1.00  0.00     0.161 HD
BRANCH  27  29
HETATM   29  C   UNL     1      -6.628   3.963 -31.459  1.00  0.00     0.172 C 
HETATM   30  S   UNL     1      -6.505   3.051 -30.065  1.00  0.00    -0.041 SA
BRANCH  29  31
HETATM   31  N   UNL     1      -5.966   3.536 -32.574  1.00  0.00    -0.333 N 
HETATM   32  H   UNL     1      -6.513   2.901 -33.150  1.00  0.00     0.168 HD
BRANCH  31  33
HETATM   33  C   UNL     1      -4.745   3.957 -33.137  1.00  0.00     0.034 A 
HETATM   34  C   UNL     1      -3.497   3.656 -32.582  1.00  0.00     0.031 A 
HETATM   35  C   UNL     1      -2.326   4.150 -33.165  1.00  0.00     0.026 A 
HETATM   36  C   UNL     1      -2.400   4.952 -34.301  1.00  0.00     0.034 A 
HETATM   37 CL   UNL     1      -0.959   5.558 -35.015  1.00  0.00    -0.084 Cl
HETATM   38  C   UNL     1      -3.638   5.277 -34.850  1.00  0.00     0.026 A 
HETATM   39  C   UNL     1      -4.808   4.788 -34.260  1.00  0.00     0.031 A 
ENDBRANCH  31  33
ENDBRANCH  29  31
ENDBRANCH  27  29
ENDBRANCH  26  27
ENDBRANCH   4  26
TORSDOF 9
ENDMDL
MODEL 8
REMARK VINA RESULT:      -8.4      2.648      3.918
REMARK  9 active torsions:
REMARK  status: ('A' for Active; 'I' for Inactive)
REMARK    1  A    between atoms: C_4  and  C_5 
REMARK    2  A    between atoms: C_7  and  O_8 
REMARK    3  A    between atoms: C_10  and  O_11 
REMARK    4  A    between atoms: C_16  and  C_17 
REMARK    5  A    between atoms: C_20  and  C_21 
REMARK    6  A    between atoms: C_21  and  N_22 
REMARK    7  A    between atoms: N_22  and  C_23 
REMARK    8  A    between atoms: C_23  and  N_24 
REMARK    9  A    between atoms: N_24  and  C_25 
ROOT
HETATM    1  C   UNL     1     -11.181   2.331 -32.722  1.00  0.00     0.067 C 
HETATM    2  C   UNL     1     -11.825   2.257 -34.133  1.00  0.00     0.001 C 
HETATM    3  C   UNL     1     -11.167   3.284 -35.080  1.00  0.00     0.040 C 
HETATM    4  C   UNL     1     -11.406   4.720 -34.581  1.00  0.00     0.206 C 
HETATM    5  N   UNL     1     -12.066   4.621 -33.199  1.00  0.00    -0.065 N 
HETATM    6  H   UNL     1     -12.167   5.569 -32.809  1.00  0.00     0.280 HD
HETATM    7  C   UNL     1     -11.240   3.787 -32.214  1.00  0.00     0.246 C 
HETATM    8  C   UNL     1     -13.312   2.641 -33.990  1.00  0.00     0.033 C 
HETATM    9  C   UNL     1     -13.455   4.020 -33.341  1.00  0.00     0.236 C 
ENDROOT
BRANCH   1  10
HETATM   10  C   UNL     1      -9.802   1.734 -32.702  1.00  0.00     0.038 A 
HETATM   11  N   UNL     1      -8.880   1.991 -31.713  1.00  0.00    -0.277 N 
HETATM   12  C   UNL     1      -9.004   2.887 -30.585  1.00  0.00     0.179 C 
HETATM   13  N   UNL     1      -7.755   1.280 -31.836  1.00  0.00    -0.172 NA
HETATM   14  C   UNL     1      -7.907   0.543 -32.943  1.00  0.00     0.089 A 
HETATM   15  C   UNL     1      -9.165   0.833 -33.539  1.00  0.00     0.061 A 
BRANCH  14  16
HETATM   16  C   UNL     1      -6.886  -0.423 -33.372  1.00  0.00    -0.003 A 
HETATM   17  C   UNL     1      -5.633  -0.450 -32.735  1.00  0.00     0.053 A 
HETATM   18  C   UNL     1      -4.653  -1.381 -33.098  1.00  0.00     0.102 A 
HETATM   19  C   UNL     1      -4.920  -2.305 -34.127  1.00  0.00     0.101 A 
HETATM   20  C   UNL     1      -6.164  -2.282 -34.765  1.00  0.00     0.040 A 
HETATM   21  C   UNL     1      -7.138  -1.348 -34.391  1.00  0.00     0.017 A 
BRANCH  18  22
HETATM   22  O   UNL     1      -3.414  -1.472 -32.515  1.00  0.00    -0.353 OA
HETATM   23  C   UNL     1      -3.074  -0.508 -31.528  1.00  0.00     0.210 C 
ENDBRANCH  18  22
BRANCH  19  24
HETATM   24  O   UNL     1      -3.914  -3.191 -34.419  1.00  0.00    -0.353 OA
HETATM   25  C   UNL     1      -4.085  -4.540 -34.012  1.00  0.00     0.210 C 
ENDBRANCH  19  24
ENDBRANCH  14  16
ENDBRANCH   1  10
BRANCH   4  26
HETATM   26  C   UNL     1     -10.161   5.630 -34.542  1.00  0.00     0.155 C 
BRANCH  26  27
HETATM   27  N   UNL     1      -8.887   4.928 -34.613  1.00  0.00    -0.365 N 
HETATM   28  H   UNL     1      -8.477   4.759 -35.528  1.00  0.00     0.161 HD
BRANCH  27  29
HETATM   29  C   UNL     1      -7.936   4.960 -33.623  1.00  0.00     0.172 C 
HETATM   30  S   UNL     1      -7.883   6.065 -32.372  1.00  0.00    -0.041 SA
BRANCH  29  31
HETATM   31  N   UNL     1      -6.926   4.047 -33.724  1.00  0.00    -0.333 N 
HETATM   32  H   UNL     1      -7.214   3.171 -34.154  1.00  0.00     0.168 HD
BRANCH  31  33
HETATM   33  C   UNL     1      -5.541   4.178 -33.497  1.00  0.00     0.034 A 
HETATM   34  C   UNL     1      -4.871   3.549 -32.443  1.00  0.00     0.031 A 
HETATM   35  C   UNL     1      -3.503   3.765 -32.246  1.00  0.00     0.026 A 
HETATM   36  C   UNL     1      -2.804   4.614 -33.099  1.00  0.00     0.034 A 
HETATM   37 CL   UNL     1      -1.123   4.876 -32.854  1.00  0.00    -0.084 Cl
HETATM   38  C   UNL     1      -3.464   5.262 -34.139  1.00  0.00     0.026 A 
HETATM   39  C   UNL     1      -4.833   5.052 -34.329  1.00  0.00     0.031 A 
ENDBRANCH  31  33
ENDBRANCH  29  31
ENDBRANCH  27  29
ENDBRANCH  26  27
ENDBRANCH   4  26
TORSDOF 9
ENDMDL
MODEL 9
REMARK VINA RESULT:      -8.4      1.982      2.616
REMARK  9 active torsions:
REMARK  status: ('A' for Active; 'I' for Inactive)
REMARK    1  A    between atoms: C_4  and  C_5 
REMARK    2  A    between atoms: C_7  and  O_8 
REMARK    3  A    between atoms: C_10  and  O_11 
REMARK    4  A    between atoms: C_16  and  C_17 
REMARK    5  A    between atoms: C_20  and  C_21 
REMARK    6  A    between atoms: C_21  and  N_22 
REMARK    7  A    between atoms: N_22  and  C_23 
REMARK    8  A    between atoms: C_23  and  N_24 
REMARK    9  A    between atoms: N_24  and  C_25 
ROOT
HETATM    1  C   UNL     1      -7.062   4.865 -31.195  1.00  0.00     0.067 C 
HETATM    2  C   UNL     1      -6.806   5.773 -32.430  1.00  0.00     0.001 C 
HETATM    3  C   UNL     1      -5.353   5.607 -32.928  1.00  0.00     0.040 C 
HETATM    4  C   UNL     1      -4.351   6.062 -31.853  1.00  0.00     0.206 C 
HETATM    5  N   UNL     1      -5.150   6.353 -30.575  1.00  0.00    -0.065 N 
HETATM    6  H   UNL     1      -4.493   6.587 -29.816  1.00  0.00     0.280 HD
HETATM    7  C   UNL     1      -5.989   5.154 -30.124  1.00  0.00     0.246 C 
HETATM    8  C   UNL     1      -6.980   7.238 -31.979  1.00  0.00     0.033 C 
HETATM    9  C   UNL     1      -6.053   7.555 -30.803  1.00  0.00     0.236 C 
ENDROOT
BRANCH   1  10
HETATM   10  C   UNL     1      -7.168   3.416 -31.576  1.00  0.00     0.038 A 
HETATM   11  N   UNL     1      -8.273   2.641 -31.307  1.00  0.00    -0.277 N 
HETATM   12  C   UNL     1      -9.470   3.010 -30.583  1.00  0.00     0.179 C 
HETATM   13  N   UNL     1      -8.199   1.409 -31.820  1.00  0.00    -0.172 NA
HETATM   14  C   UNL     1      -7.010   1.339 -32.431  1.00  0.00     0.089 A 
HETATM   15  C   UNL     1      -6.315   2.568 -32.263  1.00  0.00     0.061 A 
BRANCH  14  16
HETATM   16  C   UNL     1      -6.594   0.141 -33.173  1.00  0.00    -0.003 A 
HETATM   17  C   UNL     1      -5.438  -0.559 -32.786  1.00  0.00     0.053 A 
HETATM   18  C   UNL     1      -5.036  -1.724 -33.452  1.00  0.00     0.102 A 
HETATM   19  C   UNL     1      -5.797  -2.201 -34.536  1.00  0.00     0.101 A 
HETATM   20  C   UNL     1      -6.946  -1.508 -34.926  1.00  0.00     0.040 A 
HETATM   21  C   UNL     1      -7.341  -0.347 -34.252  1.00  0.00     0.017 A 
BRANCH  18  22
HETATM   22  O   UNL     1      -3.927  -2.462 -33.123  1.00  0.00    -0.353 OA
HETATM   23  C   UNL     1      -3.184  -2.068 -31.979  1.00  0.00     0.210 C 
ENDBRANCH  18  22
BRANCH  19  24
HETATM   24  O   UNL     1      -5.344  -3.352 -35.131  1.00  0.00    -0.353 OA
HETATM   25  C   UNL     1      -6.207  -4.480 -35.127  1.00  0.00     0.210 C 
ENDBRANCH  19  24
ENDBRANCH  14  16
ENDBRANCH   1  10
BRANCH   4  26
HETATM   26  C   UNL     1      -3.183   5.094 -31.574  1.00  0.00     0.155 C 
BRANCH  26  27
HETATM   27  N   UNL     1      -2.265   5.529 -30.531  1.00  0.00    -0.365 N 
HETATM   28  H   UNL     1      -2.278   5.041 -29.639  1.00  0.00     0.161 HD
BRANCH  27  29
HETATM   29  C   UNL     1      -1.048   6.118 -30.774  1.00  0.00     0.172 C 
HETATM   30  S   UNL     1      -0.671   7.031 -32.121  1.00  0.00    -0.041 SA
BRANCH  29  31
HETATM   31  N   UNL     1      -0.062   5.871 -29.862  1.00  0.00    -0.333 N 
HETATM   32  H   UNL     1       0.579   5.135 -30.149  1.00  0.00     0.168 HD
BRANCH  31  33
HETATM   33  C   UNL     1       0.310   6.572 -28.698  1.00  0.00     0.034 A 
HETATM   34  C   UNL     1      -0.049   6.166 -27.408  1.00  0.00     0.031 A 
HETATM   35  C   UNL     1       0.310   6.938 -26.298  1.00  0.00     0.026 A 
HETATM   36  C   UNL     1       1.023   8.121 -26.476  1.00  0.00     0.034 A 
HETATM   37 CL   UNL     1       1.463   9.066 -25.110  1.00  0.00    -0.084 Cl
HETATM   38  C   UNL     1       1.367   8.546 -27.757  1.00  0.00     0.026 A 
HETATM   39  C   UNL     1       1.000   7.777 -28.865  1.00  0.00     0.031 A 
ENDBRANCH  31  33
ENDBRANCH  29  31
ENDBRANCH  27  29
ENDBRANCH  26  27
ENDBRANCH   4  26
TORSDOF 9
ENDMDL
MODEL 10
REMARK VINA RESULT:      -8.4      4.815      9.749
REMARK  9 active torsions:
REMARK  status: ('A' for Active; 'I' for Inactive)
REMARK    1  A    between atoms: C_4  and  C_5 
REMARK    2  A    between atoms: C_7  and  O_8 
REMARK    3  A    between atoms: C_10  and  O_11 
REMARK    4  A    between atoms: C_16  and  C_17 
REMARK    5  A    between atoms: C_20  and  C_21 
REMARK    6  A    between atoms: C_21  and  N_22 
REMARK    7  A    between atoms: N_22  and  C_23 
REMARK    8  A    between atoms: C_23  and  N_24 
REMARK    9  A    between atoms: N_24  and  C_25 
ROOT
HETATM    1  C   UNL     1      -4.198   5.649 -32.900  1.00  0.00     0.067 C 
HETATM    2  C   UNL     1      -5.546   6.030 -32.228  1.00  0.00     0.001 C 
HETATM    3  C   UNL     1      -5.802   5.139 -30.993  1.00  0.00     0.040 C 
HETATM    4  C   UNL     1      -5.936   3.662 -31.402  1.00  0.00     0.206 C 
HETATM    5  N   UNL     1      -5.579   3.564 -32.892  1.00  0.00    -0.065 N 
HETATM    6  H   UNL     1      -5.587   2.573 -33.173  1.00  0.00     0.280 HD
HETATM    7  C   UNL     1      -4.191   4.136 -33.199  1.00  0.00     0.246 C 
HETATM    8  C   UNL     1      -6.671   5.752 -33.246  1.00  0.00     0.033 C 
HETATM    9  C   UNL     1      -6.629   4.295 -33.714  1.00  0.00     0.236 C 
ENDROOT
BRANCH   1  10
HETATM   10  C   UNL     1      -3.018   6.116 -32.094  1.00  0.00     0.038 A 
HETATM   11  N   UNL     1      -1.830   6.523 -32.657  1.00  0.00    -0.277 N 
HETATM   12  C   UNL     1      -1.457   6.526 -34.054  1.00  0.00     0.179 C 
HETATM   13  N   UNL     1      -0.951   6.992 -31.767  1.00  0.00    -0.172 NA
HETATM   14  C   UNL     1      -1.545   6.880 -30.572  1.00  0.00     0.089 A 
HETATM   15  C   UNL     1      -2.830   6.293 -30.734  1.00  0.00     0.061 A 
BRANCH  14  16
HETATM   16  C   UNL     1      -0.900   7.359 -29.343  1.00  0.00    -0.003 A 
HETATM   17  C   UNL     1      -1.652   7.498 -28.163  1.00  0.00     0.053 A 
HETATM   18  C   UNL     1      -1.057   7.919 -26.967  1.00  0.00     0.102 A 
HETATM   19  C   UNL     1       0.319   8.217 -26.943  1.00  0.00     0.101 A 
HETATM   20  C   UNL     1       1.071   8.082 -28.113  1.00  0.00     0.040 A 
HETATM   21  C   UNL     1       0.467   7.658 -29.302  1.00  0.00     0.017 A 
BRANCH  18  22
HETATM   22  O   UNL     1      -1.726   8.067 -25.777  1.00  0.00    -0.353 OA
HETATM   23  C   UNL     1      -3.134   7.880 -25.782  1.00  0.00     0.210 C 
ENDBRANCH  18  22
BRANCH  19  24
HETATM   24  O   UNL     1       0.829   8.614 -25.733  1.00  0.00    -0.353 OA
HETATM   25  C   UNL     1       2.194   8.327 -25.467  1.00  0.00     0.210 C 
ENDBRANCH  19  24
ENDBRANCH  14  16
ENDBRANCH   1  10
BRANCH   4  26
HETATM   26  C   UNL     1      -5.117   2.659 -30.564  1.00  0.00     0.155 C 
BRANCH  26  27
HETATM   27  N   UNL     1      -5.336   1.259 -30.901  1.00  0.00    -0.365 N 
HETATM   28  H   UNL     1      -6.291   0.921 -30.969  1.00  0.00     0.161 HD
BRANCH  27  29
HETATM   29  C   UNL     1      -4.471   0.507 -31.658  1.00  0.00     0.172 C 
HETATM   30  S   UNL     1      -2.965  -0.019 -31.164  1.00  0.00    -0.041 SA
BRANCH  29  31
HETATM   31  N   UNL     1      -4.867   0.231 -32.936  1.00  0.00    -0.333 N 
HETATM   32  H   UNL     1      -4.749   1.015 -33.573  1.00  0.00     0.168 HD
BRANCH  31  33
HETATM   33  C   UNL     1      -5.238  -0.986 -33.542  1.00  0.00     0.034 A 
HETATM   34  C   UNL     1      -4.315  -1.951 -33.957  1.00  0.00     0.031 A 
HETATM   35  C   UNL     1      -4.749  -3.115 -34.600  1.00  0.00     0.026 A 
HETATM   36  C   UNL     1      -6.107  -3.312 -34.835  1.00  0.00     0.034 A 
HETATM   37 CL   UNL     1      -6.638  -4.744 -35.625  1.00  0.00    -0.084 Cl
HETATM   38  C   UNL     1      -7.034  -2.349 -34.445  1.00  0.00     0.026 A 
HETATM   39  C   UNL     1      -6.596  -1.183 -33.810  1.00  0.00     0.031 A 
ENDBRANCH  31  33
ENDBRANCH  29  31
ENDBRANCH  27  29
ENDBRANCH  26  27
ENDBRANCH   4  26
TORSDOF 9
ENDMDL
