MODEL 1
REMARK VINA RESULT:      -8.7      0.000      0.000
REMARK  6 active torsions:
REMARK  status: ('A' for Active; 'I' for Inactive)
REMARK    1  A    between atoms: C_4  and  C_5 
REMARK    2  A    between atoms: C_5  and  N_6 
REMARK    3  A    between atoms: C_5  and  C_22 
REMARK    4  A    between atoms: N_6  and  C_9 
REMARK    5  A    between atoms: C_9  and  C_10 
REMARK    6  A    between atoms: C_13  and  C_14 
REMARK       I    between atoms: C_22  and  N_23 
ROOT
HETATM    1  N   UNL     1      -3.672   4.413 -32.806  1.00  0.00    -0.054 N 
HETATM    2  H   UNL     1      -4.059   5.325 -32.539  1.00  0.00     0.278 HD
HETATM    3  H   UNL     1      -4.216   4.082 -33.613  1.00  0.00     0.278 HD
ENDROOT
BRANCH   1   4
HETATM    4  C   UNL     1      -2.251   4.569 -33.297  1.00  0.00     0.310 C 
BRANCH   4   5
HETATM    5  C   UNL     1      -1.479   5.481 -32.366  1.00  0.00    -0.019 A 
HETATM    6  C   UNL     1      -0.372   4.990 -31.655  1.00  0.00     0.010 A 
HETATM    7  C   UNL     1       0.337   5.823 -30.787  1.00  0.00     0.001 A 
HETATM    8  C   UNL     1      -0.056   7.149 -30.612  1.00  0.00     0.000 A 
HETATM    9  C   UNL     1      -1.157   7.646 -31.303  1.00  0.00     0.001 A 
HETATM   10  C   UNL     1      -1.869   6.819 -32.173  1.00  0.00     0.010 A 
ENDBRANCH   4   5
BRANCH   4  11
HETATM   11  C   UNL     1      -2.243   5.104 -34.750  1.00  0.00     0.251 C 
HETATM   12  N   UNL     1      -3.439   5.426 -35.316  1.00  0.00    -0.368 N 
HETATM   13  H   UNL     1      -4.324   5.052 -34.992  1.00  0.00     0.159 HD
HETATM   14  H   UNL     1      -3.421   5.714 -36.292  1.00  0.00     0.159 HD
HETATM   15  O   UNL     1      -1.181   5.270 -35.349  1.00  0.00    -0.271 OA
ENDBRANCH   4  11
ENDBRANCH   1   4
BRANCH   1  16
HETATM   16  C   UNL     1      -3.858   3.431 -31.702  1.00  0.00     0.272 C 
BRANCH  16  17
HETATM   17  C   UNL     1      -4.240   2.068 -32.212  1.00  0.00    -0.033 A 
HETATM   18  C   UNL     1      -5.460   1.853 -32.866  1.00  0.00     0.010 A 
HETATM   19  C   UNL     1      -5.789   0.587 -33.365  1.00  0.00     0.013 A 
HETATM   20  C   UNL     1      -4.905  -0.498 -33.253  1.00  0.00    -0.025 A 
HETATM   21  C   UNL     1      -3.682  -0.269 -32.602  1.00  0.00     0.013 A 
HETATM   22  C   UNL     1      -3.352   0.991 -32.088  1.00  0.00     0.010 A 
BRANCH  20  23
HETATM   23  C   UNL     1      -5.237  -1.820 -33.818  1.00  0.00    -0.008 A 
HETATM   24  C   UNL     1      -4.298  -2.854 -33.884  1.00  0.00     0.128 A 
HETATM   25  N   UNL     1      -4.531  -4.089 -34.389  1.00  0.00    -0.272 NA
HETATM   26  C   UNL     1      -5.774  -4.329 -34.852  1.00  0.00     0.116 A 
HETATM   27  C   UNL     1      -6.789  -3.389 -34.835  1.00  0.00     0.020 A 
HETATM   28  C   UNL     1      -6.512  -2.124 -34.315  1.00  0.00     0.015 A 
ENDBRANCH  20  23
ENDBRANCH  16  17
ENDBRANCH   1  16
TORSDOF 6
ENDMDL
MODEL 2
REMARK VINA RESULT:      -8.6      4.888      7.472
REMARK  6 active torsions:
REMARK  status: ('A' for Active; 'I' for Inactive)
REMARK    1  A    between atoms: C_4  and  C_5 
REMARK    2  A    between atoms: C_5  and  N_6 
REMARK    3  A    between atoms: C_5  and  C_22 
REMARK    4  A    between atoms: N_6  and  C_9 
REMARK    5  A    between atoms: C_9  and  C_10 
REMARK    6  A    between atoms: C_13  and  C_14 
REMARK       I    between atoms: C_22  and  N_23 
ROOT
HETATM    1  N   UNL     1      -8.633   3.403 -33.887  1.00  0.00    -0.054 N 
HETATM    2  H   UNL     1      -9.016   3.394 -34.839  1.00  0.00     0.278 HD
HETATM    3  H   UNL     1      -8.787   4.347 -33.511  1.00  0.00     0.278 HD
ENDROOT
BRANCH   1   4
HETATM    4  C   UNL     1      -9.417   2.467 -32.996  1.00  0.00     0.310 C 
BRANCH   4   5
HETATM    5  C   UNL     1     -10.707   2.063 -33.680  1.00  0.00    -0.019 A 
HETATM    6  C   UNL     1     -11.265   2.884 -34.673  1.00  0.00     0.010 A 
HETATM    7  C   UNL     1     -12.460   2.522 -35.300  1.00  0.00     0.001 A 
HETATM    8  C   UNL     1     -13.113   1.346 -34.937  1.00  0.00     0.000 A 
HETATM    9  C   UNL     1     -12.576   0.528 -33.948  1.00  0.00     0.001 A 
HETATM   10  C   UNL     1     -11.382   0.882 -33.319  1.00  0.00     0.010 A 
ENDBRANCH   4   5
BRANCH   4  11
HETATM   11  C   UNL     1      -9.688   3.135 -31.626  1.00  0.00     0.251 C 
HETATM   12  N   UNL     1      -9.535   2.375 -30.506  1.00  0.00    -0.368 N 
HETATM   13  H   UNL     1      -9.574   1.361 -30.514  1.00  0.00     0.159 HD
HETATM   14  H   UNL     1      -9.779   2.811 -29.619  1.00  0.00     0.159 HD
HETATM   15  O   UNL     1      -9.988   4.326 -31.559  1.00  0.00    -0.271 OA
ENDBRANCH   4  11
ENDBRANCH   1   4
BRANCH   1  16
HETATM   16  C   UNL     1      -7.163   3.165 -33.920  1.00  0.00     0.272 C 
BRANCH  16  17
HETATM   17  C   UNL     1      -6.826   1.702 -34.016  1.00  0.00    -0.033 A 
HETATM   18  C   UNL     1      -7.418   0.883 -34.987  1.00  0.00     0.010 A 
HETATM   19  C   UNL     1      -7.070  -0.470 -35.087  1.00  0.00     0.013 A 
HETATM   20  C   UNL     1      -6.106  -1.044 -34.242  1.00  0.00    -0.025 A 
HETATM   21  C   UNL     1      -5.515  -0.212 -33.278  1.00  0.00     0.013 A 
HETATM   22  C   UNL     1      -5.868   1.139 -33.163  1.00  0.00     0.010 A 
BRANCH  20  23
HETATM   23  C   UNL     1      -5.712  -2.459 -34.379  1.00  0.00    -0.008 A 
HETATM   24  C   UNL     1      -4.434  -2.908 -34.034  1.00  0.00     0.128 A 
HETATM   25  N   UNL     1      -4.003  -4.189 -34.133  1.00  0.00    -0.272 NA
HETATM   26  C   UNL     1      -4.890  -5.092 -34.594  1.00  0.00     0.116 A 
HETATM   27  C   UNL     1      -6.185  -4.770 -34.961  1.00  0.00     0.020 A 
HETATM   28  C   UNL     1      -6.594  -3.440 -34.854  1.00  0.00     0.015 A 
ENDBRANCH  20  23
ENDBRANCH  16  17
ENDBRANCH   1  16
TORSDOF 6
ENDMDL
MODEL 3
REMARK VINA RESULT:      -8.4      5.169      8.254
REMARK  6 active torsions:
REMARK  status: ('A' for Active; 'I' for Inactive)
REMARK    1  A    between atoms: C_4  and  C_5 
REMARK    2  A    between atoms: C_5  and  N_6 
REMARK    3  A    between atoms: C_5  and  C_22 
REMARK    4  A    between atoms: N_6  and  C_9 
REMARK    5  A    between atoms: C_9  and  C_10 
REMARK    6  A    between atoms: C_13  and  C_14 
REMARK       I    between atoms: C_22  and  N_23 
ROOT
HETATM    1  N   UNL     1      -5.252  -0.792 -32.101  1.00  0.00    -0.054 N 
HETATM    2  H   UNL     1      -6.094  -1.369 -31.997  1.00  0.00     0.278 HD
HETATM    3  H   UNL     1      -4.843  -0.688 -31.164  1.00  0.00     0.278 HD
ENDROOT
BRANCH   1   4
HETATM    4  C   UNL     1      -4.217  -1.520 -32.928  1.00  0.00     0.310 C 
BRANCH   4   5
HETATM    5  C   UNL     1      -4.873  -2.640 -33.708  1.00  0.00    -0.019 A 
HETATM    6  C   UNL     1      -4.185  -3.846 -33.921  1.00  0.00     0.010 A 
HETATM    7  C   UNL     1      -4.781  -4.880 -34.649  1.00  0.00     0.001 A 
HETATM    8  C   UNL     1      -6.060  -4.718 -35.178  1.00  0.00     0.000 A 
HETATM    9  C   UNL     1      -6.748  -3.524 -34.982  1.00  0.00     0.001 A 
HETATM   10  C   UNL     1      -6.160  -2.488 -34.255  1.00  0.00     0.010 A 
ENDBRANCH   4   5
BRANCH   4  11
HETATM   11  C   UNL     1      -3.083  -2.051 -32.018  1.00  0.00     0.251 C 
HETATM   12  N   UNL     1      -2.117  -1.175 -31.626  1.00  0.00    -0.368 N 
HETATM   13  H   UNL     1      -1.910  -0.317 -32.128  1.00  0.00     0.159 HD
HETATM   14  H   UNL     1      -1.346  -1.555 -31.083  1.00  0.00     0.159 HD
HETATM   15  O   UNL     1      -3.088  -3.219 -31.630  1.00  0.00    -0.271 OA
ENDBRANCH   4  11
ENDBRANCH   1   4
BRANCH   1  16
HETATM   16  C   UNL     1      -5.615   0.566 -32.590  1.00  0.00     0.272 C 
BRANCH  16  17
HETATM   17  C   UNL     1      -7.079   0.681 -32.917  1.00  0.00    -0.033 A 
HETATM   18  C   UNL     1      -7.510   1.014 -34.208  1.00  0.00     0.010 A 
HETATM   19  C   UNL     1      -8.875   1.085 -34.508  1.00  0.00     0.013 A 
HETATM   20  C   UNL     1      -9.855   0.803 -33.542  1.00  0.00    -0.025 A 
HETATM   21  C   UNL     1      -9.411   0.464 -32.254  1.00  0.00     0.013 A 
HETATM   22  C   UNL     1      -8.046   0.405 -31.942  1.00  0.00     0.010 A 
BRANCH  20  23
HETATM   23  C   UNL     1     -11.292   0.837 -33.873  1.00  0.00    -0.008 A 
HETATM   24  C   UNL     1     -11.830   1.795 -34.737  1.00  0.00     0.128 A 
HETATM   25  N   UNL     1     -13.136   1.886 -35.085  1.00  0.00    -0.272 NA
HETATM   26  C   UNL     1     -13.969   0.968 -34.557  1.00  0.00     0.116 A 
HETATM   27  C   UNL     1     -13.554  -0.032 -33.696  1.00  0.00     0.020 A 
HETATM   28  C   UNL     1     -12.203  -0.093 -33.351  1.00  0.00     0.015 A 
ENDBRANCH  20  23
ENDBRANCH  16  17
ENDBRANCH   1  16
TORSDOF 6
ENDMDL
MODEL 4
REMARK VINA RESULT:      -8.4      2.134      2.767
REMARK  6 active torsions:
REMARK  status: ('A' for Active; 'I' for Inactive)
REMARK    1  A    between atoms: C_4  and  C_5 
REMARK    2  A    between atoms: C_5  and  N_6 
REMARK    3  A    between atoms: C_5  and  C_22 
REMARK    4  A    between atoms: N_6  and  C_9 
REMARK    5  A    between atoms: C_9  and  C_10 
REMARK    6  A    between atoms: C_13  and  C_14 
REMARK       I    between atoms: C_22  and  N_23 
ROOT
HETATM    1  N   UNL     1      -5.140   4.097 -33.739  1.00  0.00    -0.054 N 
HETATM    2  H   UNL     1      -5.048   4.443 -34.700  1.00  0.00     0.278 HD
HETATM    3  H   UNL     1      -4.382   3.417 -33.593  1.00  0.00     0.278 HD
ENDROOT
BRANCH   1   4
HETATM    4  C   UNL     1      -4.891   5.215 -32.752  1.00  0.00     0.310 C 
BRANCH   4   5
HETATM    5  C   UNL     1      -3.569   5.887 -33.056  1.00  0.00    -0.019 A 
HETATM    6  C   UNL     1      -2.697   5.331 -34.006  1.00  0.00     0.010 A 
HETATM    7  C   UNL     1      -1.471   5.941 -34.283  1.00  0.00     0.001 A 
HETATM    8  C   UNL     1      -1.099   7.103 -33.609  1.00  0.00     0.000 A 
HETATM    9  C   UNL     1      -1.949   7.659 -32.658  1.00  0.00     0.001 A 
HETATM   10  C   UNL     1      -3.176   7.056 -32.378  1.00  0.00     0.010 A 
ENDBRANCH   4   5
BRANCH   4  11
HETATM   11  C   UNL     1      -4.930   4.668 -31.304  1.00  0.00     0.251 C 
HETATM   12  N   UNL     1      -3.947   3.806 -30.922  1.00  0.00    -0.368 N 
HETATM   13  H   UNL     1      -3.400   3.262 -31.581  1.00  0.00     0.159 HD
HETATM   14  H   UNL     1      -4.024   3.407 -29.989  1.00  0.00     0.159 HD
HETATM   15  O   UNL     1      -5.800   5.041 -30.518  1.00  0.00    -0.271 OA
ENDBRANCH   4  11
ENDBRANCH   1   4
BRANCH   1  16
HETATM   16  C   UNL     1      -6.432   3.377 -33.571  1.00  0.00     0.272 C 
BRANCH  16  17
HETATM   17  C   UNL     1      -6.279   1.889 -33.736  1.00  0.00    -0.033 A 
HETATM   18  C   UNL     1      -7.028   1.185 -34.689  1.00  0.00     0.010 A 
HETATM   19  C   UNL     1      -6.853  -0.194 -34.856  1.00  0.00     0.013 A 
HETATM   20  C   UNL     1      -5.911  -0.912 -34.101  1.00  0.00    -0.025 A 
HETATM   21  C   UNL     1      -5.162  -0.194 -33.155  1.00  0.00     0.013 A 
HETATM   22  C   UNL     1      -5.342   1.183 -32.972  1.00  0.00     0.010 A 
BRANCH  20  23
HETATM   23  C   UNL     1      -5.700  -2.357 -34.310  1.00  0.00    -0.008 A 
HETATM   24  C   UNL     1      -4.472  -2.971 -34.046  1.00  0.00     0.128 A 
HETATM   25  N   UNL     1      -4.206  -4.289 -34.214  1.00  0.00    -0.272 NA
HETATM   26  C   UNL     1      -5.217  -5.057 -34.664  1.00  0.00     0.116 A 
HETATM   27  C   UNL     1      -6.477  -4.566 -34.955  1.00  0.00     0.020 A 
HETATM   28  C   UNL     1      -6.716  -3.203 -34.778  1.00  0.00     0.015 A 
ENDBRANCH  20  23
ENDBRANCH  16  17
ENDBRANCH   1  16
TORSDOF 6
ENDMDL
MODEL 5
REMARK VINA RESULT:      -8.2      2.519      3.620
REMARK  6 active torsions:
REMARK  status: ('A' for Active; 'I' for Inactive)
REMARK    1  A    between atoms: C_4  and  C_5 
REMARK    2  A    between atoms: C_5  and  N_6 
REMARK    3  A    between atoms: C_5  and  C_22 
REMARK    4  A    between atoms: N_6  and  C_9 
REMARK    5  A    between atoms: C_9  and  C_10 
REMARK    6  A    between atoms: C_13  and  C_14 
REMARK       I    between atoms: C_22  and  N_23 
ROOT
HETATM    1  N   UNL     1      -6.500   3.674 -32.862  1.00  0.00    -0.054 N 
HETATM    2  H   UNL     1      -5.736   3.090 -32.504  1.00  0.00     0.278 HD
HETATM    3  H   UNL     1      -7.127   3.865 -32.069  1.00  0.00     0.278 HD
ENDROOT
BRANCH   1   4
HETATM    4  C   UNL     1      -5.970   5.018 -33.306  1.00  0.00     0.310 C 
BRANCH   4   5
HETATM    5  C   UNL     1      -4.470   4.942 -33.505  1.00  0.00    -0.019 A 
HETATM    6  C   UNL     1      -3.898   5.367 -34.715  1.00  0.00     0.010 A 
HETATM    7  C   UNL     1      -2.517   5.289 -34.909  1.00  0.00     0.001 A 
HETATM    8  C   UNL     1      -1.696   4.780 -33.905  1.00  0.00     0.000 A 
HETATM    9  C   UNL     1      -2.251   4.347 -32.704  1.00  0.00     0.001 A 
HETATM   10  C   UNL     1      -3.630   4.423 -32.503  1.00  0.00     0.010 A 
ENDBRANCH   4   5
BRANCH   4  11
HETATM   11  C   UNL     1      -6.350   6.110 -32.275  1.00  0.00     0.251 C 
HETATM   12  N   UNL     1      -7.034   7.199 -32.723  1.00  0.00    -0.368 N 
HETATM   13  H   UNL     1      -7.029   7.495 -33.693  1.00  0.00     0.159 HD
HETATM   14  H   UNL     1      -7.219   7.935 -32.046  1.00  0.00     0.159 HD
HETATM   15  O   UNL     1      -6.077   5.967 -31.084  1.00  0.00    -0.271 OA
ENDBRANCH   4  11
ENDBRANCH   1   4
BRANCH   1  16
HETATM   16  C   UNL     1      -7.282   2.930 -33.887  1.00  0.00     0.272 C 
BRANCH  16  17
HETATM   17  C   UNL     1      -6.815   1.507 -34.035  1.00  0.00    -0.033 A 
HETATM   18  C   UNL     1      -5.700   1.032 -33.331  1.00  0.00     0.010 A 
HETATM   19  C   UNL     1      -5.296  -0.302 -33.452  1.00  0.00     0.013 A 
HETATM   20  C   UNL     1      -6.001  -1.213 -34.257  1.00  0.00    -0.025 A 
HETATM   21  C   UNL     1      -7.120  -0.727 -34.951  1.00  0.00     0.013 A 
HETATM   22  C   UNL     1      -7.522   0.610 -34.846  1.00  0.00     0.010 A 
BRANCH  20  23
HETATM   23  C   UNL     1      -5.597  -2.629 -34.348  1.00  0.00    -0.008 A 
HETATM   24  C   UNL     1      -6.451  -3.611 -34.857  1.00  0.00     0.128 A 
HETATM   25  N   UNL     1      -6.148  -4.927 -34.971  1.00  0.00    -0.272 NA
HETATM   26  C   UNL     1      -4.919  -5.303 -34.564  1.00  0.00     0.116 A 
HETATM   27  C   UNL     1      -3.985  -4.422 -34.048  1.00  0.00     0.020 A 
HETATM   28  C   UNL     1      -4.332  -3.075 -33.938  1.00  0.00     0.015 A 
ENDBRANCH  20  23
ENDBRANCH  16  17
ENDBRANCH   1  16
TORSDOF 6
ENDMDL
MODEL 6
REMARK VINA RESULT:      -8.2      4.528      6.587
REMARK  6 active torsions:
REMARK  status: ('A' for Active; 'I' for Inactive)
REMARK    1  A    between atoms: C_4  and  C_5 
REMARK    2  A    between atoms: C_5  and  N_6 
REMARK    3  A    between atoms: C_5  and  C_22 
REMARK    4  A    between atoms: N_6  and  C_9 
REMARK    5  A    between atoms: C_9  and  C_10 
REMARK    6  A    between atoms: C_13  and  C_14 
REMARK       I    between atoms: C_22  and  N_23 
ROOT
HETATM    1  N   UNL     1      -7.592   3.985 -30.970  1.00  0.00    -0.054 N 
HETATM    2  H   UNL     1      -7.524   4.266 -31.955  1.00  0.00     0.278 HD
HETATM    3  H   UNL     1      -7.653   4.850 -30.416  1.00  0.00     0.278 HD
ENDROOT
BRANCH   1   4
HETATM    4  C   UNL     1      -8.885   3.242 -30.725  1.00  0.00     0.310 C 
BRANCH   4   5
HETATM    5  C   UNL     1      -9.253   2.427 -31.948  1.00  0.00    -0.019 A 
HETATM    6  C   UNL     1      -9.407   3.057 -33.193  1.00  0.00     0.010 A 
HETATM    7  C   UNL     1      -9.757   2.313 -34.322  1.00  0.00     0.001 A 
HETATM    8  C   UNL     1      -9.964   0.939 -34.220  1.00  0.00     0.000 A 
HETATM    9  C   UNL     1      -9.824   0.304 -32.989  1.00  0.00     0.001 A 
HETATM   10  C   UNL     1      -9.473   1.041 -31.857  1.00  0.00     0.010 A 
ENDBRANCH   4   5
BRANCH   4  11
HETATM   11  C   UNL     1     -10.010   4.236 -30.347  1.00  0.00     0.251 C 
HETATM   12  N   UNL     1     -11.239   3.727 -30.057  1.00  0.00    -0.368 N 
HETATM   13  H   UNL     1     -11.549   2.814 -30.373  1.00  0.00     0.159 HD
HETATM   14  H   UNL     1     -11.982   4.397 -29.874  1.00  0.00     0.159 HD
HETATM   15  O   UNL     1      -9.779   5.442 -30.270  1.00  0.00    -0.271 OA
ENDBRANCH   4  11
ENDBRANCH   1   4
BRANCH   1  16
HETATM   16  C   UNL     1      -6.357   3.268 -30.552  1.00  0.00     0.272 C 
BRANCH  16  17
HETATM   17  C   UNL     1      -6.152   1.992 -31.323  1.00  0.00    -0.033 A 
HETATM   18  C   UNL     1      -6.178   0.746 -30.684  1.00  0.00     0.010 A 
HETATM   19  C   UNL     1      -6.019  -0.436 -31.417  1.00  0.00     0.013 A 
HETATM   20  C   UNL     1      -5.854  -0.418 -32.812  1.00  0.00    -0.025 A 
HETATM   21  C   UNL     1      -5.837   0.837 -33.442  1.00  0.00     0.013 A 
HETATM   22  C   UNL     1      -5.981   2.024 -32.713  1.00  0.00     0.010 A 
BRANCH  20  23
HETATM   23  C   UNL     1      -5.731  -1.668 -33.587  1.00  0.00    -0.008 A 
HETATM   24  C   UNL     1      -4.507  -2.324 -33.741  1.00  0.00     0.128 A 
HETATM   25  N   UNL     1      -4.319  -3.472 -34.436  1.00  0.00    -0.272 NA
HETATM   26  C   UNL     1      -5.409  -4.017 -35.011  1.00  0.00     0.116 A 
HETATM   27  C   UNL     1      -6.674  -3.463 -34.923  1.00  0.00     0.020 A 
HETATM   28  C   UNL     1      -6.831  -2.277 -34.206  1.00  0.00     0.015 A 
ENDBRANCH  20  23
ENDBRANCH  16  17
ENDBRANCH   1  16
TORSDOF 6
ENDMDL
MODEL 7
REMARK VINA RESULT:      -8.0      5.714      8.956
REMARK  6 active torsions:
REMARK  status: ('A' for Active; 'I' for Inactive)
REMARK    1  A    between atoms: C_4  and  C_5 
REMARK    2  A    between atoms: C_5  and  N_6 
REMARK    3  A    between atoms: C_5  and  C_22 
REMARK    4  A    between atoms: N_6  and  C_9 
REMARK    5  A    between atoms: C_9  and  C_10 
REMARK    6  A    between atoms: C_13  and  C_14 
REMARK       I    between atoms: C_22  and  N_23 
ROOT
HETATM    1  N   UNL     1      -6.884   0.101 -34.741  1.00  0.00    -0.054 N 
HETATM    2  H   UNL     1      -6.739   0.101 -35.756  1.00  0.00     0.278 HD
HETATM    3  H   UNL     1      -7.650  -0.557 -34.548  1.00  0.00     0.278 HD
ENDROOT
BRANCH   1   4
HETATM    4  C   UNL     1      -5.668  -0.457 -34.037  1.00  0.00     0.310 C 
BRANCH   4   5
HETATM    5  C   UNL     1      -5.579  -1.951 -34.265  1.00  0.00    -0.019 A 
HETATM    6  C   UNL     1      -6.714  -2.670 -34.674  1.00  0.00     0.010 A 
HETATM    7  C   UNL     1      -6.640  -4.050 -34.877  1.00  0.00     0.001 A 
HETATM    8  C   UNL     1      -5.441  -4.727 -34.665  1.00  0.00     0.000 A 
HETATM    9  C   UNL     1      -4.311  -4.028 -34.250  1.00  0.00     0.001 A 
HETATM   10  C   UNL     1      -4.377  -2.649 -34.047  1.00  0.00     0.010 A 
ENDBRANCH   4   5
BRANCH   4  11
HETATM   11  C   UNL     1      -5.722  -0.117 -32.527  1.00  0.00     0.251 C 
HETATM   12  N   UNL     1      -4.775   0.727 -32.030  1.00  0.00    -0.368 N 
HETATM   13  H   UNL     1      -3.881   0.886 -32.483  1.00  0.00     0.159 HD
HETATM   14  H   UNL     1      -4.786   0.889 -31.026  1.00  0.00     0.159 HD
HETATM   15  O   UNL     1      -6.621  -0.564 -31.817  1.00  0.00    -0.271 OA
ENDBRANCH   4  11
ENDBRANCH   1   4
BRANCH   1  16
HETATM   16  C   UNL     1      -7.321   1.448 -34.283  1.00  0.00     0.272 C 
BRANCH  16  17
HETATM   17  C   UNL     1      -8.809   1.525 -34.079  1.00  0.00    -0.033 A 
HETATM   18  C   UNL     1      -9.531   0.430 -33.584  1.00  0.00     0.010 A 
HETATM   19  C   UNL     1     -10.911   0.525 -33.368  1.00  0.00     0.013 A 
HETATM   20  C   UNL     1     -11.613   1.717 -33.614  1.00  0.00    -0.025 A 
HETATM   21  C   UNL     1     -10.877   2.808 -34.102  1.00  0.00     0.013 A 
HETATM   22  C   UNL     1      -9.499   2.717 -34.334  1.00  0.00     0.010 A 
BRANCH  20  23
HETATM   23  C   UNL     1     -13.059   1.825 -33.344  1.00  0.00    -0.008 A 
HETATM   24  C   UNL     1     -13.998   1.034 -34.012  1.00  0.00     0.128 A 
HETATM   25  N   UNL     1     -15.338   1.080 -33.816  1.00  0.00    -0.272 NA
HETATM   26  C   UNL     1     -15.786   1.955 -32.895  1.00  0.00     0.116 A 
HETATM   27  C   UNL     1     -14.954   2.786 -32.165  1.00  0.00     0.020 A 
HETATM   28  C   UNL     1     -13.580   2.719 -32.397  1.00  0.00     0.015 A 
ENDBRANCH  20  23
ENDBRANCH  16  17
ENDBRANCH   1  16
TORSDOF 6
ENDMDL
MODEL 8
REMARK VINA RESULT:      -8.0      2.633      8.491
REMARK  6 active torsions:
REMARK  status: ('A' for Active; 'I' for Inactive)
REMARK    1  A    between atoms: C_4  and  C_5 
REMARK    2  A    between atoms: C_5  and  N_6 
REMARK    3  A    between atoms: C_5  and  C_22 
REMARK    4  A    between atoms: N_6  and  C_9 
REMARK    5  A    between atoms: C_9  and  C_10 
REMARK    6  A    between atoms: C_13  and  C_14 
REMARK       I    between atoms: C_22  and  N_23 
ROOT
HETATM    1  N   UNL     1      -6.805   0.032 -32.537  1.00  0.00    -0.054 N 
HETATM    2  H   UNL     1      -6.935  -0.442 -31.636  1.00  0.00     0.278 HD
HETATM    3  H   UNL     1      -5.797   0.020 -32.738  1.00  0.00     0.278 HD
ENDROOT
BRANCH   1   4
HETATM    4  C   UNL     1      -7.461  -0.757 -33.646  1.00  0.00     0.310 C 
BRANCH   4   5
HETATM    5  C   UNL     1      -6.581  -1.925 -34.040  1.00  0.00    -0.019 A 
HETATM    6  C   UNL     1      -7.154  -3.085 -34.587  1.00  0.00     0.010 A 
HETATM    7  C   UNL     1      -6.349  -4.170 -34.942  1.00  0.00     0.001 A 
HETATM    8  C   UNL     1      -4.970  -4.113 -34.747  1.00  0.00     0.000 A 
HETATM    9  C   UNL     1      -4.392  -2.974 -34.196  1.00  0.00     0.001 A 
HETATM   10  C   UNL     1      -5.190  -1.886 -33.840  1.00  0.00     0.010 A 
ENDBRANCH   4   5
BRANCH   4  11
HETATM   11  C   UNL     1      -7.756   0.164 -34.855  1.00  0.00     0.251 C 
HETATM   12  N   UNL     1      -9.003   0.700 -34.959  1.00  0.00    -0.368 N 
HETATM   13  H   UNL     1      -9.817   0.301 -34.504  1.00  0.00     0.159 HD
HETATM   14  H   UNL     1      -9.198   1.250 -35.792  1.00  0.00     0.159 HD
HETATM   15  O   UNL     1      -6.871   0.432 -35.667  1.00  0.00    -0.271 OA
ENDBRANCH   4  11
ENDBRANCH   1   4
BRANCH   1  16
HETATM   16  C   UNL     1      -7.227   1.456 -32.434  1.00  0.00     0.272 C 
BRANCH  16  17
HETATM   17  C   UNL     1      -6.076   2.406 -32.620  1.00  0.00    -0.033 A 
HETATM   18  C   UNL     1      -6.117   3.416 -33.590  1.00  0.00     0.010 A 
HETATM   19  C   UNL     1      -5.053   4.315 -33.731  1.00  0.00     0.013 A 
HETATM   20  C   UNL     1      -3.925   4.253 -32.895  1.00  0.00    -0.025 A 
HETATM   21  C   UNL     1      -3.899   3.241 -31.922  1.00  0.00     0.013 A 
HETATM   22  C   UNL     1      -4.953   2.330 -31.785  1.00  0.00     0.010 A 
BRANCH  20  23
HETATM   23  C   UNL     1      -2.825   5.229 -33.018  1.00  0.00    -0.008 A 
HETATM   24  C   UNL     1      -2.834   6.235 -33.988  1.00  0.00     0.128 A 
HETATM   25  N   UNL     1      -1.861   7.163 -34.159  1.00  0.00    -0.272 NA
HETATM   26  C   UNL     1      -0.813   7.104 -33.314  1.00  0.00     0.116 A 
HETATM   27  C   UNL     1      -0.695   6.158 -32.311  1.00  0.00     0.020 A 
HETATM   28  C   UNL     1      -1.711   5.212 -32.167  1.00  0.00     0.015 A 
ENDBRANCH  20  23
ENDBRANCH  16  17
ENDBRANCH   1  16
TORSDOF 6
ENDMDL
MODEL 9
REMARK VINA RESULT:      -8.0      5.685      8.238
REMARK  6 active torsions:
REMARK  status: ('A' for Active; 'I' for Inactive)
REMARK    1  A    between atoms: C_4  and  C_5 
REMARK    2  A    between atoms: C_5  and  N_6 
REMARK    3  A    between atoms: C_5  and  C_22 
REMARK    4  A    between atoms: N_6  and  C_9 
REMARK    5  A    between atoms: C_9  and  C_10 
REMARK    6  A    between atoms: C_13  and  C_14 
REMARK       I    between atoms: C_22  and  N_23 
ROOT
HETATM    1  N   UNL     1      -9.868   2.594 -34.628  1.00  0.00    -0.054 N 
HETATM    2  H   UNL     1     -10.193   1.653 -34.876  1.00  0.00     0.278 HD
HETATM    3  H   UNL     1      -9.529   3.031 -35.495  1.00  0.00     0.278 HD
ENDROOT
BRANCH   1   4
HETATM    4  C   UNL     1     -11.027   3.444 -34.160  1.00  0.00     0.310 C 
BRANCH   4   5
HETATM    5  C   UNL     1     -12.243   2.573 -33.921  1.00  0.00    -0.019 A 
HETATM    6  C   UNL     1     -12.449   1.423 -34.700  1.00  0.00     0.010 A 
HETATM    7  C   UNL     1     -13.574   0.621 -34.491  1.00  0.00     0.001 A 
HETATM    8  C   UNL     1     -14.506   0.962 -33.513  1.00  0.00     0.000 A 
HETATM    9  C   UNL     1     -14.319   2.104 -32.741  1.00  0.00     0.001 A 
HETATM   10  C   UNL     1     -13.196   2.909 -32.942  1.00  0.00     0.010 A 
ENDBRANCH   4   5
BRANCH   4  11
HETATM   11  C   UNL     1     -11.323   4.559 -35.191  1.00  0.00     0.251 C 
HETATM   12  N   UNL     1     -12.605   4.696 -35.632  1.00  0.00    -0.368 N 
HETATM   13  H   UNL     1     -13.288   3.948 -35.588  1.00  0.00     0.159 HD
HETATM   14  H   UNL     1     -12.769   5.390 -36.357  1.00  0.00     0.159 HD
HETATM   15  O   UNL     1     -10.431   5.322 -35.562  1.00  0.00    -0.271 OA
ENDBRANCH   4  11
ENDBRANCH   1   4
BRANCH   1  16
HETATM   16  C   UNL     1      -8.719   2.511 -33.685  1.00  0.00     0.272 C 
BRANCH  16  17
HETATM   17  C   UNL     1      -7.945   1.231 -33.843  1.00  0.00    -0.033 A 
HETATM   18  C   UNL     1      -7.114   0.754 -32.820  1.00  0.00     0.010 A 
HETATM   19  C   UNL     1      -6.425  -0.456 -32.966  1.00  0.00     0.013 A 
HETATM   20  C   UNL     1      -6.560  -1.242 -34.122  1.00  0.00    -0.025 A 
HETATM   21  C   UNL     1      -7.401  -0.758 -35.137  1.00  0.00     0.013 A 
HETATM   22  C   UNL     1      -8.082   0.458 -35.004  1.00  0.00     0.010 A 
BRANCH  20  23
HETATM   23  C   UNL     1      -5.866  -2.538 -34.254  1.00  0.00    -0.008 A 
HETATM   24  C   UNL     1      -4.559  -2.727 -33.796  1.00  0.00     0.128 A 
HETATM   25  N   UNL     1      -3.862  -3.885 -33.883  1.00  0.00    -0.272 NA
HETATM   26  C   UNL     1      -4.494  -4.932 -34.450  1.00  0.00     0.116 A 
HETATM   27  C   UNL     1      -5.788  -4.868 -34.936  1.00  0.00     0.020 A 
HETATM   28  C   UNL     1      -6.476  -3.658 -34.837  1.00  0.00     0.015 A 
ENDBRANCH  20  23
ENDBRANCH  16  17
ENDBRANCH   1  16
TORSDOF 6
ENDMDL
MODEL 10
REMARK VINA RESULT:      -7.8      2.482      3.069
REMARK  6 active torsions:
REMARK  status: ('A' for Active; 'I' for Inactive)
REMARK    1  A    between atoms: C_4  and  C_5 
REMARK    2  A    between atoms: C_5  and  N_6 
REMARK    3  A    between atoms: C_5  and  C_22 
REMARK    4  A    between atoms: N_6  and  C_9 
REMARK    5  A    between atoms: C_9  and  C_10 
REMARK    6  A    between atoms: C_13  and  C_14 
REMARK       I    between atoms: C_22  and  N_23 
ROOT
HETATM    1  N   UNL     1      -4.296   4.126 -30.549  1.00  0.00    -0.054 N 
HETATM    2  H   UNL     1      -3.643   3.540 -31.081  1.00  0.00     0.278 HD
HETATM    3  H   UNL     1      -3.890   4.250 -29.612  1.00  0.00     0.278 HD
ENDROOT
BRANCH   1   4
HETATM    4  C   UNL     1      -4.375   5.508 -31.155  1.00  0.00     0.310 C 
BRANCH   4   5
HETATM    5  C   UNL     1      -3.352   5.646 -32.264  1.00  0.00    -0.019 A 
HETATM    6  C   UNL     1      -2.976   6.920 -32.721  1.00  0.00     0.010 A 
HETATM    7  C   UNL     1      -2.042   7.053 -33.751  1.00  0.00     0.001 A 
HETATM    8  C   UNL     1      -1.482   5.922 -34.339  1.00  0.00     0.000 A 
HETATM    9  C   UNL     1      -1.853   4.653 -33.903  1.00  0.00     0.001 A 
HETATM   10  C   UNL     1      -2.785   4.513 -32.873  1.00  0.00     0.010 A 
ENDBRANCH   4   5
BRANCH   4  11
HETATM   11  C   UNL     1      -4.172   6.584 -30.060  1.00  0.00     0.251 C 
HETATM   12  N   UNL     1      -3.106   6.449 -29.224  1.00  0.00    -0.368 N 
HETATM   13  H   UNL     1      -2.640   5.563 -29.059  1.00  0.00     0.159 HD
HETATM   14  H   UNL     1      -3.024   7.128 -28.471  1.00  0.00     0.159 HD
HETATM   15  O   UNL     1      -4.931   7.550 -29.984  1.00  0.00    -0.271 OA
ENDBRANCH   4  11
ENDBRANCH   1   4
BRANCH   1  16
HETATM   16  C   UNL     1      -5.600   3.427 -30.387  1.00  0.00     0.272 C 
BRANCH  16  17
HETATM   17  C   UNL     1      -5.676   2.168 -31.206  1.00  0.00    -0.033 A 
HETATM   18  C   UNL     1      -5.691   2.212 -32.607  1.00  0.00     0.010 A 
HETATM   19  C   UNL     1      -5.728   1.031 -33.358  1.00  0.00     0.013 A 
HETATM   20  C   UNL     1      -5.726  -0.231 -32.742  1.00  0.00    -0.025 A 
HETATM   21  C   UNL     1      -5.704  -0.263 -31.338  1.00  0.00     0.013 A 
HETATM   22  C   UNL     1      -5.681   0.915 -30.580  1.00  0.00     0.010 A 
BRANCH  20  23
HETATM   23  C   UNL     1      -5.721  -1.473 -33.538  1.00  0.00    -0.008 A 
HETATM   24  C   UNL     1      -4.543  -2.173 -33.810  1.00  0.00     0.128 A 
HETATM   25  N   UNL     1      -4.463  -3.317 -34.532  1.00  0.00    -0.272 NA
HETATM   26  C   UNL     1      -5.621  -3.813 -35.010  1.00  0.00     0.116 A 
HETATM   27  C   UNL     1      -6.851  -3.214 -34.801  1.00  0.00     0.020 A 
HETATM   28  C   UNL     1      -6.896  -2.032 -34.060  1.00  0.00     0.015 A 
ENDBRANCH  20  23
ENDBRANCH  16  17
ENDBRANCH   1  16
TORSDOF 6
ENDMDL
