MODEL 1
REMARK VINA RESULT:      -9.6      0.000      0.000
REMARK  8 active torsions:
REMARK  status: ('A' for Active; 'I' for Inactive)
REMARK    1  A    between atoms: O_2  and  C_3 
REMARK    2  A    between atoms: C_4  and  O_5 
REMARK    3  A    between atoms: C_13  and  C_14 
REMARK    4  A    between atoms: C_14  and  N_15 
REMARK    5  A    between atoms: C_19  and  C_20 
REMARK    6  A    between atoms: C_20  and  O_21 
REMARK    7  A    between atoms: C_20  and  C_22 
REMARK    8  A    between atoms: C_20  and  C_28 
ROOT
HETATM    1  N   UNL     1      -8.654   2.645 -32.869  1.00  0.00    -0.064 N 
HETATM    2  H   UNL     1      -9.594   2.553 -32.466  1.00  0.00     0.280 HD
HETATM    3  C   UNL     1      -8.706   1.912 -34.198  1.00  0.00     0.236 C 
HETATM    4  C   UNL     1      -8.942   0.427 -33.968  1.00  0.00     0.036 C 
HETATM    5  C   UNL     1      -7.884  -0.233 -33.052  1.00  0.00     0.033 C 
HETATM    6  C   UNL     1      -7.924   0.549 -31.719  1.00  0.00     0.036 C 
HETATM    7  C   UNL     1      -7.695   2.045 -31.870  1.00  0.00     0.236 C 
ENDROOT
BRANCH   1   8
HETATM    8  C   UNL     1      -8.426   4.154 -33.068  1.00  0.00     0.313 C 
BRANCH   8   9
HETATM    9  C   UNL     1      -6.958   4.568 -32.955  1.00  0.00     0.133 A 
HETATM   10  N   UNL     1      -6.221   4.560 -34.110  1.00  0.00    -0.309 N 
HETATM   11  C   UNL     1      -4.959   5.090 -34.191  1.00  0.00     0.259 A 
HETATM   12  H   UNL     1      -6.584   4.233 -34.995  1.00  0.00     0.170 HD
HETATM   13  C   UNL     1      -4.377   5.563 -32.925  1.00  0.00     0.064 A 
HETATM   14  O   UNL     1      -4.385   5.193 -35.266  1.00  0.00    -0.267 OA
HETATM   15  C   UNL     1      -5.168   5.457 -31.781  1.00  0.00     0.077 A 
HETATM   16  C   UNL     1      -3.092   6.112 -32.885  1.00  0.00     0.059 A 
HETATM   17  C   UNL     1      -4.646   5.899 -30.563  1.00  0.00     0.072 A 
HETATM   18  N   UNL     1      -6.489   4.972 -31.820  1.00  0.00    -0.233 NA
HETATM   19  C   UNL     1      -3.358   6.444 -30.496  1.00  0.00     0.103 A 
HETATM   20  C   UNL     1      -2.580   6.565 -31.668  1.00  0.00     0.102 A 
BRANCH  19  21
HETATM   21  O   UNL     1      -2.784   6.918 -29.342  1.00  0.00    -0.353 OA
HETATM   22  C   UNL     1      -3.582   7.735 -28.496  1.00  0.00     0.210 C 
ENDBRANCH  19  21
BRANCH  20  23
HETATM   23  O   UNL     1      -1.341   7.130 -31.512  1.00  0.00    -0.353 OA
HETATM   24  C   UNL     1      -0.204   6.280 -31.591  1.00  0.00     0.210 C 
ENDBRANCH  20  23
ENDBRANCH   8   9
ENDBRANCH   1   8
BRANCH   5  25
HETATM   25  C   UNL     1      -6.442  -0.365 -33.702  1.00  0.00     0.116 C 
BRANCH  25  26
HETATM   26  O   UNL     1      -6.470   0.414 -34.912  1.00  0.00    -0.380 OA
HETATM   27  H   UNL     1      -5.856   1.159 -34.758  1.00  0.00     0.211 HD
ENDBRANCH  25  26
BRANCH  25  28
HETATM   28  C   UNL     1      -5.366   0.252 -32.780  1.00  0.00    -0.019 A 
HETATM   29  C   UNL     1      -4.754   1.484 -33.077  1.00  0.00     0.010 A 
HETATM   30  C   UNL     1      -3.765   2.026 -32.248  1.00  0.00     0.001 A 
HETATM   31  C   UNL     1      -3.353   1.346 -31.109  1.00  0.00     0.000 A 
HETATM   32  C   UNL     1      -3.927   0.120 -30.795  1.00  0.00     0.001 A 
HETATM   33  C   UNL     1      -4.917  -0.421 -31.621  1.00  0.00     0.010 A 
ENDBRANCH  25  28
BRANCH  25  34
HETATM   34  C   UNL     1      -6.119  -1.822 -34.119  1.00  0.00    -0.019 A 
HETATM   35  C   UNL     1      -7.136  -2.747 -34.433  1.00  0.00     0.010 A 
HETATM   36  C   UNL     1      -6.839  -4.068 -34.789  1.00  0.00     0.001 A 
HETATM   37  C   UNL     1      -5.519  -4.496 -34.851  1.00  0.00     0.000 A 
HETATM   38  C   UNL     1      -4.493  -3.605 -34.557  1.00  0.00     0.001 A 
HETATM   39  C   UNL     1      -4.790  -2.288 -34.195  1.00  0.00     0.010 A 
ENDBRANCH  25  34
ENDBRANCH   5  25
TORSDOF 8
ENDMDL
MODEL 2
REMARK VINA RESULT:      -9.5      2.327      4.606
REMARK  8 active torsions:
REMARK  status: ('A' for Active; 'I' for Inactive)
REMARK    1  A    between atoms: O_2  and  C_3 
REMARK    2  A    between atoms: C_4  and  O_5 
REMARK    3  A    between atoms: C_13  and  C_14 
REMARK    4  A    between atoms: C_14  and  N_15 
REMARK    5  A    between atoms: C_19  and  C_20 
REMARK    6  A    between atoms: C_20  and  O_21 
REMARK    7  A    between atoms: C_20  and  C_22 
REMARK    8  A    between atoms: C_20  and  C_28 
ROOT
HETATM    1  N   UNL     1      -4.525   3.228 -31.594  1.00  0.00    -0.064 N 
HETATM    2  H   UNL     1      -4.302   3.244 -30.591  1.00  0.00     0.280 HD
HETATM    3  C   UNL     1      -6.041   3.236 -31.677  1.00  0.00     0.236 C 
HETATM    4  C   UNL     1      -6.605   1.955 -31.082  1.00  0.00     0.036 C 
HETATM    5  C   UNL     1      -6.055   0.669 -31.746  1.00  0.00     0.033 C 
HETATM    6  C   UNL     1      -4.519   0.728 -31.584  1.00  0.00     0.036 C 
HETATM    7  C   UNL     1      -3.881   1.985 -32.158  1.00  0.00     0.236 C 
ENDROOT
BRANCH   1   8
HETATM    8  C   UNL     1      -3.922   4.518 -32.180  1.00  0.00     0.313 C 
BRANCH   8   9
HETATM    9  C   UNL     1      -2.814   5.118 -31.315  1.00  0.00     0.133 A 
HETATM   10  N   UNL     1      -1.565   4.569 -31.435  1.00  0.00    -0.309 N 
HETATM   11  C   UNL     1      -0.447   5.130 -30.872  1.00  0.00     0.259 A 
HETATM   12  H   UNL     1      -1.371   3.758 -32.007  1.00  0.00     0.170 HD
HETATM   13  C   UNL     1      -0.678   6.302 -30.014  1.00  0.00     0.064 A 
HETATM   14  O   UNL     1       0.668   4.693 -31.115  1.00  0.00    -0.267 OA
HETATM   15  C   UNL     1      -1.994   6.746 -29.881  1.00  0.00     0.077 A 
HETATM   16  C   UNL     1       0.386   6.949 -29.380  1.00  0.00     0.059 A 
HETATM   17  C   UNL     1      -2.248   7.857 -29.075  1.00  0.00     0.072 A 
HETATM   18  N   UNL     1      -3.065   6.147 -30.571  1.00  0.00    -0.233 NA
HETATM   19  C   UNL     1      -1.200   8.517 -28.421  1.00  0.00     0.103 A 
HETATM   20  C   UNL     1       0.129   8.068 -28.586  1.00  0.00     0.102 A 
BRANCH  19  21
HETATM   21  O   UNL     1      -1.365   9.627 -27.630  1.00  0.00    -0.353 OA
HETATM   22  C   UNL     1      -1.911   9.436 -26.332  1.00  0.00     0.210 C 
ENDBRANCH  19  21
BRANCH  20  23
HETATM   23  O   UNL     1       1.093   8.787 -27.926  1.00  0.00    -0.353 OA
HETATM   24  C   UNL     1       1.713   8.191 -26.795  1.00  0.00     0.210 C 
ENDBRANCH  20  23
ENDBRANCH   8   9
ENDBRANCH   1   8
BRANCH   5  25
HETATM   25  C   UNL     1      -6.559   0.431 -33.232  1.00  0.00     0.116 C 
BRANCH  25  26
HETATM   26  O   UNL     1      -5.888   1.406 -34.049  1.00  0.00    -0.380 OA
HETATM   27  H   UNL     1      -5.427   0.895 -34.743  1.00  0.00     0.211 HD
ENDBRANCH  25  26
BRANCH  25  28
HETATM   28  C   UNL     1      -6.134  -0.967 -33.737  1.00  0.00    -0.019 A 
HETATM   29  C   UNL     1      -4.788  -1.375 -33.740  1.00  0.00     0.010 A 
HETATM   30  C   UNL     1      -4.408  -2.634 -34.219  1.00  0.00     0.001 A 
HETATM   31  C   UNL     1      -5.361  -3.512 -34.719  1.00  0.00     0.000 A 
HETATM   32  C   UNL     1      -6.697  -3.134 -34.743  1.00  0.00     0.001 A 
HETATM   33  C   UNL     1      -7.079  -1.878 -34.263  1.00  0.00     0.010 A 
ENDBRANCH  25  28
BRANCH  25  34
HETATM   34  C   UNL     1      -8.078   0.693 -33.383  1.00  0.00    -0.019 A 
HETATM   35  C   UNL     1      -9.038  -0.084 -32.703  1.00  0.00     0.010 A 
HETATM   36  C   UNL     1     -10.410   0.144 -32.859  1.00  0.00     0.001 A 
HETATM   37  C   UNL     1     -10.859   1.163 -33.690  1.00  0.00     0.000 A 
HETATM   38  C   UNL     1      -9.938   1.954 -34.367  1.00  0.00     0.001 A 
HETATM   39  C   UNL     1      -8.568   1.722 -34.216  1.00  0.00     0.010 A 
ENDBRANCH  25  34
ENDBRANCH   5  25
TORSDOF 8
ENDMDL
MODEL 3
REMARK VINA RESULT:      -9.1      1.080      2.349
REMARK  8 active torsions:
REMARK  status: ('A' for Active; 'I' for Inactive)
REMARK    1  A    between atoms: O_2  and  C_3 
REMARK    2  A    between atoms: C_4  and  O_5 
REMARK    3  A    between atoms: C_13  and  C_14 
REMARK    4  A    between atoms: C_14  and  N_15 
REMARK    5  A    between atoms: C_19  and  C_20 
REMARK    6  A    between atoms: C_20  and  O_21 
REMARK    7  A    between atoms: C_20  and  C_22 
REMARK    8  A    between atoms: C_20  and  C_28 
ROOT
HETATM    1  N   UNL     1      -8.889   2.441 -32.440  1.00  0.00    -0.064 N 
HETATM    2  H   UNL     1      -9.766   2.263 -31.936  1.00  0.00     0.280 HD
HETATM    3  C   UNL     1      -9.012   1.685 -33.751  1.00  0.00     0.236 C 
HETATM    4  C   UNL     1      -9.072   0.187 -33.488  1.00  0.00     0.036 C 
HETATM    5  C   UNL     1      -7.861  -0.350 -32.690  1.00  0.00     0.033 C 
HETATM    6  C   UNL     1      -7.835   0.446 -31.365  1.00  0.00     0.036 C 
HETATM    7  C   UNL     1      -7.774   1.955 -31.548  1.00  0.00     0.236 C 
ENDROOT
BRANCH   1   8
HETATM    8  C   UNL     1      -8.836   3.962 -32.671  1.00  0.00     0.313 C 
BRANCH   8   9
HETATM    9  C   UNL     1      -7.505   4.593 -32.258  1.00  0.00     0.133 A 
HETATM   10  N   UNL     1      -7.288   4.761 -30.916  1.00  0.00    -0.309 N 
HETATM   11  C   UNL     1      -6.072   5.128 -30.399  1.00  0.00     0.259 A 
HETATM   12  H   UNL     1      -7.984   4.553 -30.213  1.00  0.00     0.170 HD
HETATM   13  C   UNL     1      -5.029   5.460 -31.381  1.00  0.00     0.064 A 
HETATM   14  O   UNL     1      -5.875   5.133 -29.193  1.00  0.00    -0.267 OA
HETATM   15  C   UNL     1      -5.363   5.341 -32.731  1.00  0.00     0.077 A 
HETATM   16  C   UNL     1      -3.754   5.858 -30.970  1.00  0.00     0.059 A 
HETATM   17  C   UNL     1      -4.395   5.646 -33.690  1.00  0.00     0.072 A 
HETATM   18  N   UNL     1      -6.620   4.873 -33.158  1.00  0.00    -0.233 NA
HETATM   19  C   UNL     1      -3.113   6.056 -33.302  1.00  0.00     0.103 A 
HETATM   20  C   UNL     1      -2.785   6.149 -31.932  1.00  0.00     0.102 A 
BRANCH  19  21
HETATM   21  O   UNL     1      -2.102   6.354 -34.183  1.00  0.00    -0.353 OA
HETATM   22  C   UNL     1      -1.508   5.275 -34.893  1.00  0.00     0.210 C 
ENDBRANCH  19  21
BRANCH  20  23
HETATM   23  O   UNL     1      -1.502   6.537 -31.645  1.00  0.00    -0.353 OA
HETATM   24  C   UNL     1      -1.125   6.644 -30.279  1.00  0.00     0.210 C 
ENDBRANCH  20  23
ENDBRANCH   8   9
ENDBRANCH   1   8
BRANCH   5  25
HETATM   25  C   UNL     1      -6.492  -0.350 -33.493  1.00  0.00     0.116 C 
BRANCH  25  26
HETATM   26  O   UNL     1      -6.702   0.476 -34.652  1.00  0.00    -0.380 OA
HETATM   27  H   UNL     1      -5.822   0.829 -34.887  1.00  0.00     0.211 HD
ENDBRANCH  25  26
BRANCH  25  28
HETATM   28  C   UNL     1      -5.366   0.303 -32.658  1.00  0.00    -0.019 A 
HETATM   29  C   UNL     1      -4.812   1.548 -33.009  1.00  0.00     0.010 A 
HETATM   30  C   UNL     1      -3.778   2.122 -32.260  1.00  0.00     0.001 A 
HETATM   31  C   UNL     1      -3.264   1.463 -31.151  1.00  0.00     0.000 A 
HETATM   32  C   UNL     1      -3.779   0.226 -30.787  1.00  0.00     0.001 A 
HETATM   33  C   UNL     1      -4.814  -0.348 -31.532  1.00  0.00     0.010 A 
ENDBRANCH  25  28
BRANCH  25  34
HETATM   34  C   UNL     1      -6.119  -1.760 -34.014  1.00  0.00    -0.019 A 
HETATM   35  C   UNL     1      -4.779  -2.191 -34.102  1.00  0.00     0.010 A 
HETATM   36  C   UNL     1      -4.448  -3.459 -34.592  1.00  0.00     0.001 A 
HETATM   37  C   UNL     1      -5.447  -4.335 -34.997  1.00  0.00     0.000 A 
HETATM   38  C   UNL     1      -6.779  -3.946 -34.913  1.00  0.00     0.001 A 
HETATM   39  C   UNL     1      -7.109  -2.676 -34.430  1.00  0.00     0.010 A 
ENDBRANCH  25  34
ENDBRANCH   5  25
TORSDOF 8
ENDMDL
MODEL 4
REMARK VINA RESULT:      -8.7      1.992      4.346
REMARK  8 active torsions:
REMARK  status: ('A' for Active; 'I' for Inactive)
REMARK    1  A    between atoms: O_2  and  C_3 
REMARK    2  A    between atoms: C_4  and  O_5 
REMARK    3  A    between atoms: C_13  and  C_14 
REMARK    4  A    between atoms: C_14  and  N_15 
REMARK    5  A    between atoms: C_19  and  C_20 
REMARK    6  A    between atoms: C_20  and  O_21 
REMARK    7  A    between atoms: C_20  and  C_22 
REMARK    8  A    between atoms: C_20  and  C_28 
ROOT
HETATM    1  N   UNL     1      -5.062   3.911 -31.865  1.00  0.00    -0.064 N 
HETATM    2  H   UNL     1      -4.799   4.032 -30.879  1.00  0.00     0.280 HD
HETATM    3  C   UNL     1      -6.552   3.618 -31.857  1.00  0.00     0.236 C 
HETATM    4  C   UNL     1      -6.821   2.291 -31.163  1.00  0.00     0.036 C 
HETATM    5  C   UNL     1      -6.061   1.099 -31.791  1.00  0.00     0.033 C 
HETATM    6  C   UNL     1      -4.561   1.466 -31.725  1.00  0.00     0.036 C 
HETATM    7  C   UNL     1      -4.213   2.784 -32.401  1.00  0.00     0.236 C 
ENDROOT
BRANCH   1   8
HETATM    8  C   UNL     1      -4.756   5.254 -32.552  1.00  0.00     0.313 C 
BRANCH   8   9
HETATM    9  C   UNL     1      -3.927   6.204 -31.687  1.00  0.00     0.133 A 
HETATM   10  N   UNL     1      -3.092   7.071 -32.342  1.00  0.00    -0.309 N 
HETATM   11  C   UNL     1      -2.444   8.101 -31.709  1.00  0.00     0.259 A 
HETATM   12  H   UNL     1      -2.957   7.057 -33.343  1.00  0.00     0.170 HD
HETATM   13  C   UNL     1      -2.594   8.155 -30.247  1.00  0.00     0.064 A 
HETATM   14  O   UNL     1      -1.820   8.938 -32.345  1.00  0.00    -0.267 OA
HETATM   15  C   UNL     1      -3.397   7.181 -29.652  1.00  0.00     0.077 A 
HETATM   16  C   UNL     1      -1.970   9.154 -29.497  1.00  0.00     0.059 A 
HETATM   17  C   UNL     1      -3.562   7.205 -28.266  1.00  0.00     0.072 A 
HETATM   18  N   UNL     1      -4.089   6.212 -30.404  1.00  0.00    -0.233 NA
HETATM   19  C   UNL     1      -2.939   8.191 -27.492  1.00  0.00     0.103 A 
HETATM   20  C   UNL     1      -2.148   9.182 -28.113  1.00  0.00     0.102 A 
BRANCH  19  21
HETATM   21  O   UNL     1      -3.069   8.293 -26.128  1.00  0.00    -0.353 OA
HETATM   22  C   UNL     1      -2.527   7.246 -25.334  1.00  0.00     0.210 C 
ENDBRANCH  19  21
BRANCH  20  23
HETATM   23  O   UNL     1      -1.595  10.120 -27.279  1.00  0.00    -0.353 OA
HETATM   24  C   UNL     1      -0.183  10.123 -27.122  1.00  0.00     0.210 C 
ENDBRANCH  20  23
ENDBRANCH   8   9
ENDBRANCH   1   8
BRANCH   5  25
HETATM   25  C   UNL     1      -6.579   0.674 -33.230  1.00  0.00     0.116 C 
BRANCH  25  26
HETATM   26  O   UNL     1      -6.058   1.647 -34.152  1.00  0.00    -0.380 OA
HETATM   27  H   UNL     1      -5.317   2.081 -33.685  1.00  0.00     0.211 HD
ENDBRANCH  25  26
BRANCH  25  28
HETATM   28  C   UNL     1      -6.004  -0.702 -33.635  1.00  0.00    -0.019 A 
HETATM   29  C   UNL     1      -4.792  -1.183 -33.106  1.00  0.00     0.010 A 
HETATM   30  C   UNL     1      -4.266  -2.420 -33.494  1.00  0.00     0.001 A 
HETATM   31  C   UNL     1      -4.930  -3.203 -34.430  1.00  0.00     0.000 A 
HETATM   32  C   UNL     1      -6.121  -2.751 -34.983  1.00  0.00     0.001 A 
HETATM   33  C   UNL     1      -6.649  -1.517 -34.594  1.00  0.00     0.010 A 
ENDBRANCH  25  28
BRANCH  25  34
HETATM   34  C   UNL     1      -8.123   0.740 -33.337  1.00  0.00    -0.019 A 
HETATM   35  C   UNL     1      -8.958  -0.126 -32.601  1.00  0.00     0.010 A 
HETATM   36  C   UNL     1     -10.351  -0.075 -32.718  1.00  0.00     0.001 A 
HETATM   37  C   UNL     1     -10.949   0.850 -33.565  1.00  0.00     0.000 A 
HETATM   38  C   UNL     1     -10.155   1.725 -34.297  1.00  0.00     0.001 A 
HETATM   39  C   UNL     1      -8.762   1.669 -34.185  1.00  0.00     0.010 A 
ENDBRANCH  25  34
ENDBRANCH   5  25
TORSDOF 8
ENDMDL
MODEL 5
REMARK VINA RESULT:      -8.7      5.315      8.220
REMARK  8 active torsions:
REMARK  status: ('A' for Active; 'I' for Inactive)
REMARK    1  A    between atoms: O_2  and  C_3 
REMARK    2  A    between atoms: C_4  and  O_5 
REMARK    3  A    between atoms: C_13  and  C_14 
REMARK    4  A    between atoms: C_14  and  N_15 
REMARK    5  A    between atoms: C_19  and  C_20 
REMARK    6  A    between atoms: C_20  and  O_21 
REMARK    7  A    between atoms: C_20  and  C_22 
REMARK    8  A    between atoms: C_20  and  C_28 
ROOT
HETATM    1  N   UNL     1      -9.911   2.096 -32.275  1.00  0.00    -0.064 N 
HETATM    2  H   UNL     1     -10.499   1.832 -31.475  1.00  0.00     0.280 HD
HETATM    3  C   UNL     1      -9.792   0.843 -33.124  1.00  0.00     0.236 C 
HETATM    4  C   UNL     1      -9.038  -0.237 -32.362  1.00  0.00     0.036 C 
HETATM    5  C   UNL     1      -7.633   0.206 -31.888  1.00  0.00     0.033 C 
HETATM    6  C   UNL     1      -7.853   1.457 -31.008  1.00  0.00     0.036 C 
HETATM    7  C   UNL     1      -8.602   2.584 -31.705  1.00  0.00     0.236 C 
ENDROOT
BRANCH   1   8
HETATM    8  C   UNL     1     -10.679   3.207 -33.015  1.00  0.00     0.313 C 
BRANCH   8   9
HETATM    9  C   UNL     1     -12.196   3.015 -32.993  1.00  0.00     0.133 A 
HETATM   10  N   UNL     1     -12.671   1.782 -33.350  1.00  0.00    -0.309 N 
HETATM   11  C   UNL     1     -13.982   1.414 -33.188  1.00  0.00     0.259 A 
HETATM   12  H   UNL     1     -12.076   1.037 -33.686  1.00  0.00     0.170 HD
HETATM   13  C   UNL     1     -14.894   2.469 -32.719  1.00  0.00     0.064 A 
HETATM   14  O   UNL     1     -14.344   0.263 -33.387  1.00  0.00    -0.267 OA
HETATM   15  C   UNL     1     -14.338   3.722 -32.457  1.00  0.00     0.077 A 
HETATM   16  C   UNL     1     -16.254   2.211 -32.528  1.00  0.00     0.059 A 
HETATM   17  C   UNL     1     -15.175   4.745 -32.008  1.00  0.00     0.072 A 
HETATM   18  N   UNL     1     -12.958   3.974 -32.577  1.00  0.00    -0.233 NA
HETATM   19  C   UNL     1     -16.543   4.514 -31.818  1.00  0.00     0.103 A 
HETATM   20  C   UNL     1     -17.085   3.233 -32.067  1.00  0.00     0.102 A 
BRANCH  19  21
HETATM   21  O   UNL     1     -17.426   5.461 -31.361  1.00  0.00    -0.353 OA
HETATM   22  C   UNL     1     -17.000   6.298 -30.294  1.00  0.00     0.210 C 
ENDBRANCH  19  21
BRANCH  20  23
HETATM   23  O   UNL     1     -18.428   3.093 -31.833  1.00  0.00    -0.353 OA
HETATM   24  C   UNL     1     -19.314   3.211 -32.938  1.00  0.00     0.210 C 
ENDBRANCH  20  23
ENDBRANCH   8   9
ENDBRANCH   1   8
BRANCH   5  25
HETATM   25  C   UNL     1      -6.575   0.392 -33.057  1.00  0.00     0.116 C 
BRANCH  25  26
HETATM   26  O   UNL     1      -7.248   1.117 -34.102  1.00  0.00    -0.380 OA
HETATM   27  H   UNL     1      -6.946   2.043 -34.015  1.00  0.00     0.211 HD
ENDBRANCH  25  26
BRANCH  25  28
HETATM   28  C   UNL     1      -5.385   1.258 -32.586  1.00  0.00    -0.019 A 
HETATM   29  C   UNL     1      -4.505   0.823 -31.577  1.00  0.00     0.010 A 
HETATM   30  C   UNL     1      -3.443   1.622 -31.141  1.00  0.00     0.001 A 
HETATM   31  C   UNL     1      -3.239   2.882 -31.690  1.00  0.00     0.000 A 
HETATM   32  C   UNL     1      -4.098   3.347 -32.677  1.00  0.00     0.001 A 
HETATM   33  C   UNL     1      -5.158   2.549 -33.116  1.00  0.00     0.010 A 
ENDBRANCH  25  28
BRANCH  25  34
HETATM   34  C   UNL     1      -6.134  -0.962 -33.667  1.00  0.00    -0.019 A 
HETATM   35  C   UNL     1      -4.776  -1.330 -33.757  1.00  0.00     0.010 A 
HETATM   36  C   UNL     1      -4.383  -2.546 -34.328  1.00  0.00     0.001 A 
HETATM   37  C   UNL     1      -5.337  -3.431 -34.815  1.00  0.00     0.000 A 
HETATM   38  C   UNL     1      -6.685  -3.102 -34.732  1.00  0.00     0.001 A 
HETATM   39  C   UNL     1      -7.077  -1.885 -34.168  1.00  0.00     0.010 A 
ENDBRANCH  25  34
ENDBRANCH   5  25
TORSDOF 8
ENDMDL
MODEL 6
REMARK VINA RESULT:      -8.7      5.725      8.695
REMARK  8 active torsions:
REMARK  status: ('A' for Active; 'I' for Inactive)
REMARK    1  A    between atoms: O_2  and  C_3 
REMARK    2  A    between atoms: C_4  and  O_5 
REMARK    3  A    between atoms: C_13  and  C_14 
REMARK    4  A    between atoms: C_14  and  N_15 
REMARK    5  A    between atoms: C_19  and  C_20 
REMARK    6  A    between atoms: C_20  and  O_21 
REMARK    7  A    between atoms: C_20  and  C_22 
REMARK    8  A    between atoms: C_20  and  C_28 
ROOT
HETATM    1  N   UNL     1     -10.517   1.505 -32.560  1.00  0.00    -0.064 N 
HETATM    2  H   UNL     1     -10.899   1.449 -31.608  1.00  0.00     0.280 HD
HETATM    3  C   UNL     1      -9.787   0.193 -32.785  1.00  0.00     0.236 C 
HETATM    4  C   UNL     1      -8.599   0.086 -31.840  1.00  0.00     0.036 C 
HETATM    5  C   UNL     1      -7.603   1.263 -31.963  1.00  0.00     0.033 C 
HETATM    6  C   UNL     1      -8.419   2.545 -31.686  1.00  0.00     0.036 C 
HETATM    7  C   UNL     1      -9.626   2.722 -32.595  1.00  0.00     0.236 C 
ENDROOT
BRANCH   1   8
HETATM    8  C   UNL     1     -11.732   1.641 -33.496  1.00  0.00     0.313 C 
BRANCH   8   9
HETATM    9  C   UNL     1     -12.905   2.391 -32.864  1.00  0.00     0.133 A 
HETATM   10  N   UNL     1     -12.614   3.554 -32.202  1.00  0.00    -0.309 N 
HETATM   11  C   UNL     1     -13.579   4.423 -31.762  1.00  0.00     0.259 A 
HETATM   12  H   UNL     1     -11.669   3.888 -32.061  1.00  0.00     0.170 HD
HETATM   13  C   UNL     1     -14.970   3.976 -31.927  1.00  0.00     0.064 A 
HETATM   14  O   UNL     1     -13.282   5.516 -31.301  1.00  0.00    -0.267 OA
HETATM   15  C   UNL     1     -15.174   2.738 -32.538  1.00  0.00     0.077 A 
HETATM   16  C   UNL     1     -16.037   4.774 -31.505  1.00  0.00     0.059 A 
HETATM   17  C   UNL     1     -16.483   2.285 -32.712  1.00  0.00     0.072 A 
HETATM   18  N   UNL     1     -14.112   1.957 -33.032  1.00  0.00    -0.233 NA
HETATM   19  C   UNL     1     -17.568   3.062 -32.289  1.00  0.00     0.103 A 
HETATM   20  C   UNL     1     -17.345   4.323 -31.693  1.00  0.00     0.102 A 
BRANCH  19  21
HETATM   21  O   UNL     1     -18.883   2.695 -32.444  1.00  0.00    -0.353 OA
HETATM   22  C   UNL     1     -19.479   2.902 -33.717  1.00  0.00     0.210 C 
ENDBRANCH  19  21
BRANCH  20  23
HETATM   23  O   UNL     1     -18.465   5.024 -31.330  1.00  0.00    -0.353 OA
HETATM   24  C   UNL     1     -18.764   5.135 -29.945  1.00  0.00     0.210 C 
ENDBRANCH  20  23
ENDBRANCH   8   9
ENDBRANCH   1   8
BRANCH   5  25
HETATM   25  C   UNL     1      -6.772   1.282 -33.316  1.00  0.00     0.116 C 
BRANCH  25  26
HETATM   26  O   UNL     1      -7.727   1.478 -34.374  1.00  0.00    -0.380 OA
HETATM   27  H   UNL     1      -8.287   2.226 -34.088  1.00  0.00     0.211 HD
ENDBRANCH  25  26
BRANCH  25  28
HETATM   28  C   UNL     1      -5.798   2.482 -33.344  1.00  0.00    -0.019 A 
HETATM   29  C   UNL     1      -4.727   2.587 -32.437  1.00  0.00     0.010 A 
HETATM   30  C   UNL     1      -3.862   3.687 -32.454  1.00  0.00     0.001 A 
HETATM   31  C   UNL     1      -4.051   4.715 -33.369  1.00  0.00     0.000 A 
HETATM   32  C   UNL     1      -5.108   4.649 -34.268  1.00  0.00     0.001 A 
HETATM   33  C   UNL     1      -5.971   3.549 -34.254  1.00  0.00     0.010 A 
ENDBRANCH  25  28
BRANCH  25  34
HETATM   34  C   UNL     1      -6.074  -0.072 -33.592  1.00  0.00    -0.019 A 
HETATM   35  C   UNL     1      -6.524  -0.950 -34.600  1.00  0.00     0.010 A 
HETATM   36  C   UNL     1      -5.901  -2.181 -34.831  1.00  0.00     0.001 A 
HETATM   37  C   UNL     1      -4.805  -2.565 -34.068  1.00  0.00     0.000 A 
HETATM   38  C   UNL     1      -4.329  -1.718 -33.074  1.00  0.00     0.001 A 
HETATM   39  C   UNL     1      -4.956  -0.491 -32.839  1.00  0.00     0.010 A 
ENDBRANCH  25  34
ENDBRANCH   5  25
TORSDOF 8
ENDMDL
MODEL 7
REMARK VINA RESULT:      -8.6      2.057      4.542
REMARK  8 active torsions:
REMARK  status: ('A' for Active; 'I' for Inactive)
REMARK    1  A    between atoms: O_2  and  C_3 
REMARK    2  A    between atoms: C_4  and  O_5 
REMARK    3  A    between atoms: C_13  and  C_14 
REMARK    4  A    between atoms: C_14  and  N_15 
REMARK    5  A    between atoms: C_19  and  C_20 
REMARK    6  A    between atoms: C_20  and  O_21 
REMARK    7  A    between atoms: C_20  and  C_22 
REMARK    8  A    between atoms: C_20  and  C_28 
ROOT
HETATM    1  N   UNL     1      -3.813   2.216 -31.970  1.00  0.00    -0.064 N 
HETATM    2  H   UNL     1      -3.553   2.238 -30.976  1.00  0.00     0.280 HD
HETATM    3  C   UNL     1      -5.303   2.501 -32.009  1.00  0.00     0.236 C 
HETATM    4  C   UNL     1      -6.069   1.375 -31.330  1.00  0.00     0.036 C 
HETATM    5  C   UNL     1      -5.790  -0.019 -31.940  1.00  0.00     0.033 C 
HETATM    6  C   UNL     1      -4.264  -0.238 -31.826  1.00  0.00     0.036 C 
HETATM    7  C   UNL     1      -3.430   0.851 -32.484  1.00  0.00     0.236 C 
ENDROOT
BRANCH   1   8
HETATM    8  C   UNL     1      -3.007   3.344 -32.641  1.00  0.00     0.313 C 
BRANCH   8   9
HETATM    9  C   UNL     1      -2.930   4.619 -31.801  1.00  0.00     0.133 A 
HETATM   10  N   UNL     1      -4.106   5.284 -31.574  1.00  0.00    -0.309 N 
HETATM   11  C   UNL     1      -4.214   6.322 -30.684  1.00  0.00     0.259 A 
HETATM   12  H   UNL     1      -4.986   5.008 -31.989  1.00  0.00     0.170 HD
HETATM   13  C   UNL     1      -2.958   6.775 -30.067  1.00  0.00     0.064 A 
HETATM   14  O   UNL     1      -5.304   6.801 -30.402  1.00  0.00    -0.267 OA
HETATM   15  C   UNL     1      -1.793   6.093 -30.419  1.00  0.00     0.077 A 
HETATM   16  C   UNL     1      -2.946   7.832 -29.153  1.00  0.00     0.059 A 
HETATM   17  C   UNL     1      -0.584   6.496 -29.850  1.00  0.00     0.072 A 
HETATM   18  N   UNL     1      -1.802   4.981 -31.283  1.00  0.00    -0.233 NA
HETATM   19  C   UNL     1      -0.544   7.558 -28.939  1.00  0.00     0.103 A 
HETATM   20  C   UNL     1      -1.737   8.223 -28.577  1.00  0.00     0.102 A 
BRANCH  19  21
HETATM   21  O   UNL     1       0.601   8.000 -28.322  1.00  0.00    -0.353 OA
HETATM   22  C   UNL     1       1.185   7.158 -27.337  1.00  0.00     0.210 C 
ENDBRANCH  19  21
BRANCH  20  23
HETATM   23  O   UNL     1      -1.607   9.236 -27.662  1.00  0.00    -0.353 OA
HETATM   24  C   UNL     1      -1.809  10.570 -28.110  1.00  0.00     0.210 C 
ENDBRANCH  20  23
ENDBRANCH   8   9
ENDBRANCH   1   8
BRANCH   5  25
HETATM   25  C   UNL     1      -6.385  -0.231 -33.396  1.00  0.00     0.116 C 
BRANCH  25  26
HETATM   26  O   UNL     1      -5.682   0.681 -34.258  1.00  0.00    -0.380 OA
HETATM   27  H   UNL     1      -4.898   0.190 -34.575  1.00  0.00     0.211 HD
ENDBRANCH  25  26
BRANCH  25  28
HETATM   28  C   UNL     1      -6.097  -1.663 -33.903  1.00  0.00    -0.019 A 
HETATM   29  C   UNL     1      -7.131  -2.527 -34.308  1.00  0.00     0.010 A 
HETATM   30  C   UNL     1      -6.865  -3.829 -34.745  1.00  0.00     0.001 A 
HETATM   31  C   UNL     1      -5.560  -4.306 -34.778  1.00  0.00     0.000 A 
HETATM   32  C   UNL     1      -4.518  -3.483 -34.371  1.00  0.00     0.001 A 
HETATM   33  C   UNL     1      -4.783  -2.181 -33.936  1.00  0.00     0.010 A 
ENDBRANCH  25  28
BRANCH  25  34
HETATM   34  C   UNL     1      -7.885   0.149 -33.475  1.00  0.00    -0.019 A 
HETATM   35  C   UNL     1      -8.834  -0.379 -32.576  1.00  0.00     0.010 A 
HETATM   36  C   UNL     1     -10.191  -0.047 -32.665  1.00  0.00     0.001 A 
HETATM   37  C   UNL     1     -10.634   0.829 -33.647  1.00  0.00     0.000 A 
HETATM   38  C   UNL     1      -9.722   1.376 -34.543  1.00  0.00     0.001 A 
HETATM   39  C   UNL     1      -8.368   1.039 -34.458  1.00  0.00     0.010 A 
ENDBRANCH  25  34
ENDBRANCH   5  25
TORSDOF 8
ENDMDL
MODEL 8
REMARK VINA RESULT:      -8.6      2.137      8.481
REMARK  8 active torsions:
REMARK  status: ('A' for Active; 'I' for Inactive)
REMARK    1  A    between atoms: O_2  and  C_3 
REMARK    2  A    between atoms: C_4  and  O_5 
REMARK    3  A    between atoms: C_13  and  C_14 
REMARK    4  A    between atoms: C_14  and  N_15 
REMARK    5  A    between atoms: C_19  and  C_20 
REMARK    6  A    between atoms: C_20  and  O_21 
REMARK    7  A    between atoms: C_20  and  C_22 
REMARK    8  A    between atoms: C_20  and  C_28 
ROOT
HETATM    1  N   UNL     1      -6.427   4.854 -30.763  1.00  0.00    -0.064 N 
HETATM    2  H   UNL     1      -7.250   5.467 -30.804  1.00  0.00     0.280 HD
HETATM    3  C   UNL     1      -5.651   5.294 -29.535  1.00  0.00     0.236 C 
HETATM    4  C   UNL     1      -5.134   6.713 -29.722  1.00  0.00     0.036 C 
HETATM    5  C   UNL     1      -4.255   6.890 -30.983  1.00  0.00     0.033 C 
HETATM    6  C   UNL     1      -5.131   6.456 -32.179  1.00  0.00     0.036 C 
HETATM    7  C   UNL     1      -5.685   5.043 -32.063  1.00  0.00     0.236 C 
ENDROOT
BRANCH   1   8
HETATM    8  C   UNL     1      -6.973   3.424 -30.602  1.00  0.00     0.313 C 
BRANCH   8   9
HETATM    9  C   UNL     1      -6.142   2.370 -31.335  1.00  0.00     0.133 A 
HETATM   10  N   UNL     1      -4.814   2.289 -31.009  1.00  0.00    -0.309 N 
HETATM   11  C   UNL     1      -4.002   1.271 -31.438  1.00  0.00     0.259 A 
HETATM   12  H   UNL     1      -4.362   2.931 -30.371  1.00  0.00     0.170 HD
HETATM   13  C   UNL     1      -4.607   0.321 -32.384  1.00  0.00     0.064 A 
HETATM   14  O   UNL     1      -2.861   1.154 -31.016  1.00  0.00    -0.267 OA
HETATM   15  C   UNL     1      -5.944   0.526 -32.727  1.00  0.00     0.077 A 
HETATM   16  C   UNL     1      -3.871  -0.750 -32.897  1.00  0.00     0.059 A 
HETATM   17  C   UNL     1      -6.550  -0.359 -33.620  1.00  0.00     0.072 A 
HETATM   18  N   UNL     1      -6.717   1.559 -32.162  1.00  0.00    -0.233 NA
HETATM   19  C   UNL     1      -5.830  -1.434 -34.156  1.00  0.00     0.103 A 
HETATM   20  C   UNL     1      -4.484  -1.640 -33.780  1.00  0.00     0.102 A 
BRANCH  19  21
HETATM   21  O   UNL     1      -6.360  -2.358 -35.023  1.00  0.00    -0.353 OA
HETATM   22  C   UNL     1      -7.067  -3.457 -34.464  1.00  0.00     0.210 C 
ENDBRANCH  19  21
BRANCH  20  23
HETATM   23  O   UNL     1      -3.865  -2.730 -34.336  1.00  0.00    -0.353 OA
HETATM   24  C   UNL     1      -3.607  -3.850 -33.501  1.00  0.00     0.210 C 
ENDBRANCH  20  23
ENDBRANCH   8   9
ENDBRANCH   1   8
BRANCH   5  25
HETATM   25  C   UNL     1      -2.839   6.178 -30.901  1.00  0.00     0.116 C 
BRANCH  25  26
HETATM   26  O   UNL     1      -3.066   4.892 -30.297  1.00  0.00    -0.380 OA
HETATM   27  H   UNL     1      -2.348   4.316 -30.627  1.00  0.00     0.211 HD
ENDBRANCH  25  26
BRANCH  25  28
HETATM   28  C   UNL     1      -2.268   5.930 -32.316  1.00  0.00    -0.019 A 
HETATM   29  C   UNL     1      -1.648   6.954 -33.055  1.00  0.00     0.010 A 
HETATM   30  C   UNL     1      -1.153   6.727 -34.344  1.00  0.00     0.001 A 
HETATM   31  C   UNL     1      -1.277   5.475 -34.933  1.00  0.00     0.000 A 
HETATM   32  C   UNL     1      -1.897   4.447 -34.237  1.00  0.00     0.001 A 
HETATM   33  C   UNL     1      -2.390   4.671 -32.948  1.00  0.00     0.010 A 
ENDBRANCH  25  28
BRANCH  25  34
HETATM   34  C   UNL     1      -1.855   6.937 -29.976  1.00  0.00    -0.019 A 
HETATM   35  C   UNL     1      -0.664   6.344 -29.511  1.00  0.00     0.010 A 
HETATM   36  C   UNL     1       0.211   7.027 -28.659  1.00  0.00     0.001 A 
HETATM   37  C   UNL     1      -0.076   8.326 -28.258  1.00  0.00     0.000 A 
HETATM   38  C   UNL     1      -1.238   8.943 -28.706  1.00  0.00     0.001 A 
HETATM   39  C   UNL     1      -2.115   8.258 -29.552  1.00  0.00     0.010 A 
ENDBRANCH  25  34
ENDBRANCH   5  25
TORSDOF 8
ENDMDL
MODEL 9
REMARK VINA RESULT:      -8.6      2.110      4.585
REMARK  8 active torsions:
REMARK  status: ('A' for Active; 'I' for Inactive)
REMARK    1  A    between atoms: O_2  and  C_3 
REMARK    2  A    between atoms: C_4  and  O_5 
REMARK    3  A    between atoms: C_13  and  C_14 
REMARK    4  A    between atoms: C_14  and  N_15 
REMARK    5  A    between atoms: C_19  and  C_20 
REMARK    6  A    between atoms: C_20  and  O_21 
REMARK    7  A    between atoms: C_20  and  C_22 
REMARK    8  A    between atoms: C_20  and  C_28 
ROOT
HETATM    1  N   UNL     1      -3.859   2.154 -31.817  1.00  0.00    -0.064 N 
HETATM    2  H   UNL     1      -3.615   2.148 -30.819  1.00  0.00     0.280 HD
HETATM    3  C   UNL     1      -5.353   2.419 -31.871  1.00  0.00     0.236 C 
HETATM    4  C   UNL     1      -6.113   1.262 -31.240  1.00  0.00     0.036 C 
HETATM    5  C   UNL     1      -5.805  -0.108 -31.889  1.00  0.00     0.033 C 
HETATM    6  C   UNL     1      -4.278  -0.309 -31.758  1.00  0.00     0.036 C 
HETATM    7  C   UNL     1      -3.449   0.811 -32.369  1.00  0.00     0.236 C 
ENDROOT
BRANCH   1   8
HETATM    8  C   UNL     1      -3.059   3.312 -32.440  1.00  0.00     0.313 C 
BRANCH   8   9
HETATM    9  C   UNL     1      -2.792   4.460 -31.465  1.00  0.00     0.133 A 
HETATM   10  N   UNL     1      -1.497   4.639 -31.058  1.00  0.00    -0.309 N 
HETATM   11  C   UNL     1      -1.085   5.737 -30.348  1.00  0.00     0.259 A 
HETATM   12  H   UNL     1      -0.745   4.014 -31.316  1.00  0.00     0.170 HD
HETATM   13  C   UNL     1      -2.144   6.668 -29.931  1.00  0.00     0.064 A 
HETATM   14  O   UNL     1       0.101   5.934 -30.121  1.00  0.00    -0.267 OA
HETATM   15  C   UNL     1      -3.449   6.365 -30.320  1.00  0.00     0.077 A 
HETATM   16  C   UNL     1      -1.843   7.817 -29.193  1.00  0.00     0.059 A 
HETATM   17  C   UNL     1      -4.479   7.229 -29.942  1.00  0.00     0.072 A 
HETATM   18  N   UNL     1      -3.757   5.250 -31.123  1.00  0.00    -0.233 NA
HETATM   19  C   UNL     1      -4.203   8.381 -29.195  1.00  0.00     0.103 A 
HETATM   20  C   UNL     1      -2.873   8.685 -28.829  1.00  0.00     0.102 A 
BRANCH  19  21
HETATM   21  O   UNL     1      -5.156   9.289 -28.803  1.00  0.00    -0.353 OA
HETATM   22  C   UNL     1      -5.827  10.021 -29.821  1.00  0.00     0.210 C 
ENDBRANCH  19  21
BRANCH  20  23
HETATM   23  O   UNL     1      -2.695   9.843 -28.117  1.00  0.00    -0.353 OA
HETATM   24  C   UNL     1      -2.343   9.736 -26.745  1.00  0.00     0.210 C 
ENDBRANCH  20  23
ENDBRANCH   8   9
ENDBRANCH   1   8
BRANCH   5  25
HETATM   25  C   UNL     1      -6.376  -0.282 -33.360  1.00  0.00     0.116 C 
BRANCH  25  26
HETATM   26  O   UNL     1      -5.649   0.643 -34.188  1.00  0.00    -0.380 OA
HETATM   27  H   UNL     1      -4.863   0.153 -34.502  1.00  0.00     0.211 HD
ENDBRANCH  25  26
BRANCH  25  28
HETATM   28  C   UNL     1      -6.090  -1.704 -33.894  1.00  0.00    -0.019 A 
HETATM   29  C   UNL     1      -7.128  -2.574 -34.277  1.00  0.00     0.010 A 
HETATM   30  C   UNL     1      -6.862  -3.867 -34.739  1.00  0.00     0.001 A 
HETATM   31  C   UNL     1      -5.555  -4.330 -34.819  1.00  0.00     0.000 A 
HETATM   32  C   UNL     1      -4.508  -3.502 -34.435  1.00  0.00     0.001 A 
HETATM   33  C   UNL     1      -4.772  -2.208 -33.975  1.00  0.00     0.010 A 
ENDBRANCH  25  28
BRANCH  25  34
HETATM   34  C   UNL     1      -7.870   0.113 -33.457  1.00  0.00    -0.019 A 
HETATM   35  C   UNL     1      -8.832  -0.388 -32.556  1.00  0.00     0.010 A 
HETATM   36  C   UNL     1     -10.184  -0.044 -32.661  1.00  0.00     0.001 A 
HETATM   37  C   UNL     1     -10.610   0.819 -33.664  1.00  0.00     0.000 A 
HETATM   38  C   UNL     1      -9.686   1.338 -34.563  1.00  0.00     0.001 A 
HETATM   39  C   UNL     1      -8.336   0.988 -34.461  1.00  0.00     0.010 A 
ENDBRANCH  25  34
ENDBRANCH   5  25
TORSDOF 8
ENDMDL
MODEL 10
REMARK VINA RESULT:      -8.5      2.591      5.195
REMARK  8 active torsions:
REMARK  status: ('A' for Active; 'I' for Inactive)
REMARK    1  A    between atoms: O_2  and  C_3 
REMARK    2  A    between atoms: C_4  and  O_5 
REMARK    3  A    between atoms: C_13  and  C_14 
REMARK    4  A    between atoms: C_14  and  N_15 
REMARK    5  A    between atoms: C_19  and  C_20 
REMARK    6  A    between atoms: C_20  and  O_21 
REMARK    7  A    between atoms: C_20  and  C_22 
REMARK    8  A    between atoms: C_20  and  C_28 
ROOT
HETATM    1  N   UNL     1      -7.929   4.235 -30.783  1.00  0.00    -0.064 N 
HETATM    2  H   UNL     1      -7.785   5.202 -31.098  1.00  0.00     0.280 HD
HETATM    3  C   UNL     1      -7.174   3.366 -31.773  1.00  0.00     0.236 C 
HETATM    4  C   UNL     1      -7.805   3.477 -33.153  1.00  0.00     0.036 C 
HETATM    5  C   UNL     1      -9.307   3.109 -33.179  1.00  0.00     0.033 C 
HETATM    6  C   UNL     1      -9.997   4.060 -32.174  1.00  0.00     0.036 C 
HETATM    7  C   UNL     1      -9.419   4.004 -30.768  1.00  0.00     0.236 C 
ENDROOT
BRANCH   1   8
HETATM    8  C   UNL     1      -7.309   4.154 -29.376  1.00  0.00     0.313 C 
BRANCH   8   9
HETATM    9  C   UNL     1      -6.233   5.211 -29.123  1.00  0.00     0.133 A 
HETATM   10  N   UNL     1      -6.204   5.783 -27.880  1.00  0.00    -0.309 N 
HETATM   11  C   UNL     1      -5.182   6.592 -27.456  1.00  0.00     0.259 A 
HETATM   12  H   UNL     1      -6.893   5.588 -27.166  1.00  0.00     0.170 HD
HETATM   13  C   UNL     1      -4.162   6.922 -28.463  1.00  0.00     0.064 A 
HETATM   14  O   UNL     1      -5.117   6.972 -26.295  1.00  0.00    -0.267 OA
HETATM   15  C   UNL     1      -4.314   6.361 -29.732  1.00  0.00     0.077 A 
HETATM   16  C   UNL     1      -3.080   7.748 -28.147  1.00  0.00     0.059 A 
HETATM   17  C   UNL     1      -3.362   6.651 -30.710  1.00  0.00     0.072 A 
HETATM   18  N   UNL     1      -5.360   5.471 -30.042  1.00  0.00    -0.233 NA
HETATM   19  C   UNL     1      -2.274   7.484 -30.421  1.00  0.00     0.103 A 
HETATM   20  C   UNL     1      -2.123   8.025 -29.125  1.00  0.00     0.102 A 
BRANCH  19  21
HETATM   21  O   UNL     1      -1.287   7.800 -31.322  1.00  0.00    -0.353 OA
HETATM   22  C   UNL     1      -1.623   7.777 -32.703  1.00  0.00     0.210 C 
ENDBRANCH  19  21
BRANCH  20  23
HETATM   23  O   UNL     1      -1.017   8.811 -28.926  1.00  0.00    -0.353 OA
HETATM   24  C   UNL     1       0.002   8.323 -28.065  1.00  0.00     0.210 C 
ENDBRANCH  20  23
ENDBRANCH   8   9
ENDBRANCH   1   8
BRANCH   5  25
HETATM   25  C   UNL     1      -9.610   1.567 -32.951  1.00  0.00     0.116 C 
BRANCH  25  26
HETATM   26  O   UNL     1      -9.632   1.365 -31.526  1.00  0.00    -0.380 OA
HETATM   27  H   UNL     1      -8.920   1.932 -31.169  1.00  0.00     0.211 HD
ENDBRANCH  25  26
BRANCH  25  28
HETATM   28  C   UNL     1     -11.010   1.198 -33.492  1.00  0.00    -0.019 A 
HETATM   29  C   UNL     1     -11.660   0.009 -33.114  1.00  0.00     0.010 A 
HETATM   30  C   UNL     1     -12.918  -0.329 -33.625  1.00  0.00     0.001 A 
HETATM   31  C   UNL     1     -13.553   0.505 -34.537  1.00  0.00     0.000 A 
HETATM   32  C   UNL     1     -12.932   1.679 -34.942  1.00  0.00     0.001 A 
HETATM   33  C   UNL     1     -11.676   2.020 -34.430  1.00  0.00     0.010 A 
ENDBRANCH  25  28
BRANCH  25  34
HETATM   34  C   UNL     1      -8.485   0.662 -33.511  1.00  0.00    -0.019 A 
HETATM   35  C   UNL     1      -7.635  -0.078 -32.664  1.00  0.00     0.010 A 
HETATM   36  C   UNL     1      -6.608  -0.879 -33.176  1.00  0.00     0.001 A 
HETATM   37  C   UNL     1      -6.409  -0.970 -34.548  1.00  0.00     0.000 A 
HETATM   38  C   UNL     1      -7.236  -0.260 -35.411  1.00  0.00     0.001 A 
HETATM   39  C   UNL     1      -8.258   0.545 -34.899  1.00  0.00     0.010 A 
ENDBRANCH  25  34
ENDBRANCH   5  25
TORSDOF 8
ENDMDL
