MODEL 1
REMARK VINA RESULT:      -9.4      0.000      0.000
REMARK  4 active torsions:
REMARK  status: ('A' for Active; 'I' for Inactive)
REMARK    1  A    between atoms: C_5  and  C_6 
REMARK    2  A    between atoms: C_6  and  N_7 
REMARK    3  A    between atoms: C_17  and  C_18 
REMARK    4  A    between atoms: C_27  and  C_28 
ROOT
HETATM    1  N   UNL     1      -5.585   3.826 -31.274  1.00  0.00    -0.067 N 
HETATM    2  H   UNL     1      -5.874   4.769 -30.976  1.00  0.00     0.280 HD
HETATM    3  C   UNL     1      -6.160   3.602 -32.644  1.00  0.00     0.236 C 
HETATM    4  C   UNL     1      -6.007   2.148 -33.093  1.00  0.00     0.039 C 
HETATM    5  C   UNL     1      -6.534   1.089 -32.086  1.00  0.00    -0.013 C 
HETATM    6  C   UNL     1      -8.087   1.025 -32.036  1.00  0.00     0.244 C 
HETATM    7  N   UNL     1      -8.680   0.453 -33.302  1.00  0.00    -0.073 N 
HETATM    8  H   UNL     1      -8.455   1.050 -34.109  1.00  0.00     0.279 HD
HETATM    9  C   UNL     1     -10.196   0.425 -33.244  1.00  0.00     0.269 C 
HETATM   10  C   UNL     1      -8.150  -0.936 -33.630  1.00  0.00     0.243 C 
HETATM   11  C   UNL     1      -6.624  -0.880 -33.760  1.00  0.00     0.045 C 
HETATM   12  C   UNL     1      -5.994  -0.320 -32.472  1.00  0.00     0.022 C 
HETATM   13  C   UNL     1      -5.972   1.436 -30.675  1.00  0.00     0.039 C 
HETATM   14  C   UNL     1      -6.167   2.891 -30.249  1.00  0.00     0.236 C 
ENDROOT
BRANCH  11  15
HETATM   15  C   UNL     1      -6.061  -2.235 -34.135  1.00  0.00    -0.052 A 
HETATM   16  C   UNL     1      -6.918  -3.220 -34.654  1.00  0.00     0.007 A 
HETATM   17  C   UNL     1      -6.431  -4.484 -34.988  1.00  0.00     0.001 A 
HETATM   18  C   UNL     1      -5.084  -4.783 -34.811  1.00  0.00     0.000 A 
HETATM   19  C   UNL     1      -4.221  -3.818 -34.300  1.00  0.00     0.001 A 
HETATM   20  C   UNL     1      -4.704  -2.551 -33.964  1.00  0.00     0.007 A 
ENDBRANCH  11  15
BRANCH   1  21
HETATM   21  C   UNL     1      -4.056   3.908 -31.208  1.00  0.00     0.277 C 
BRANCH  21  22
HETATM   22  C   UNL     1      -3.451   5.266 -31.200  1.00  0.00     0.011 A 
HETATM   23  C   UNL     1      -3.736   6.330 -30.305  1.00  0.00     0.149 A 
HETATM   24  N   UNL     1      -3.076   7.444 -30.585  1.00  0.00    -0.185 NA
HETATM   25  N   UNL     1      -2.296   7.109 -31.623  1.00  0.00    -0.278 N 
HETATM   26  C   UNL     1      -1.394   8.096 -32.176  1.00  0.00     0.179 C 
HETATM   27  C   UNL     1      -2.453   5.797 -32.012  1.00  0.00     0.043 A 
BRANCH  27  28
HETATM   28  C   UNL     1      -1.604   5.155 -33.111  1.00  0.00     0.038 A 
HETATM   29  C   UNL     1      -2.271   4.722 -34.399  1.00  0.00     0.011 A 
HETATM   30  C   UNL     1      -1.301   5.853 -34.414  1.00  0.00     0.011 A 
ENDBRANCH  27  28
ENDBRANCH  21  22
ENDBRANCH   1  21
TORSDOF 4
ENDMDL
MODEL 2
REMARK VINA RESULT:      -9.3      0.952      1.929
REMARK  4 active torsions:
REMARK  status: ('A' for Active; 'I' for Inactive)
REMARK    1  A    between atoms: C_5  and  C_6 
REMARK    2  A    between atoms: C_6  and  N_7 
REMARK    3  A    between atoms: C_17  and  C_18 
REMARK    4  A    between atoms: C_27  and  C_28 
ROOT
HETATM    1  N   UNL     1      -5.219   3.614 -31.179  1.00  0.00    -0.067 N 
HETATM    2  H   UNL     1      -5.467   4.568 -30.878  1.00  0.00     0.280 HD
HETATM    3  C   UNL     1      -5.738   3.447 -32.580  1.00  0.00     0.236 C 
HETATM    4  C   UNL     1      -5.648   1.993 -33.048  1.00  0.00     0.039 C 
HETATM    5  C   UNL     1      -6.286   0.952 -32.088  1.00  0.00    -0.013 C 
HETATM    6  C   UNL     1      -7.841   0.979 -32.115  1.00  0.00     0.244 C 
HETATM    7  N   UNL     1      -8.402   0.464 -33.419  1.00  0.00    -0.073 N 
HETATM    8  H   UNL     1      -8.103   1.059 -34.203  1.00  0.00     0.279 HD
HETATM    9  C   UNL     1      -9.918   0.526 -33.436  1.00  0.00     0.269 C 
HETATM   10  C   UNL     1      -7.939  -0.949 -33.747  1.00  0.00     0.243 C 
HETATM   11  C   UNL     1      -6.408  -0.982 -33.801  1.00  0.00     0.045 C 
HETATM   12  C   UNL     1      -5.811  -0.481 -32.473  1.00  0.00     0.022 C 
HETATM   13  C   UNL     1      -5.776   1.242 -30.644  1.00  0.00     0.039 C 
HETATM   14  C   UNL     1      -5.906   2.699 -30.202  1.00  0.00     0.236 C 
ENDROOT
BRANCH  11  15
HETATM   15  C   UNL     1      -5.908  -2.362 -34.173  1.00  0.00    -0.052 A 
HETATM   16  C   UNL     1      -6.798  -3.292 -34.734  1.00  0.00     0.007 A 
HETATM   17  C   UNL     1      -6.371  -4.577 -35.068  1.00  0.00     0.001 A 
HETATM   18  C   UNL     1      -5.050  -4.953 -34.847  1.00  0.00     0.000 A 
HETATM   19  C   UNL     1      -4.153  -4.042 -34.294  1.00  0.00     0.001 A 
HETATM   20  C   UNL     1      -4.577  -2.755 -33.959  1.00  0.00     0.007 A 
ENDBRANCH  11  15
BRANCH   1  21
HETATM   21  C   UNL     1      -3.694   3.604 -31.037  1.00  0.00     0.277 C 
BRANCH  21  22
HETATM   22  C   UNL     1      -2.920   4.447 -31.987  1.00  0.00     0.011 A 
HETATM   23  C   UNL     1      -2.366   4.053 -33.232  1.00  0.00     0.149 A 
HETATM   24  N   UNL     1      -1.677   5.015 -33.829  1.00  0.00    -0.185 NA
HETATM   25  N   UNL     1      -1.829   6.075 -33.021  1.00  0.00    -0.278 N 
HETATM   26  C   UNL     1      -1.227   7.338 -33.391  1.00  0.00     0.179 C 
HETATM   27  C   UNL     1      -2.601   5.800 -31.913  1.00  0.00     0.043 A 
BRANCH  27  28
HETATM   28  C   UNL     1      -2.993   6.871 -30.895  1.00  0.00     0.038 A 
HETATM   29  C   UNL     1      -4.179   7.765 -31.183  1.00  0.00     0.011 A 
HETATM   30  C   UNL     1      -4.249   6.782 -30.065  1.00  0.00     0.011 A 
ENDBRANCH  27  28
ENDBRANCH  21  22
ENDBRANCH   1  21
TORSDOF 4
ENDMDL
MODEL 3
REMARK VINA RESULT:      -9.2      3.348      7.391
REMARK  4 active torsions:
REMARK  status: ('A' for Active; 'I' for Inactive)
REMARK    1  A    between atoms: C_5  and  C_6 
REMARK    2  A    between atoms: C_6  and  N_7 
REMARK    3  A    between atoms: C_17  and  C_18 
REMARK    4  A    between atoms: C_27  and  C_28 
ROOT
HETATM    1  N   UNL     1      -4.376   0.616 -31.981  1.00  0.00    -0.067 N 
HETATM    2  H   UNL     1      -3.521   0.586 -31.407  1.00  0.00     0.280 HD
HETATM    3  C   UNL     1      -4.672   2.063 -32.255  1.00  0.00     0.236 C 
HETATM    4  C   UNL     1      -6.050   2.250 -32.890  1.00  0.00     0.039 C 
HETATM    5  C   UNL     1      -7.224   1.575 -32.128  1.00  0.00    -0.013 C 
HETATM    6  C   UNL     1      -7.604   2.325 -30.819  1.00  0.00     0.244 C 
HETATM    7  N   UNL     1      -8.247   3.664 -31.091  1.00  0.00    -0.073 N 
HETATM    8  H   UNL     1      -7.594   4.287 -31.584  1.00  0.00     0.279 HD
HETATM    9  C   UNL     1      -8.584   4.391 -29.802  1.00  0.00     0.269 C 
HETATM   10  C   UNL     1      -9.489   3.559 -31.965  1.00  0.00     0.243 C 
HETATM   11  C   UNL     1      -9.120   2.892 -33.294  1.00  0.00     0.045 C 
HETATM   12  C   UNL     1      -8.481   1.513 -33.044  1.00  0.00     0.022 C 
HETATM   13  C   UNL     1      -6.811   0.109 -31.798  1.00  0.00     0.039 C 
HETATM   14  C   UNL     1      -5.440  -0.037 -31.140  1.00  0.00     0.236 C 
ENDROOT
BRANCH  11  15
HETATM   15  C   UNL     1     -10.320   2.813 -34.214  1.00  0.00    -0.052 A 
HETATM   16  C   UNL     1     -10.675   3.932 -34.984  1.00  0.00     0.007 A 
HETATM   17  C   UNL     1     -11.788   3.896 -35.825  1.00  0.00     0.001 A 
HETATM   18  C   UNL     1     -12.562   2.743 -35.909  1.00  0.00     0.000 A 
HETATM   19  C   UNL     1     -12.223   1.623 -35.154  1.00  0.00     0.001 A 
HETATM   20  C   UNL     1     -11.109   1.655 -34.311  1.00  0.00     0.007 A 
ENDBRANCH  11  15
BRANCH   1  21
HETATM   21  C   UNL     1      -3.987  -0.219 -33.205  1.00  0.00     0.277 C 
BRANCH  21  22
HETATM   22  C   UNL     1      -3.781  -1.676 -32.994  1.00  0.00     0.011 A 
HETATM   23  C   UNL     1      -3.019  -2.299 -31.972  1.00  0.00     0.149 A 
HETATM   24  N   UNL     1      -2.976  -3.619 -32.078  1.00  0.00    -0.185 NA
HETATM   25  N   UNL     1      -3.767  -3.889 -33.127  1.00  0.00    -0.278 N 
HETATM   26  C   UNL     1      -3.983  -5.266 -33.513  1.00  0.00     0.179 C 
HETATM   27  C   UNL     1      -4.310  -2.757 -33.695  1.00  0.00     0.043 A 
BRANCH  27  28
HETATM   28  C   UNL     1      -5.317  -2.814 -34.844  1.00  0.00     0.038 A 
HETATM   29  C   UNL     1      -6.726  -3.294 -34.568  1.00  0.00     0.011 A 
HETATM   30  C   UNL     1      -6.491  -1.870 -34.943  1.00  0.00     0.011 A 
ENDBRANCH  27  28
ENDBRANCH  21  22
ENDBRANCH   1  21
TORSDOF 4
ENDMDL
MODEL 4
REMARK VINA RESULT:      -9.1      3.294      7.625
REMARK  4 active torsions:
REMARK  status: ('A' for Active; 'I' for Inactive)
REMARK    1  A    between atoms: C_5  and  C_6 
REMARK    2  A    between atoms: C_6  and  N_7 
REMARK    3  A    between atoms: C_17  and  C_18 
REMARK    4  A    between atoms: C_27  and  C_28 
ROOT
HETATM    1  N   UNL     1      -9.940   2.939 -32.798  1.00  0.00    -0.067 N 
HETATM    2  H   UNL     1     -10.230   3.857 -32.430  1.00  0.00     0.280 HD
HETATM    3  C   UNL     1      -9.125   2.273 -31.725  1.00  0.00     0.236 C 
HETATM    4  C   UNL     1      -8.434   1.010 -32.240  1.00  0.00     0.039 C 
HETATM    5  C   UNL     1      -7.601   1.198 -33.538  1.00  0.00    -0.013 C 
HETATM    6  C   UNL     1      -6.268   1.960 -33.294  1.00  0.00     0.244 C 
HETATM    7  N   UNL     1      -5.275   1.144 -32.501  1.00  0.00    -0.073 N 
HETATM    8  H   UNL     1      -5.646   0.933 -31.565  1.00  0.00     0.279 HD
HETATM    9  C   UNL     1      -3.993   1.916 -32.250  1.00  0.00     0.269 C 
HETATM   10  C   UNL     1      -4.953  -0.194 -33.151  1.00  0.00     0.243 C 
HETATM   11  C   UNL     1      -6.247  -0.996 -33.331  1.00  0.00     0.045 C 
HETATM   12  C   UNL     1      -7.268  -0.192 -34.156  1.00  0.00     0.022 C 
HETATM   13  C   UNL     1      -8.474   1.973 -34.570  1.00  0.00     0.039 C 
HETATM   14  C   UNL     1      -9.128   3.244 -34.027  1.00  0.00     0.236 C 
ENDROOT
BRANCH  11  15
HETATM   15  C   UNL     1      -5.963  -2.357 -33.931  1.00  0.00    -0.052 A 
HETATM   16  C   UNL     1      -4.670  -2.898 -33.838  1.00  0.00     0.007 A 
HETATM   17  C   UNL     1      -4.374  -4.140 -34.400  1.00  0.00     0.001 A 
HETATM   18  C   UNL     1      -5.363  -4.859 -35.063  1.00  0.00     0.000 A 
HETATM   19  C   UNL     1      -6.650  -4.339 -35.163  1.00  0.00     0.001 A 
HETATM   20  C   UNL     1      -6.951  -3.096 -34.602  1.00  0.00     0.007 A 
ENDBRANCH  11  15
BRANCH   1  21
HETATM   21  C   UNL     1     -11.280   2.269 -33.118  1.00  0.00     0.277 C 
BRANCH  21  22
HETATM   22  C   UNL     1     -12.513   3.043 -32.818  1.00  0.00     0.011 A 
HETATM   23  C   UNL     1     -12.621   4.442 -32.609  1.00  0.00     0.149 A 
HETATM   24  N   UNL     1     -13.849   4.835 -32.302  1.00  0.00    -0.185 NA
HETATM   25  N   UNL     1     -14.579   3.713 -32.375  1.00  0.00    -0.278 N 
HETATM   26  C   UNL     1     -16.003   3.779 -32.131  1.00  0.00     0.179 C 
HETATM   27  C   UNL     1     -13.831   2.607 -32.720  1.00  0.00     0.043 A 
BRANCH  27  28
HETATM   28  C   UNL     1     -14.456   1.231 -32.956  1.00  0.00     0.038 A 
HETATM   29  C   UNL     1     -14.857   0.834 -34.361  1.00  0.00     0.011 A 
HETATM   30  C   UNL     1     -13.732   0.126 -33.685  1.00  0.00     0.011 A 
ENDBRANCH  27  28
ENDBRANCH  21  22
ENDBRANCH   1  21
TORSDOF 4
ENDMDL
MODEL 5
REMARK VINA RESULT:      -9.1      1.537      2.500
REMARK  4 active torsions:
REMARK  status: ('A' for Active; 'I' for Inactive)
REMARK    1  A    between atoms: C_5  and  C_6 
REMARK    2  A    between atoms: C_6  and  N_7 
REMARK    3  A    between atoms: C_17  and  C_18 
REMARK    4  A    between atoms: C_27  and  C_28 
ROOT
HETATM    1  N   UNL     1      -4.863   5.580 -32.945  1.00  0.00    -0.067 N 
HETATM    2  H   UNL     1      -5.055   6.569 -32.726  1.00  0.00     0.280 HD
HETATM    3  C   UNL     1      -6.003   5.089 -33.792  1.00  0.00     0.236 C 
HETATM    4  C   UNL     1      -5.957   3.571 -33.979  1.00  0.00     0.039 C 
HETATM    5  C   UNL     1      -5.841   2.749 -32.666  1.00  0.00    -0.013 C 
HETATM    6  C   UNL     1      -7.168   2.719 -31.855  1.00  0.00     0.244 C 
HETATM    7  N   UNL     1      -8.242   1.908 -32.539  1.00  0.00    -0.073 N 
HETATM    8  H   UNL     1      -8.486   2.323 -33.448  1.00  0.00     0.279 HD
HETATM    9  C   UNL     1      -9.536   1.915 -31.746  1.00  0.00     0.269 C 
HETATM   10  C   UNL     1      -7.815   0.474 -32.819  1.00  0.00     0.243 C 
HETATM   11  C   UNL     1      -6.550   0.480 -33.684  1.00  0.00     0.045 C 
HETATM   12  C   UNL     1      -5.432   1.283 -32.996  1.00  0.00     0.022 C 
HETATM   13  C   UNL     1      -4.704   3.370 -31.800  1.00  0.00     0.039 C 
HETATM   14  C   UNL     1      -4.798   4.884 -31.613  1.00  0.00     0.236 C 
ENDROOT
BRANCH  11  15
HETATM   15  C   UNL     1      -6.120  -0.931 -34.026  1.00  0.00    -0.052 A 
HETATM   16  C   UNL     1      -7.083  -1.868 -34.436  1.00  0.00     0.007 A 
HETATM   17  C   UNL     1      -6.719  -3.180 -34.737  1.00  0.00     0.001 A 
HETATM   18  C   UNL     1      -5.390  -3.577 -34.634  1.00  0.00     0.000 A 
HETATM   19  C   UNL     1      -4.421  -2.661 -34.232  1.00  0.00     0.001 A 
HETATM   20  C   UNL     1      -4.782  -1.346 -33.929  1.00  0.00     0.007 A 
ENDBRANCH  11  15
BRANCH   1  21
HETATM   21  C   UNL     1      -3.504   5.652 -33.650  1.00  0.00     0.277 C 
BRANCH  21  22
HETATM   22  C   UNL     1      -2.296   5.719 -32.785  1.00  0.00     0.011 A 
HETATM   23  C   UNL     1      -1.340   4.696 -32.560  1.00  0.00     0.149 A 
HETATM   24  N   UNL     1      -0.401   5.035 -31.689  1.00  0.00    -0.185 NA
HETATM   25  N   UNL     1      -0.684   6.309 -31.383  1.00  0.00    -0.278 N 
HETATM   26  C   UNL     1       0.178   7.024 -30.467  1.00  0.00     0.179 C 
HETATM   27  C   UNL     1      -1.795   6.786 -32.044  1.00  0.00     0.043 A 
BRANCH  27  28
HETATM   28  C   UNL     1      -2.261   8.239 -31.931  1.00  0.00     0.038 A 
HETATM   29  C   UNL     1      -3.571   8.542 -31.236  1.00  0.00     0.011 A 
HETATM   30  C   UNL     1      -2.288   8.984 -30.619  1.00  0.00     0.011 A 
ENDBRANCH  27  28
ENDBRANCH  21  22
ENDBRANCH   1  21
TORSDOF 4
ENDMDL
MODEL 6
REMARK VINA RESULT:      -8.8      3.992      7.522
REMARK  4 active torsions:
REMARK  status: ('A' for Active; 'I' for Inactive)
REMARK    1  A    between atoms: C_5  and  C_6 
REMARK    2  A    between atoms: C_6  and  N_7 
REMARK    3  A    between atoms: C_17  and  C_18 
REMARK    4  A    between atoms: C_27  and  C_28 
ROOT
HETATM    1  N   UNL     1     -10.003   3.719 -33.235  1.00  0.00    -0.067 N 
HETATM    2  H   UNL     1     -10.444   4.534 -32.785  1.00  0.00     0.280 HD
HETATM    3  C   UNL     1     -10.062   2.587 -32.250  1.00  0.00     0.236 C 
HETATM    4  C   UNL     1      -9.223   1.392 -32.707  1.00  0.00     0.039 C 
HETATM    5  C   UNL     1      -7.754   1.727 -33.087  1.00  0.00    -0.013 C 
HETATM    6  C   UNL     1      -6.862   2.018 -31.846  1.00  0.00     0.244 C 
HETATM    7  N   UNL     1      -6.609   0.782 -31.017  1.00  0.00    -0.073 N 
HETATM    8  H   UNL     1      -7.492   0.412 -30.640  1.00  0.00     0.279 HD
HETATM    9  C   UNL     1      -5.761   1.093 -29.797  1.00  0.00     0.269 C 
HETATM   10  C   UNL     1      -5.972  -0.348 -31.815  1.00  0.00     0.243 C 
HETATM   11  C   UNL     1      -6.874  -0.704 -33.001  1.00  0.00     0.045 C 
HETATM   12  C   UNL     1      -7.130   0.538 -33.875  1.00  0.00     0.022 C 
HETATM   13  C   UNL     1      -7.765   2.964 -34.034  1.00  0.00     0.039 C 
HETATM   14  C   UNL     1      -8.591   4.147 -33.532  1.00  0.00     0.236 C 
ENDROOT
BRANCH  11  15
HETATM   15  C   UNL     1      -6.299  -1.858 -33.794  1.00  0.00    -0.052 A 
HETATM   16  C   UNL     1      -7.164  -2.819 -34.343  1.00  0.00     0.007 A 
HETATM   17  C   UNL     1      -6.661  -3.905 -35.060  1.00  0.00     0.001 A 
HETATM   18  C   UNL     1      -5.289  -4.047 -35.240  1.00  0.00     0.000 A 
HETATM   19  C   UNL     1      -4.417  -3.103 -34.705  1.00  0.00     0.001 A 
HETATM   20  C   UNL     1      -4.917  -2.014 -33.986  1.00  0.00     0.007 A 
ENDBRANCH  11  15
BRANCH   1  21
HETATM   21  C   UNL     1     -10.851   3.537 -34.499  1.00  0.00     0.277 C 
BRANCH  21  22
HETATM   22  C   UNL     1     -12.078   2.707 -34.376  1.00  0.00     0.011 A 
HETATM   23  C   UNL     1     -12.387   1.517 -35.084  1.00  0.00     0.149 A 
HETATM   24  N   UNL     1     -13.587   1.032 -34.800  1.00  0.00    -0.185 NA
HETATM   25  N   UNL     1     -14.055   1.855 -33.850  1.00  0.00    -0.278 N 
HETATM   26  C   UNL     1     -15.355   1.596 -33.269  1.00  0.00     0.179 C 
HETATM   27  C   UNL     1     -13.171   2.861 -33.528  1.00  0.00     0.043 A 
BRANCH  27  28
HETATM   28  C   UNL     1     -13.440   3.867 -32.407  1.00  0.00     0.038 A 
HETATM   29  C   UNL     1     -13.616   5.330 -32.755  1.00  0.00     0.011 A 
HETATM   30  C   UNL     1     -14.774   4.551 -32.232  1.00  0.00     0.011 A 
ENDBRANCH  27  28
ENDBRANCH  21  22
ENDBRANCH   1  21
TORSDOF 4
ENDMDL
MODEL 7
REMARK VINA RESULT:      -8.7      2.818      6.235
REMARK  4 active torsions:
REMARK  status: ('A' for Active; 'I' for Inactive)
REMARK    1  A    between atoms: C_5  and  C_6 
REMARK    2  A    between atoms: C_6  and  N_7 
REMARK    3  A    between atoms: C_17  and  C_18 
REMARK    4  A    between atoms: C_27  and  C_28 
ROOT
HETATM    1  N   UNL     1      -8.808   4.126 -30.879  1.00  0.00    -0.067 N 
HETATM    2  H   UNL     1      -8.956   4.996 -30.348  1.00  0.00     0.280 HD
HETATM    3  C   UNL     1      -7.899   3.257 -30.056  1.00  0.00     0.236 C 
HETATM    4  C   UNL     1      -7.409   2.042 -30.845  1.00  0.00     0.039 C 
HETATM    5  C   UNL     1      -6.774   2.365 -32.226  1.00  0.00    -0.013 C 
HETATM    6  C   UNL     1      -5.357   2.995 -32.105  1.00  0.00     0.244 C 
HETATM    7  N   UNL     1      -4.330   2.008 -31.605  1.00  0.00    -0.073 N 
HETATM    8  H   UNL     1      -4.568   1.685 -30.658  1.00  0.00     0.279 HD
HETATM    9  C   UNL     1      -2.961   2.649 -31.468  1.00  0.00     0.269 C 
HETATM   10  C   UNL     1      -4.231   0.762 -32.475  1.00  0.00     0.243 C 
HETATM   11  C   UNL     1      -5.602   0.081 -32.545  1.00  0.00     0.045 C 
HETATM   12  C   UNL     1      -6.664   1.063 -33.073  1.00  0.00     0.022 C 
HETATM   13  C   UNL     1      -7.725   3.339 -32.984  1.00  0.00     0.039 C 
HETATM   14  C   UNL     1      -8.172   4.555 -32.174  1.00  0.00     0.236 C 
ENDROOT
BRANCH  11  15
HETATM   15  C   UNL     1      -5.536  -1.191 -33.363  1.00  0.00    -0.052 A 
HETATM   16  C   UNL     1      -6.700  -1.677 -33.981  1.00  0.00     0.007 A 
HETATM   17  C   UNL     1      -6.674  -2.857 -34.724  1.00  0.00     0.001 A 
HETATM   18  C   UNL     1      -5.486  -3.570 -34.861  1.00  0.00     0.000 A 
HETATM   19  C   UNL     1      -4.323  -3.101 -34.257  1.00  0.00     0.001 A 
HETATM   20  C   UNL     1      -4.345  -1.920 -33.512  1.00  0.00     0.007 A 
ENDBRANCH  11  15
BRANCH   1  21
HETATM   21  C   UNL     1     -10.235   3.598 -31.061  1.00  0.00     0.277 C 
BRANCH  21  22
HETATM   22  C   UNL     1     -10.933   3.954 -32.325  1.00  0.00     0.011 A 
HETATM   23  C   UNL     1     -11.234   5.254 -32.805  1.00  0.00     0.149 A 
HETATM   24  N   UNL     1     -11.918   5.250 -33.940  1.00  0.00    -0.185 NA
HETATM   25  N   UNL     1     -12.013   3.951 -34.259  1.00  0.00    -0.278 N 
HETATM   26  C   UNL     1     -12.681   3.572 -35.486  1.00  0.00     0.179 C 
HETATM   27  C   UNL     1     -11.404   3.126 -33.340  1.00  0.00     0.043 A 
BRANCH  27  28
HETATM   28  C   UNL     1     -11.299   1.612 -33.533  1.00  0.00     0.038 A 
HETATM   29  C   UNL     1     -10.129   1.046 -34.310  1.00  0.00     0.011 A 
HETATM   30  C   UNL     1     -10.244   0.777 -32.848  1.00  0.00     0.011 A 
ENDBRANCH  27  28
ENDBRANCH  21  22
ENDBRANCH   1  21
TORSDOF 4
ENDMDL
MODEL 8
REMARK VINA RESULT:      -8.5      2.327      8.656
REMARK  4 active torsions:
REMARK  status: ('A' for Active; 'I' for Inactive)
REMARK    1  A    between atoms: C_5  and  C_6 
REMARK    2  A    between atoms: C_6  and  N_7 
REMARK    3  A    between atoms: C_17  and  C_18 
REMARK    4  A    between atoms: C_27  and  C_28 
ROOT
HETATM    1  N   UNL     1      -5.628   0.224 -32.269  1.00  0.00    -0.067 N 
HETATM    2  H   UNL     1      -6.178  -0.633 -32.109  1.00  0.00     0.280 HD
HETATM    3  C   UNL     1      -5.208   0.735 -30.920  1.00  0.00     0.236 C 
HETATM    4  C   UNL     1      -4.594   2.133 -31.010  1.00  0.00     0.039 C 
HETATM    5  C   UNL     1      -5.457   3.184 -31.762  1.00  0.00    -0.013 C 
HETATM    6  C   UNL     1      -6.687   3.657 -30.936  1.00  0.00     0.244 C 
HETATM    7  N   UNL     1      -6.291   4.496 -29.745  1.00  0.00    -0.073 N 
HETATM    8  H   UNL     1      -5.715   3.948 -29.091  1.00  0.00     0.279 HD
HETATM    9  C   UNL     1      -7.502   4.923 -28.937  1.00  0.00     0.269 C 
HETATM   10  C   UNL     1      -5.467   5.718 -30.127  1.00  0.00     0.243 C 
HETATM   11  C   UNL     1      -4.208   5.269 -30.877  1.00  0.00     0.045 C 
HETATM   12  C   UNL     1      -4.588   4.428 -32.109  1.00  0.00     0.022 C 
HETATM   13  C   UNL     1      -5.932   2.553 -33.106  1.00  0.00     0.039 C 
HETATM   14  C   UNL     1      -6.563   1.168 -32.974  1.00  0.00     0.236 C 
ENDROOT
BRANCH  11  15
HETATM   15  C   UNL     1      -3.336   6.454 -31.233  1.00  0.00    -0.052 A 
HETATM   16  C   UNL     1      -3.198   7.510 -30.317  1.00  0.00     0.007 A 
HETATM   17  C   UNL     1      -2.418   8.624 -30.626  1.00  0.00     0.001 A 
HETATM   18  C   UNL     1      -1.765   8.701 -31.852  1.00  0.00     0.000 A 
HETATM   19  C   UNL     1      -1.889   7.662 -32.771  1.00  0.00     0.001 A 
HETATM   20  C   UNL     1      -2.669   6.544 -32.465  1.00  0.00     0.007 A 
ENDBRANCH  11  15
BRANCH   1  21
HETATM   21  C   UNL     1      -4.490  -0.273 -33.168  1.00  0.00     0.277 C 
BRANCH  21  22
HETATM   22  C   UNL     1      -4.084  -1.695 -33.022  1.00  0.00     0.011 A 
HETATM   23  C   UNL     1      -3.257  -2.256 -32.015  1.00  0.00     0.149 A 
HETATM   24  N   UNL     1      -3.026  -3.549 -32.183  1.00  0.00    -0.185 NA
HETATM   25  N   UNL     1      -3.754  -3.874 -33.261  1.00  0.00    -0.278 N 
HETATM   26  C   UNL     1      -3.767  -5.247 -33.718  1.00  0.00     0.179 C 
HETATM   27  C   UNL     1      -4.443  -2.802 -33.786  1.00  0.00     0.043 A 
BRANCH  27  28
HETATM   28  C   UNL     1      -5.415  -2.942 -34.959  1.00  0.00     0.038 A 
HETATM   29  C   UNL     1      -6.732  -3.656 -34.746  1.00  0.00     0.011 A 
HETATM   30  C   UNL     1      -6.722  -2.191 -35.025  1.00  0.00     0.011 A 
ENDBRANCH  27  28
ENDBRANCH  21  22
ENDBRANCH   1  21
TORSDOF 4
ENDMDL
MODEL 9
REMARK VINA RESULT:      -8.5      2.033      8.021
REMARK  4 active torsions:
REMARK  status: ('A' for Active; 'I' for Inactive)
REMARK    1  A    between atoms: C_5  and  C_6 
REMARK    2  A    between atoms: C_6  and  N_7 
REMARK    3  A    between atoms: C_17  and  C_18 
REMARK    4  A    between atoms: C_27  and  C_28 
ROOT
HETATM    1  N   UNL     1      -7.476   1.542 -31.767  1.00  0.00    -0.067 N 
HETATM    2  H   UNL     1      -8.455   1.228 -31.841  1.00  0.00     0.280 HD
HETATM    3  C   UNL     1      -7.433   2.602 -30.702  1.00  0.00     0.236 C 
HETATM    4  C   UNL     1      -6.083   3.318 -30.669  1.00  0.00     0.039 C 
HETATM    5  C   UNL     1      -5.601   3.879 -32.036  1.00  0.00    -0.013 C 
HETATM    6  C   UNL     1      -6.386   5.147 -32.478  1.00  0.00     0.244 C 
HETATM    7  N   UNL     1      -6.074   6.346 -31.615  1.00  0.00    -0.073 N 
HETATM    8  H   UNL     1      -6.356   6.175 -30.641  1.00  0.00     0.279 HD
HETATM    9  C   UNL     1      -6.871   7.564 -32.045  1.00  0.00     0.269 C 
HETATM   10  C   UNL     1      -4.590   6.685 -31.583  1.00  0.00     0.243 C 
HETATM   11  C   UNL     1      -3.803   5.472 -31.076  1.00  0.00     0.045 C 
HETATM   12  C   UNL     1      -4.088   4.240 -31.954  1.00  0.00     0.022 C 
HETATM   13  C   UNL     1      -5.759   2.758 -33.106  1.00  0.00     0.039 C 
HETATM   14  C   UNL     1      -7.130   2.083 -33.127  1.00  0.00     0.236 C 
ENDROOT
BRANCH  11  15
HETATM   15  C   UNL     1      -2.325   5.784 -30.983  1.00  0.00    -0.052 A 
HETATM   16  C   UNL     1      -1.897   6.885 -30.222  1.00  0.00     0.007 A 
HETATM   17  C   UNL     1      -0.543   7.210 -30.136  1.00  0.00     0.001 A 
HETATM   18  C   UNL     1       0.403   6.440 -30.805  1.00  0.00     0.000 A 
HETATM   19  C   UNL     1      -0.003   5.344 -31.561  1.00  0.00     0.001 A 
HETATM   20  C   UNL     1      -1.358   5.016 -31.651  1.00  0.00     0.007 A 
ENDBRANCH  11  15
BRANCH   1  21
HETATM   21  C   UNL     1      -6.733   0.244 -31.432  1.00  0.00     0.277 C 
BRANCH  21  22
HETATM   22  C   UNL     1      -6.460  -0.689 -32.557  1.00  0.00     0.011 A 
HETATM   23  C   UNL     1      -7.375  -1.139 -33.544  1.00  0.00     0.149 A 
HETATM   24  N   UNL     1      -6.850  -2.016 -34.387  1.00  0.00    -0.185 NA
HETATM   25  N   UNL     1      -5.565  -2.101 -34.012  1.00  0.00    -0.278 N 
HETATM   26  C   UNL     1      -4.668  -2.959 -34.755  1.00  0.00     0.179 C 
HETATM   27  C   UNL     1      -5.265  -1.293 -32.937  1.00  0.00     0.043 A 
BRANCH  27  28
HETATM   28  C   UNL     1      -3.845  -1.147 -32.387  1.00  0.00     0.038 A 
HETATM   29  C   UNL     1      -3.030   0.074 -32.761  1.00  0.00     0.011 A 
HETATM   30  C   UNL     1      -3.477  -0.113 -31.351  1.00  0.00     0.011 A 
ENDBRANCH  27  28
ENDBRANCH  21  22
ENDBRANCH   1  21
TORSDOF 4
ENDMDL
MODEL 10
REMARK VINA RESULT:      -8.5      3.310      6.708
REMARK  4 active torsions:
REMARK  status: ('A' for Active; 'I' for Inactive)
REMARK    1  A    between atoms: C_5  and  C_6 
REMARK    2  A    between atoms: C_6  and  N_7 
REMARK    3  A    between atoms: C_17  and  C_18 
REMARK    4  A    between atoms: C_27  and  C_28 
ROOT
HETATM    1  N   UNL     1      -9.337   3.153 -32.432  1.00  0.00    -0.067 N 
HETATM    2  H   UNL     1      -9.560   4.070 -32.017  1.00  0.00     0.280 HD
HETATM    3  C   UNL     1      -8.542   2.390 -31.411  1.00  0.00     0.236 C 
HETATM    4  C   UNL     1      -7.943   1.111 -31.998  1.00  0.00     0.039 C 
HETATM    5  C   UNL     1      -7.129   1.306 -33.307  1.00  0.00    -0.013 C 
HETATM    6  C   UNL     1      -5.746   1.972 -33.063  1.00  0.00     0.244 C 
HETATM    7  N   UNL     1      -4.790   1.061 -32.332  1.00  0.00    -0.073 N 
HETATM    8  H   UNL     1      -5.151   0.830 -31.397  1.00  0.00     0.279 HD
HETATM    9  C   UNL     1      -3.456   1.739 -32.079  1.00  0.00     0.269 C 
HETATM   10  C   UNL     1      -4.567  -0.264 -33.049  1.00  0.00     0.243 C 
HETATM   11  C   UNL     1      -5.912  -0.975 -33.231  1.00  0.00     0.045 C 
HETATM   12  C   UNL     1      -6.899  -0.072 -33.994  1.00  0.00     0.022 C 
HETATM   13  C   UNL     1      -7.975   2.181 -34.281  1.00  0.00     0.039 C 
HETATM   14  C   UNL     1      -8.534   3.463 -33.667  1.00  0.00     0.236 C 
ENDROOT
BRANCH  11  15
HETATM   15  C   UNL     1      -5.729  -2.321 -33.899  1.00  0.00    -0.052 A 
HETATM   16  C   UNL     1      -6.818  -2.924 -34.552  1.00  0.00     0.007 A 
HETATM   17  C   UNL     1      -6.684  -4.173 -35.157  1.00  0.00     0.001 A 
HETATM   18  C   UNL     1      -5.463  -4.839 -35.122  1.00  0.00     0.000 A 
HETATM   19  C   UNL     1      -4.373  -4.255 -34.481  1.00  0.00     0.001 A 
HETATM   20  C   UNL     1      -4.503  -3.005 -33.873  1.00  0.00     0.007 A 
ENDBRANCH  11  15
BRANCH   1  21
HETATM   21  C   UNL     1     -10.723   2.583 -32.748  1.00  0.00     0.277 C 
BRANCH  21  22
HETATM   22  C   UNL     1     -11.494   3.240 -33.836  1.00  0.00     0.011 A 
HETATM   23  C   UNL     1     -11.919   2.662 -35.060  1.00  0.00     0.149 A 
HETATM   24  N   UNL     1     -12.541   3.518 -35.858  1.00  0.00    -0.185 NA
HETATM   25  N   UNL     1     -12.597   4.650 -35.142  1.00  0.00    -0.278 N 
HETATM   26  C   UNL     1     -13.257   5.810 -35.704  1.00  0.00     0.179 C 
HETATM   27  C   UNL     1     -12.014   4.530 -33.899  1.00  0.00     0.043 A 
BRANCH  27  28
HETATM   28  C   UNL     1     -12.037   5.657 -32.865  1.00  0.00     0.038 A 
HETATM   29  C   UNL     1     -13.276   5.858 -32.019  1.00  0.00     0.011 A 
HETATM   30  C   UNL     1     -12.011   5.396 -31.379  1.00  0.00     0.011 A 
ENDBRANCH  27  28
ENDBRANCH  21  22
ENDBRANCH   1  21
TORSDOF 4
ENDMDL
