MODEL 1
REMARK VINA RESULT:      -8.8      0.000      0.000
REMARK  5 active torsions:
REMARK  status: ('A' for Active; 'I' for Inactive)
REMARK    1  A    between atoms: C_9  and  C_10 
REMARK       I    between atoms: C_10  and  N_11 
REMARK    2  A    between atoms: N_11  and  C_12 
REMARK    3  A    between atoms: C_15  and  C_16 
REMARK    4  A    between atoms: C_16  and  C_17 
REMARK       I    between atoms: C_17  and  N_18 
REMARK    5  A    between atoms: N_18  and  C_19 
ROOT
HETATM    1  C   UNL     1      -4.995   0.303 -32.658  1.00  0.00     0.277 C 
HETATM    2  N   UNL     1      -6.366   0.118 -32.675  1.00  0.00    -0.322 N 
HETATM    3  O   UNL     1      -4.405   1.374 -32.745  1.00  0.00    -0.266 OA
HETATM    4  H   UNL     1      -6.633  -0.863 -32.612  1.00  0.00     0.169 HD
ENDROOT
BRANCH   2   5
HETATM    5  C   UNL     1      -7.380   1.083 -32.565  1.00  0.00     0.035 A 
HETATM    6  C   UNL     1      -7.813   1.627 -31.355  1.00  0.00     0.030 A 
HETATM    7  C   UNL     1      -8.931   2.472 -31.317  1.00  0.00     0.010 A 
HETATM    8  C   UNL     1      -9.630   2.785 -32.489  1.00  0.00    -0.049 A 
HETATM    9  C   UNL     1      -9.150   2.294 -33.709  1.00  0.00     0.010 A 
HETATM   10  C   UNL     1      -8.034   1.454 -33.745  1.00  0.00     0.030 A 
BRANCH   8  11
HETATM   11  C   UNL     1     -10.919   3.571 -32.435  1.00  0.00     0.141 C 
BRANCH  11  12
HETATM   12  C   UNL     1     -12.085   3.073 -33.266  1.00  0.00     0.222 C 
HETATM   13  N   UNL     1     -12.946   2.189 -32.656  1.00  0.00    -0.357 N 
HETATM   14  H   UNL     1     -12.706   1.841 -31.736  1.00  0.00     0.162 HD
HETATM   15  O   UNL     1     -12.278   3.525 -34.394  1.00  0.00    -0.273 OA
BRANCH  13  16
HETATM   16  C   UNL     1     -14.189   1.713 -33.253  1.00  0.00     0.076 C 
HETATM   17  C   UNL     1     -14.097   0.242 -33.659  1.00  0.00     0.032 C 
HETATM   18  C   UNL     1     -15.409   1.975 -32.373  1.00  0.00     0.032 C 
ENDBRANCH  13  16
ENDBRANCH  11  12
ENDBRANCH   8  11
ENDBRANCH   2   5
BRANCH   1  19
HETATM   19  C   UNL     1      -4.284  -0.978 -32.465  1.00  0.00     0.157 A 
HETATM   20  C   UNL     1      -4.509  -2.209 -33.149  1.00  0.00     0.029 A 
HETATM   21  C   UNL     1      -5.406  -2.680 -34.130  1.00  0.00     0.023 A 
HETATM   22  C   UNL     1      -3.531  -3.072 -32.671  1.00  0.00     0.063 A 
HETATM   23  C   UNL     1      -5.288  -3.998 -34.603  1.00  0.00    -0.061 A 
HETATM   24  C   UNL     1      -6.228  -4.519 -35.650  1.00  0.00     0.048 C 
HETATM   25  C   UNL     1      -4.282  -4.831 -34.096  1.00  0.00     0.009 A 
HETATM   26  C   UNL     1      -3.385  -4.387 -33.119  1.00  0.00     0.032 A 
HETATM   27  N   UNL     1      -2.827  -2.346 -31.752  1.00  0.00    -0.277 N 
HETATM   28  H   UNL     1      -2.035  -2.660 -31.201  1.00  0.00     0.189 HD
HETATM   29  N   UNL     1      -3.245  -1.075 -31.603  1.00  0.00    -0.168 NA
ENDBRANCH   1  19
TORSDOF 5
ENDMDL
MODEL 2
REMARK VINA RESULT:      -8.8      5.027      7.506
REMARK  5 active torsions:
REMARK  status: ('A' for Active; 'I' for Inactive)
REMARK    1  A    between atoms: C_9  and  C_10 
REMARK       I    between atoms: C_10  and  N_11 
REMARK    2  A    between atoms: N_11  and  C_12 
REMARK    3  A    between atoms: C_15  and  C_16 
REMARK    4  A    between atoms: C_16  and  C_17 
REMARK       I    between atoms: C_17  and  N_18 
REMARK    5  A    between atoms: N_18  and  C_19 
ROOT
HETATM    1  C   UNL     1      -4.525   0.424 -32.692  1.00  0.00     0.277 C 
HETATM    2  N   UNL     1      -3.816   1.389 -31.998  1.00  0.00    -0.322 N 
HETATM    3  O   UNL     1      -5.475   0.619 -33.441  1.00  0.00    -0.266 OA
HETATM    4  H   UNL     1      -3.080   0.994 -31.416  1.00  0.00     0.169 HD
ENDROOT
BRANCH   2   5
HETATM    5  C   UNL     1      -3.855   2.783 -32.154  1.00  0.00     0.035 A 
HETATM    6  C   UNL     1      -3.050   3.493 -33.047  1.00  0.00     0.030 A 
HETATM    7  C   UNL     1      -3.042   4.894 -33.035  1.00  0.00     0.010 A 
HETATM    8  C   UNL     1      -3.839   5.605 -32.130  1.00  0.00    -0.049 A 
HETATM    9  C   UNL     1      -4.697   4.891 -31.284  1.00  0.00     0.010 A 
HETATM   10  C   UNL     1      -4.705   3.494 -31.300  1.00  0.00     0.030 A 
BRANCH   8  11
HETATM   11  C   UNL     1      -3.724   7.106 -32.011  1.00  0.00     0.141 C 
BRANCH  11  12
HETATM   12  C   UNL     1      -2.351   7.689 -31.731  1.00  0.00     0.222 C 
HETATM   13  N   UNL     1      -1.610   7.080 -30.745  1.00  0.00    -0.357 N 
HETATM   14  H   UNL     1      -2.049   6.352 -30.194  1.00  0.00     0.162 HD
HETATM   15  O   UNL     1      -1.914   8.603 -32.430  1.00  0.00    -0.273 OA
BRANCH  13  16
HETATM   16  C   UNL     1      -0.225   7.417 -30.435  1.00  0.00     0.076 C 
HETATM   17  C   UNL     1      -0.010   7.604 -28.934  1.00  0.00     0.032 C 
HETATM   18  C   UNL     1       0.774   6.426 -31.025  1.00  0.00     0.032 C 
ENDBRANCH  13  16
ENDBRANCH  11  12
ENDBRANCH   8  11
ENDBRANCH   2   5
BRANCH   1  19
HETATM   19  C   UNL     1      -3.961  -0.923 -32.464  1.00  0.00     0.157 A 
HETATM   20  C   UNL     1      -4.306  -2.135 -33.133  1.00  0.00     0.029 A 
HETATM   21  C   UNL     1      -5.230  -2.522 -34.125  1.00  0.00     0.023 A 
HETATM   22  C   UNL     1      -3.437  -3.089 -32.621  1.00  0.00     0.063 A 
HETATM   23  C   UNL     1      -5.247  -3.854 -34.575  1.00  0.00    -0.061 A 
HETATM   24  C   UNL     1      -6.218  -4.288 -35.633  1.00  0.00     0.048 C 
HETATM   25  C   UNL     1      -4.348  -4.782 -34.034  1.00  0.00     0.009 A 
HETATM   26  C   UNL     1      -3.427  -4.421 -33.045  1.00  0.00     0.032 A 
HETATM   27  N   UNL     1      -2.676  -2.428 -31.698  1.00  0.00    -0.277 N 
HETATM   28  H   UNL     1      -1.934  -2.817 -31.127  1.00  0.00     0.189 HD
HETATM   29  N   UNL     1      -2.956  -1.117 -31.579  1.00  0.00    -0.168 NA
ENDBRANCH   1  19
TORSDOF 5
ENDMDL
MODEL 3
REMARK VINA RESULT:      -8.6      5.986      9.250
REMARK  5 active torsions:
REMARK  status: ('A' for Active; 'I' for Inactive)
REMARK    1  A    between atoms: C_9  and  C_10 
REMARK       I    between atoms: C_10  and  N_11 
REMARK    2  A    between atoms: N_11  and  C_12 
REMARK    3  A    between atoms: C_15  and  C_16 
REMARK    4  A    between atoms: C_16  and  C_17 
REMARK       I    between atoms: C_17  and  N_18 
REMARK    5  A    between atoms: N_18  and  C_19 
ROOT
HETATM    1  C   UNL     1      -4.267   2.092 -32.127  1.00  0.00     0.277 C 
HETATM    2  N   UNL     1      -4.052   3.290 -32.786  1.00  0.00    -0.322 N 
HETATM    3  O   UNL     1      -3.548   1.595 -31.269  1.00  0.00    -0.266 OA
HETATM    4  H   UNL     1      -4.771   3.494 -33.477  1.00  0.00     0.169 HD
ENDROOT
BRANCH   2   5
HETATM    5  C   UNL     1      -3.126   4.300 -32.482  1.00  0.00     0.035 A 
HETATM    6  C   UNL     1      -1.948   4.522 -33.196  1.00  0.00     0.030 A 
HETATM    7  C   UNL     1      -1.004   5.452 -32.739  1.00  0.00     0.010 A 
HETATM    8  C   UNL     1      -1.227   6.173 -31.559  1.00  0.00    -0.049 A 
HETATM    9  C   UNL     1      -2.440   5.998 -30.883  1.00  0.00     0.010 A 
HETATM   10  C   UNL     1      -3.381   5.072 -31.343  1.00  0.00     0.030 A 
BRANCH   8  11
HETATM   11  C   UNL     1      -0.151   7.062 -30.982  1.00  0.00     0.141 C 
BRANCH  11  12
HETATM   12  C   UNL     1       0.476   6.650 -29.664  1.00  0.00     0.222 C 
HETATM   13  N   UNL     1       0.631   7.636 -28.717  1.00  0.00    -0.357 N 
HETATM   14  H   UNL     1       0.418   8.591 -28.979  1.00  0.00     0.162 HD
HETATM   15  O   UNL     1       0.738   5.467 -29.448  1.00  0.00    -0.273 OA
BRANCH  13  16
HETATM   16  C   UNL     1       1.088   7.397 -27.353  1.00  0.00     0.076 C 
HETATM   17  C   UNL     1       1.839   8.602 -26.788  1.00  0.00     0.032 C 
HETATM   18  C   UNL     1      -0.035   6.950 -26.421  1.00  0.00     0.032 C 
ENDBRANCH  13  16
ENDBRANCH  11  12
ENDBRANCH   8  11
ENDBRANCH   2   5
BRANCH   1  19
HETATM   19  C   UNL     1      -5.539   1.469 -32.551  1.00  0.00     0.157 A 
HETATM   20  C   UNL     1      -5.719   0.204 -33.185  1.00  0.00     0.029 A 
HETATM   21  C   UNL     1      -4.880  -0.828 -33.653  1.00  0.00     0.023 A 
HETATM   22  C   UNL     1      -7.095   0.046 -33.291  1.00  0.00     0.063 A 
HETATM   23  C   UNL     1      -5.451  -1.987 -34.207  1.00  0.00    -0.061 A 
HETATM   24  C   UNL     1      -4.578  -3.101 -34.708  1.00  0.00     0.048 C 
HETATM   25  C   UNL     1      -6.844  -2.107 -34.288  1.00  0.00     0.009 A 
HETATM   26  C   UNL     1      -7.695  -1.093 -33.835  1.00  0.00     0.032 A 
HETATM   27  N   UNL     1      -7.632   1.186 -32.761  1.00  0.00    -0.277 N 
HETATM   28  H   UNL     1      -8.616   1.415 -32.674  1.00  0.00     0.189 HD
HETATM   29  N   UNL     1      -6.726   2.067 -32.297  1.00  0.00    -0.168 NA
ENDBRANCH   1  19
TORSDOF 5
ENDMDL
MODEL 4
REMARK VINA RESULT:      -8.4      4.787      7.927
REMARK  5 active torsions:
REMARK  status: ('A' for Active; 'I' for Inactive)
REMARK    1  A    between atoms: C_9  and  C_10 
REMARK       I    between atoms: C_10  and  N_11 
REMARK    2  A    between atoms: N_11  and  C_12 
REMARK    3  A    between atoms: C_15  and  C_16 
REMARK    4  A    between atoms: C_16  and  C_17 
REMARK       I    between atoms: C_17  and  N_18 
REMARK    5  A    between atoms: N_18  and  C_19 
ROOT
HETATM    1  C   UNL     1      -4.925   0.434 -32.329  1.00  0.00     0.277 C 
HETATM    2  N   UNL     1      -4.830   1.715 -32.843  1.00  0.00    -0.322 N 
HETATM    3  O   UNL     1      -4.432   0.033 -31.281  1.00  0.00    -0.266 OA
HETATM    4  H   UNL     1      -5.300   1.815 -33.741  1.00  0.00     0.169 HD
ENDROOT
BRANCH   2   5
HETATM    5  C   UNL     1      -4.369   2.880 -32.209  1.00  0.00     0.035 A 
HETATM    6  C   UNL     1      -5.094   3.587 -31.250  1.00  0.00     0.030 A 
HETATM    7  C   UNL     1      -4.628   4.821 -30.776  1.00  0.00     0.010 A 
HETATM    8  C   UNL     1      -3.430   5.364 -31.255  1.00  0.00    -0.049 A 
HETATM    9  C   UNL     1      -2.671   4.619 -32.165  1.00  0.00     0.010 A 
HETATM   10  C   UNL     1      -3.136   3.387 -32.635  1.00  0.00     0.030 A 
BRANCH   8  11
HETATM   11  C   UNL     1      -3.000   6.757 -30.861  1.00  0.00     0.141 C 
BRANCH  11  12
HETATM   12  C   UNL     1      -1.565   6.953 -30.408  1.00  0.00     0.222 C 
HETATM   13  N   UNL     1      -1.144   6.190 -29.343  1.00  0.00    -0.357 N 
HETATM   14  H   UNL     1      -1.828   5.623 -28.858  1.00  0.00     0.162 HD
HETATM   15  O   UNL     1      -0.813   7.695 -31.040  1.00  0.00    -0.273 OA
BRANCH  13  16
HETATM   16  C   UNL     1       0.232   6.147 -28.861  1.00  0.00     0.076 C 
HETATM   17  C   UNL     1       0.314   6.408 -27.357  1.00  0.00     0.032 C 
HETATM   18  C   UNL     1       0.956   4.859 -29.246  1.00  0.00     0.032 C 
ENDBRANCH  13  16
ENDBRANCH  11  12
ENDBRANCH   8  11
ENDBRANCH   2   5
BRANCH   1  19
HETATM   19  C   UNL     1      -5.761  -0.428 -33.190  1.00  0.00     0.157 A 
HETATM   20  C   UNL     1      -5.465  -1.745 -33.651  1.00  0.00     0.029 A 
HETATM   21  C   UNL     1      -4.386  -2.645 -33.537  1.00  0.00     0.023 A 
HETATM   22  C   UNL     1      -6.599  -2.148 -34.345  1.00  0.00     0.063 A 
HETATM   23  C   UNL     1      -4.483  -3.921 -34.118  1.00  0.00    -0.061 A 
HETATM   24  C   UNL     1      -3.348  -4.897 -34.006  1.00  0.00     0.048 C 
HETATM   25  C   UNL     1      -5.648  -4.287 -34.804  1.00  0.00     0.009 A 
HETATM   26  C   UNL     1      -6.729  -3.408 -34.934  1.00  0.00     0.032 A 
HETATM   27  N   UNL     1      -7.457  -1.086 -34.283  1.00  0.00    -0.277 N 
HETATM   28  H   UNL     1      -8.386  -1.026 -34.685  1.00  0.00     0.189 HD
HETATM   29  N   UNL     1      -6.992  -0.030 -33.589  1.00  0.00    -0.168 NA
ENDBRANCH   1  19
TORSDOF 5
ENDMDL
MODEL 5
REMARK VINA RESULT:      -8.4      5.228      7.757
REMARK  5 active torsions:
REMARK  status: ('A' for Active; 'I' for Inactive)
REMARK    1  A    between atoms: C_9  and  C_10 
REMARK       I    between atoms: C_10  and  N_11 
REMARK    2  A    between atoms: N_11  and  C_12 
REMARK    3  A    between atoms: C_15  and  C_16 
REMARK    4  A    between atoms: C_16  and  C_17 
REMARK       I    between atoms: C_17  and  N_18 
REMARK    5  A    between atoms: N_18  and  C_19 
ROOT
HETATM    1  C   UNL     1      -3.146   0.516 -31.769  1.00  0.00     0.277 C 
HETATM    2  N   UNL     1      -3.516   1.591 -32.557  1.00  0.00    -0.322 N 
HETATM    3  O   UNL     1      -2.538   0.570 -30.706  1.00  0.00    -0.266 OA
HETATM    4  H   UNL     1      -3.994   1.307 -33.411  1.00  0.00     0.169 HD
ENDROOT
BRANCH   2   5
HETATM    5  C   UNL     1      -3.499   2.957 -32.237  1.00  0.00     0.035 A 
HETATM    6  C   UNL     1      -4.327   3.547 -31.280  1.00  0.00     0.030 A 
HETATM    7  C   UNL     1      -4.354   4.940 -31.126  1.00  0.00     0.010 A 
HETATM    8  C   UNL     1      -3.551   5.762 -31.926  1.00  0.00    -0.049 A 
HETATM    9  C   UNL     1      -2.671   5.163 -32.836  1.00  0.00     0.010 A 
HETATM   10  C   UNL     1      -2.645   3.774 -32.986  1.00  0.00     0.030 A 
BRANCH   8  11
HETATM   11  C   UNL     1      -3.685   7.265 -31.869  1.00  0.00     0.141 C 
BRANCH  11  12
HETATM   12  C   UNL     1      -2.512   8.059 -31.326  1.00  0.00     0.222 C 
HETATM   13  N   UNL     1      -2.076   7.732 -30.063  1.00  0.00    -0.357 N 
HETATM   14  H   UNL     1      -2.613   7.061 -29.527  1.00  0.00     0.162 HD
HETATM   15  O   UNL     1      -1.942   8.884 -32.039  1.00  0.00    -0.273 OA
BRANCH  13  16
HETATM   16  C   UNL     1      -0.883   8.293 -29.438  1.00  0.00     0.076 C 
HETATM   17  C   UNL     1      -1.173   8.813 -28.031  1.00  0.00     0.032 C 
HETATM   18  C   UNL     1       0.301   7.330 -29.446  1.00  0.00     0.032 C 
ENDBRANCH  13  16
ENDBRANCH  11  12
ENDBRANCH   8  11
ENDBRANCH   2   5
BRANCH   1  19
HETATM   19  C   UNL     1      -3.622  -0.760 -32.343  1.00  0.00     0.157 A 
HETATM   20  C   UNL     1      -4.731  -0.960 -33.218  1.00  0.00     0.029 A 
HETATM   21  C   UNL     1      -5.732  -0.151 -33.794  1.00  0.00     0.023 A 
HETATM   22  C   UNL     1      -4.701  -2.312 -33.535  1.00  0.00     0.063 A 
HETATM   23  C   UNL     1      -6.666  -0.725 -34.673  1.00  0.00    -0.061 A 
HETATM   24  C   UNL     1      -7.738   0.117 -35.302  1.00  0.00     0.048 C 
HETATM   25  C   UNL     1      -6.595  -2.092 -34.969  1.00  0.00     0.009 A 
HETATM   26  C   UNL     1      -5.614  -2.915 -34.405  1.00  0.00     0.032 A 
HETATM   27  N   UNL     1      -3.640  -2.823 -32.841  1.00  0.00    -0.277 N 
HETATM   28  H   UNL     1      -3.320  -3.785 -32.835  1.00  0.00     0.189 HD
HETATM   29  N   UNL     1      -2.958  -1.917 -32.116  1.00  0.00    -0.168 NA
ENDBRANCH   1  19
TORSDOF 5
ENDMDL
MODEL 6
REMARK VINA RESULT:      -7.9      1.945      2.795
REMARK  5 active torsions:
REMARK  status: ('A' for Active; 'I' for Inactive)
REMARK    1  A    between atoms: C_9  and  C_10 
REMARK       I    between atoms: C_10  and  N_11 
REMARK    2  A    between atoms: N_11  and  C_12 
REMARK    3  A    between atoms: C_15  and  C_16 
REMARK    4  A    between atoms: C_16  and  C_17 
REMARK       I    between atoms: C_17  and  N_18 
REMARK    5  A    between atoms: N_18  and  C_19 
ROOT
HETATM    1  C   UNL     1      -7.514   0.572 -34.075  1.00  0.00     0.277 C 
HETATM    2  N   UNL     1      -8.518   0.517 -33.125  1.00  0.00    -0.322 N 
HETATM    3  O   UNL     1      -7.553   1.177 -35.140  1.00  0.00    -0.266 OA
HETATM    4  H   UNL     1      -8.274  -0.067 -32.327  1.00  0.00     0.169 HD
ENDROOT
BRANCH   2   5
HETATM    5  C   UNL     1      -9.684   1.294 -33.040  1.00  0.00     0.035 A 
HETATM    6  C   UNL     1     -10.940   0.869 -33.473  1.00  0.00     0.030 A 
HETATM    7  C   UNL     1     -12.023   1.759 -33.491  1.00  0.00     0.010 A 
HETATM    8  C   UNL     1     -11.863   3.086 -33.076  1.00  0.00    -0.049 A 
HETATM    9  C   UNL     1     -10.619   3.489 -32.576  1.00  0.00     0.010 A 
HETATM   10  C   UNL     1      -9.541   2.599 -32.557  1.00  0.00     0.030 A 
BRANCH   8  11
HETATM   11  C   UNL     1     -12.984   4.086 -33.234  1.00  0.00     0.141 C 
BRANCH  11  12
HETATM   12  C   UNL     1     -14.099   4.066 -32.206  1.00  0.00     0.222 C 
HETATM   13  N   UNL     1     -15.383   3.947 -32.689  1.00  0.00    -0.357 N 
HETATM   14  H   UNL     1     -15.524   3.982 -33.691  1.00  0.00     0.162 HD
HETATM   15  O   UNL     1     -13.833   4.065 -31.005  1.00  0.00    -0.273 OA
BRANCH  13  16
HETATM   16  C   UNL     1     -16.561   3.776 -31.847  1.00  0.00     0.076 C 
HETATM   17  C   UNL     1     -17.290   5.099 -31.617  1.00  0.00     0.032 C 
HETATM   18  C   UNL     1     -17.509   2.697 -32.365  1.00  0.00     0.032 C 
ENDBRANCH  13  16
ENDBRANCH  11  12
ENDBRANCH   8  11
ENDBRANCH   2   5
BRANCH   1  19
HETATM   19  C   UNL     1      -6.314  -0.169 -33.631  1.00  0.00     0.157 A 
HETATM   20  C   UNL     1      -5.941  -1.503 -33.969  1.00  0.00     0.029 A 
HETATM   21  C   UNL     1      -6.497  -2.554 -34.728  1.00  0.00     0.023 A 
HETATM   22  C   UNL     1      -4.700  -1.693 -33.375  1.00  0.00     0.063 A 
HETATM   23  C   UNL     1      -5.786  -3.758 -34.869  1.00  0.00    -0.061 A 
HETATM   24  C   UNL     1      -6.355  -4.889 -35.675  1.00  0.00     0.048 C 
HETATM   25  C   UNL     1      -4.535  -3.904 -34.256  1.00  0.00     0.009 A 
HETATM   26  C   UNL     1      -3.967  -2.876 -33.495  1.00  0.00     0.032 A 
HETATM   27  N   UNL     1      -4.429  -0.523 -32.724  1.00  0.00    -0.277 N 
HETATM   28  H   UNL     1      -3.602  -0.304 -32.179  1.00  0.00     0.189 HD
HETATM   29  N   UNL     1      -5.374   0.426 -32.859  1.00  0.00    -0.168 NA
ENDBRANCH   1  19
TORSDOF 5
ENDMDL
MODEL 7
REMARK VINA RESULT:      -7.8      6.275      9.336
REMARK  5 active torsions:
REMARK  status: ('A' for Active; 'I' for Inactive)
REMARK    1  A    between atoms: C_9  and  C_10 
REMARK       I    between atoms: C_10  and  N_11 
REMARK    2  A    between atoms: N_11  and  C_12 
REMARK    3  A    between atoms: C_15  and  C_16 
REMARK    4  A    between atoms: C_16  and  C_17 
REMARK       I    between atoms: C_17  and  N_18 
REMARK    5  A    between atoms: N_18  and  C_19 
ROOT
HETATM    1  C   UNL     1      -1.264   5.111 -31.438  1.00  0.00     0.277 C 
HETATM    2  N   UNL     1      -2.285   4.272 -31.027  1.00  0.00    -0.322 N 
HETATM    3  O   UNL     1      -0.874   5.273 -32.589  1.00  0.00    -0.266 OA
HETATM    4  H   UNL     1      -2.419   4.281 -30.018  1.00  0.00     0.169 HD
ENDROOT
BRANCH   2   5
HETATM    5  C   UNL     1      -3.240   3.609 -31.813  1.00  0.00     0.035 A 
HETATM    6  C   UNL     1      -4.181   4.257 -32.614  1.00  0.00     0.030 A 
HETATM    7  C   UNL     1      -5.195   3.528 -33.249  1.00  0.00     0.010 A 
HETATM    8  C   UNL     1      -5.282   2.139 -33.092  1.00  0.00    -0.049 A 
HETATM    9  C   UNL     1      -4.296   1.484 -32.345  1.00  0.00     0.010 A 
HETATM   10  C   UNL     1      -3.283   2.214 -31.714  1.00  0.00     0.030 A 
BRANCH   8  11
HETATM   11  C   UNL     1      -6.456   1.370 -33.649  1.00  0.00     0.141 C 
BRANCH  11  12
HETATM   12  C   UNL     1      -6.518  -0.121 -33.374  1.00  0.00     0.222 C 
HETATM   13  N   UNL     1      -5.859  -0.941 -34.261  1.00  0.00    -0.357 N 
HETATM   14  H   UNL     1      -5.460  -0.526 -35.094  1.00  0.00     0.162 HD
HETATM   15  O   UNL     1      -7.060  -0.539 -32.351  1.00  0.00    -0.273 OA
BRANCH  13  16
HETATM   16  C   UNL     1      -5.699  -2.380 -34.082  1.00  0.00     0.076 C 
HETATM   17  C   UNL     1      -6.838  -3.162 -34.734  1.00  0.00     0.032 C 
HETATM   18  C   UNL     1      -4.335  -2.887 -34.543  1.00  0.00     0.032 C 
ENDBRANCH  13  16
ENDBRANCH  11  12
ENDBRANCH   8  11
ENDBRANCH   2   5
BRANCH   1  19
HETATM   19  C   UNL     1      -0.696   5.863 -30.300  1.00  0.00     0.157 A 
HETATM   20  C   UNL     1      -1.044   7.175 -29.863  1.00  0.00     0.029 A 
HETATM   21  C   UNL     1      -1.922   8.191 -30.294  1.00  0.00     0.023 A 
HETATM   22  C   UNL     1      -0.295   7.384 -28.713  1.00  0.00     0.063 A 
HETATM   23  C   UNL     1      -2.023   9.380 -29.551  1.00  0.00    -0.061 A 
HETATM   24  C   UNL     1      -2.954  10.474 -29.988  1.00  0.00     0.048 C 
HETATM   25  C   UNL     1      -1.252   9.546 -28.394  1.00  0.00     0.009 A 
HETATM   26  C   UNL     1      -0.371   8.553 -27.951  1.00  0.00     0.032 A 
HETATM   27  N   UNL     1       0.444   6.246 -28.551  1.00  0.00    -0.277 N 
HETATM   28  H   UNL     1       1.107   6.047 -27.809  1.00  0.00     0.189 HD
HETATM   29  N   UNL     1       0.226   5.300 -29.483  1.00  0.00    -0.168 NA
ENDBRANCH   1  19
TORSDOF 5
ENDMDL
MODEL 8
REMARK VINA RESULT:      -7.8     14.397     16.348
REMARK  5 active torsions:
REMARK  status: ('A' for Active; 'I' for Inactive)
REMARK    1  A    between atoms: C_9  and  C_10 
REMARK       I    between atoms: C_10  and  N_11 
REMARK    2  A    between atoms: N_11  and  C_12 
REMARK    3  A    between atoms: C_15  and  C_16 
REMARK    4  A    between atoms: C_16  and  C_17 
REMARK       I    between atoms: C_17  and  N_18 
REMARK    5  A    between atoms: N_18  and  C_19 
ROOT
HETATM    1  C   UNL     1      -4.507 -13.239 -36.481  1.00  0.00     0.277 C 
HETATM    2  N   UNL     1      -5.671 -13.313 -35.737  1.00  0.00    -0.322 N 
HETATM    3  O   UNL     1      -3.386 -13.568 -36.111  1.00  0.00    -0.266 OA
HETATM    4  H   UNL     1      -6.483 -12.962 -36.241  1.00  0.00     0.169 HD
ENDROOT
BRANCH   2   5
HETATM    5  C   UNL     1      -5.888 -13.971 -34.516  1.00  0.00     0.035 A 
HETATM    6  C   UNL     1      -5.551 -13.440 -33.271  1.00  0.00     0.030 A 
HETATM    7  C   UNL     1      -5.661 -14.221 -32.112  1.00  0.00     0.010 A 
HETATM    8  C   UNL     1      -6.111 -15.545 -32.184  1.00  0.00    -0.049 A 
HETATM    9  C   UNL     1      -6.515 -16.051 -33.425  1.00  0.00     0.010 A 
HETATM   10  C   UNL     1      -6.406 -15.269 -34.579  1.00  0.00     0.030 A 
BRANCH   8  11
HETATM   11  C   UNL     1      -6.090 -16.436 -30.965  1.00  0.00     0.141 C 
BRANCH  11  12
HETATM   12  C   UNL     1      -4.948 -16.263 -29.983  1.00  0.00     0.222 C 
HETATM   13  N   UNL     1      -3.681 -16.515 -30.457  1.00  0.00    -0.357 N 
HETATM   14  H   UNL     1      -3.584 -16.896 -31.390  1.00  0.00     0.162 HD
HETATM   15  O   UNL     1      -5.165 -15.829 -28.852  1.00  0.00    -0.273 OA
BRANCH  13  16
HETATM   16  C   UNL     1      -2.459 -16.272 -29.698  1.00  0.00     0.076 C 
HETATM   17  C   UNL     1      -2.055 -17.490 -28.869  1.00  0.00     0.032 C 
HETATM   18  C   UNL     1      -1.306 -15.780 -30.571  1.00  0.00     0.032 C 
ENDBRANCH  13  16
ENDBRANCH  11  12
ENDBRANCH   8  11
ENDBRANCH   2   5
BRANCH   1  19
HETATM   19  C   UNL     1      -4.774 -12.745 -37.848  1.00  0.00     0.157 A 
HETATM   20  C   UNL     1      -6.013 -12.767 -38.554  1.00  0.00     0.029 A 
HETATM   21  C   UNL     1      -7.318 -13.240 -38.305  1.00  0.00     0.023 A 
HETATM   22  C   UNL     1      -5.758 -12.111 -39.751  1.00  0.00     0.063 A 
HETATM   23  C   UNL     1      -8.325 -13.034 -39.264  1.00  0.00    -0.061 A 
HETATM   24  C   UNL     1      -9.722 -13.525 -39.020  1.00  0.00     0.048 C 
HETATM   25  C   UNL     1      -8.024 -12.362 -40.456  1.00  0.00     0.009 A 
HETATM   26  C   UNL     1      -6.735 -11.889 -40.726  1.00  0.00     0.032 A 
HETATM   27  N   UNL     1      -4.435 -11.775 -39.704  1.00  0.00    -0.277 N 
HETATM   28  H   UNL     1      -3.904 -11.283 -40.414  1.00  0.00     0.189 HD
HETATM   29  N   UNL     1      -3.806 -12.133 -38.569  1.00  0.00    -0.168 NA
ENDBRANCH   1  19
TORSDOF 5
ENDMDL
MODEL 9
REMARK VINA RESULT:      -7.8     14.617     16.281
REMARK  5 active torsions:
REMARK  status: ('A' for Active; 'I' for Inactive)
REMARK    1  A    between atoms: C_9  and  C_10 
REMARK       I    between atoms: C_10  and  N_11 
REMARK    2  A    between atoms: N_11  and  C_12 
REMARK    3  A    between atoms: C_15  and  C_16 
REMARK    4  A    between atoms: C_16  and  C_17 
REMARK       I    between atoms: C_17  and  N_18 
REMARK    5  A    between atoms: N_18  and  C_19 
ROOT
HETATM    1  C   UNL     1      -3.385 -14.378 -39.227  1.00  0.00     0.277 C 
HETATM    2  N   UNL     1      -3.956 -13.124 -39.351  1.00  0.00    -0.322 N 
HETATM    3  O   UNL     1      -3.964 -15.414 -38.922  1.00  0.00    -0.266 OA
HETATM    4  H   UNL     1      -3.277 -12.404 -39.592  1.00  0.00     0.169 HD
ENDROOT
BRANCH   2   5
HETATM    5  C   UNL     1      -5.317 -12.783 -39.388  1.00  0.00     0.035 A 
HETATM    6  C   UNL     1      -6.129 -12.684 -38.258  1.00  0.00     0.030 A 
HETATM    7  C   UNL     1      -7.511 -12.487 -38.391  1.00  0.00     0.010 A 
HETATM    8  C   UNL     1      -8.098 -12.386 -39.658  1.00  0.00    -0.049 A 
HETATM    9  C   UNL     1      -7.271 -12.416 -40.787  1.00  0.00     0.010 A 
HETATM   10  C   UNL     1      -5.893 -12.610 -40.651  1.00  0.00     0.030 A 
BRANCH   8  11
HETATM   11  C   UNL     1      -9.599 -12.325 -39.812  1.00  0.00     0.141 C 
BRANCH  11  12
HETATM   12  C   UNL     1     -10.328 -13.610 -40.157  1.00  0.00     0.222 C 
HETATM   13  N   UNL     1      -9.626 -14.782 -39.990  1.00  0.00    -0.357 N 
HETATM   14  H   UNL     1      -8.644 -14.724 -39.749  1.00  0.00     0.162 HD
HETATM   15  O   UNL     1     -11.515 -13.580 -40.478  1.00  0.00    -0.273 OA
BRANCH  13  16
HETATM   16  C   UNL     1     -10.205 -16.112 -40.142  1.00  0.00     0.076 C 
HETATM   17  C   UNL     1     -10.038 -16.644 -41.564  1.00  0.00     0.032 C 
HETATM   18  C   UNL     1      -9.687 -17.107 -39.107  1.00  0.00     0.032 C 
ENDBRANCH  13  16
ENDBRANCH  11  12
ENDBRANCH   8  11
ENDBRANCH   2   5
BRANCH   1  19
HETATM   19  C   UNL     1      -1.946 -14.347 -39.563  1.00  0.00     0.157 A 
HETATM   20  C   UNL     1      -0.853 -14.767 -38.748  1.00  0.00     0.029 A 
HETATM   21  C   UNL     1      -0.694 -15.278 -37.444  1.00  0.00     0.023 A 
HETATM   22  C   UNL     1       0.272 -14.618 -39.549  1.00  0.00     0.063 A 
HETATM   23  C   UNL     1       0.590 -15.627 -36.988  1.00  0.00    -0.061 A 
HETATM   24  C   UNL     1       0.783 -16.176 -35.605  1.00  0.00     0.048 C 
HETATM   25  C   UNL     1       1.696 -15.465 -37.832  1.00  0.00     0.009 A 
HETATM   26  C   UNL     1       1.561 -14.956 -39.128  1.00  0.00     0.032 A 
HETATM   27  N   UNL     1      -0.190 -14.116 -40.733  1.00  0.00    -0.277 N 
HETATM   28  H   UNL     1       0.358 -13.883 -41.554  1.00  0.00     0.189 HD
HETATM   29  N   UNL     1      -1.524 -13.944 -40.785  1.00  0.00    -0.168 NA
ENDBRANCH   1  19
TORSDOF 5
ENDMDL
MODEL 10
REMARK VINA RESULT:      -7.7      6.056      9.363
REMARK  5 active torsions:
REMARK  status: ('A' for Active; 'I' for Inactive)
REMARK    1  A    between atoms: C_9  and  C_10 
REMARK       I    between atoms: C_10  and  N_11 
REMARK    2  A    between atoms: N_11  and  C_12 
REMARK    3  A    between atoms: C_15  and  C_16 
REMARK    4  A    between atoms: C_16  and  C_17 
REMARK       I    between atoms: C_17  and  N_18 
REMARK    5  A    between atoms: N_18  and  C_19 
ROOT
HETATM    1  C   UNL     1      -5.220   4.651 -34.085  1.00  0.00     0.277 C 
HETATM    2  N   UNL     1      -4.752   4.919 -32.812  1.00  0.00    -0.322 N 
HETATM    3  O   UNL     1      -4.642   4.891 -35.139  1.00  0.00    -0.266 OA
HETATM    4  H   UNL     1      -5.413   4.653 -32.084  1.00  0.00     0.169 HD
ENDROOT
BRANCH   2   5
HETATM    5  C   UNL     1      -3.459   5.299 -32.418  1.00  0.00     0.035 A 
HETATM    6  C   UNL     1      -2.498   4.412 -31.931  1.00  0.00     0.030 A 
HETATM    7  C   UNL     1      -1.284   4.892 -31.418  1.00  0.00     0.010 A 
HETATM    8  C   UNL     1      -1.016   6.265 -31.388  1.00  0.00    -0.049 A 
HETATM    9  C   UNL     1      -1.953   7.146 -31.941  1.00  0.00     0.010 A 
HETATM   10  C   UNL     1      -3.161   6.665 -32.454  1.00  0.00     0.030 A 
BRANCH   8  11
HETATM   11  C   UNL     1       0.221   6.797 -30.703  1.00  0.00     0.141 C 
BRANCH  11  12
HETATM   12  C   UNL     1       0.091   7.247 -29.260  1.00  0.00     0.222 C 
HETATM   13  N   UNL     1      -1.008   6.794 -28.567  1.00  0.00    -0.357 N 
HETATM   14  H   UNL     1      -1.716   6.277 -29.074  1.00  0.00     0.162 HD
HETATM   15  O   UNL     1       0.987   7.909 -28.736  1.00  0.00    -0.273 OA
BRANCH  13  16
HETATM   16  C   UNL     1      -1.225   7.014 -27.142  1.00  0.00     0.076 C 
HETATM   17  C   UNL     1      -2.711   7.129 -26.805  1.00  0.00     0.032 C 
HETATM   18  C   UNL     1      -0.533   5.970 -26.268  1.00  0.00     0.032 C 
ENDBRANCH  13  16
ENDBRANCH  11  12
ENDBRANCH   8  11
ENDBRANCH   2   5
BRANCH   1  19
HETATM   19  C   UNL     1      -6.530   3.968 -34.042  1.00  0.00     0.157 A 
HETATM   20  C   UNL     1      -6.780   2.574 -33.876  1.00  0.00     0.029 A 
HETATM   21  C   UNL     1      -5.997   1.408 -33.743  1.00  0.00     0.023 A 
HETATM   22  C   UNL     1      -8.163   2.459 -33.815  1.00  0.00     0.063 A 
HETATM   23  C   UNL     1      -6.628   0.168 -33.548  1.00  0.00    -0.061 A 
HETATM   24  C   UNL     1      -5.816  -1.085 -33.401  1.00  0.00     0.048 C 
HETATM   25  C   UNL     1      -8.026   0.100 -33.488  1.00  0.00     0.009 A 
HETATM   26  C   UNL     1      -8.823   1.242 -33.622  1.00  0.00     0.032 A 
HETATM   27  N   UNL     1      -8.638   3.731 -33.968  1.00  0.00    -0.277 N 
HETATM   28  H   UNL     1      -9.609   4.024 -33.975  1.00  0.00     0.189 HD
HETATM   29  N   UNL     1      -7.685   4.672 -34.101  1.00  0.00    -0.168 NA
ENDBRANCH   1  19
TORSDOF 5
ENDMDL
