MODEL 1
REMARK VINA RESULT:     -10.0      0.000      0.000
REMARK  6 active torsions:
REMARK  status: ('A' for Active; 'I' for Inactive)
REMARK    1  A    between atoms: O_2  and  C_3 
REMARK    2  A    between atoms: C_6  and  C_7 
REMARK    3  A    between atoms: C_7  and  N_8 
REMARK       I    between atoms: N_8  and  C_9 
REMARK    4  A    between atoms: C_9  and  C_10 
REMARK    5  A    between atoms: C_13  and  C_14 
REMARK    6  A    between atoms: C_19  and  C_20 
ROOT
HETATM    1  C   UNL     1      -9.060   1.103 -32.576  1.00  0.00     0.096 A 
HETATM    2  C   UNL     1      -7.815   0.523 -32.756  1.00  0.00     0.138 A 
HETATM    3  N   UNL     1      -6.995   1.121 -31.827  1.00  0.00    -0.240 N 
HETATM    4  C   UNL     1      -5.601   0.776 -31.618  1.00  0.00     0.221 C 
HETATM    5  C   UNL     1      -5.338  -0.645 -32.137  1.00  0.00     0.066 C 
HETATM    6  C   UNL     1      -5.919  -0.832 -33.548  1.00  0.00     0.118 C 
HETATM    7  N   UNL     1      -7.336  -0.456 -33.569  1.00  0.00    -0.365 N 
HETATM    8  N   UNL     1      -7.623   1.969 -31.002  1.00  0.00    -0.181 NA
HETATM    9  C   UNL     1      -8.874   1.973 -31.470  1.00  0.00     0.160 A 
HETATM   10  H   UNL     1      -7.954  -1.140 -34.003  1.00  0.00     0.161 HD
ENDROOT
BRANCH   1  11
HETATM   11  C   UNL     1     -10.313   0.914 -33.284  1.00  0.00     0.257 C 
HETATM   12  N   UNL     1     -10.698   1.956 -34.093  1.00  0.00    -0.352 N 
HETATM   13  H   UNL     1     -10.148   2.802 -34.078  1.00  0.00     0.163 HD
HETATM   14  O   UNL     1     -10.986  -0.099 -33.134  1.00  0.00    -0.267 OA
BRANCH  12  15
HETATM   15  C   UNL     1     -11.913   1.918 -34.869  1.00  0.00     0.161 C 
BRANCH  15  16
HETATM   16  C   UNL     1     -13.140   1.991 -33.995  1.00  0.00    -0.040 A 
HETATM   17  C   UNL     1     -13.190   2.888 -32.917  1.00  0.00     0.011 A 
HETATM   18  C   UNL     1     -14.329   2.983 -32.111  1.00  0.00     0.037 A 
HETATM   19  C   UNL     1     -15.440   2.183 -32.373  1.00  0.00     0.068 A 
HETATM   20  C   UNL     1     -15.390   1.276 -33.435  1.00  0.00     0.037 A 
HETATM   21  C   UNL     1     -14.251   1.177 -34.239  1.00  0.00     0.011 A 
BRANCH  19  22
HETATM   22  O   UNL     1     -16.616   2.189 -31.674  1.00  0.00    -0.356 OA
HETATM   23  C   UNL     1     -17.682   2.953 -32.226  1.00  0.00     0.210 C 
ENDBRANCH  19  22
ENDBRANCH  15  16
ENDBRANCH  12  15
ENDBRANCH   1  11
BRANCH   4  24
HETATM   24  C   UNL     1      -4.713   1.813 -32.269  1.00  0.00     0.409 C 
HETATM   25  F   UNL     1      -4.342   2.795 -31.422  1.00  0.00    -0.169 F 
HETATM   26  F   UNL     1      -3.566   1.226 -32.704  1.00  0.00    -0.169 F 
HETATM   27  F   UNL     1      -5.278   2.392 -33.351  1.00  0.00    -0.169 F 
ENDBRANCH   4  24
BRANCH   6  28
HETATM   28  C   UNL     1      -5.726  -2.256 -34.032  1.00  0.00    -0.035 A 
HETATM   29  C   UNL     1      -6.777  -2.995 -34.601  1.00  0.00     0.009 A 
HETATM   30  C   UNL     1      -6.576  -4.313 -35.019  1.00  0.00     0.001 A 
HETATM   31  C   UNL     1      -5.328  -4.913 -34.863  1.00  0.00     0.000 A 
HETATM   32  C   UNL     1      -4.280  -4.198 -34.290  1.00  0.00     0.001 A 
HETATM   33  C   UNL     1      -4.476  -2.879 -33.877  1.00  0.00     0.009 A 
ENDBRANCH   6  28
TORSDOF 6
ENDMDL
MODEL 2
REMARK VINA RESULT:      -9.5      4.643      8.185
REMARK  6 active torsions:
REMARK  status: ('A' for Active; 'I' for Inactive)
REMARK    1  A    between atoms: O_2  and  C_3 
REMARK    2  A    between atoms: C_6  and  C_7 
REMARK    3  A    between atoms: C_7  and  N_8 
REMARK       I    between atoms: N_8  and  C_9 
REMARK    4  A    between atoms: C_9  and  C_10 
REMARK    5  A    between atoms: C_13  and  C_14 
REMARK    6  A    between atoms: C_19  and  C_20 
ROOT
HETATM    1  C   UNL     1      -6.185   3.048 -32.678  1.00  0.00     0.096 A 
HETATM    2  C   UNL     1      -6.768   1.844 -33.037  1.00  0.00     0.138 A 
HETATM    3  N   UNL     1      -8.010   2.171 -33.530  1.00  0.00    -0.240 N 
HETATM    4  C   UNL     1      -8.955   1.215 -34.079  1.00  0.00     0.221 C 
HETATM    5  C   UNL     1      -8.206  -0.045 -34.536  1.00  0.00     0.066 C 
HETATM    6  C   UNL     1      -7.239  -0.537 -33.448  1.00  0.00     0.118 C 
HETATM    7  N   UNL     1      -6.349   0.550 -33.028  1.00  0.00    -0.365 N 
HETATM    8  N   UNL     1      -8.244   3.487 -33.607  1.00  0.00    -0.181 NA
HETATM    9  C   UNL     1      -7.142   4.020 -33.071  1.00  0.00     0.160 A 
HETATM   10  H   UNL     1      -5.359   0.309 -33.007  1.00  0.00     0.161 HD
ENDROOT
BRANCH   1  11
HETATM   11  C   UNL     1      -4.903   3.343 -32.066  1.00  0.00     0.257 C 
HETATM   12  N   UNL     1      -3.867   3.564 -32.941  1.00  0.00    -0.352 N 
HETATM   13  H   UNL     1      -4.034   3.423 -33.926  1.00  0.00     0.163 HD
HETATM   14  O   UNL     1      -4.764   3.360 -30.848  1.00  0.00    -0.267 OA
BRANCH  12  15
HETATM   15  C   UNL     1      -2.533   3.878 -32.490  1.00  0.00     0.161 C 
BRANCH  15  16
HETATM   16  C   UNL     1      -2.326   5.365 -32.342  1.00  0.00    -0.040 A 
HETATM   17  C   UNL     1      -2.042   6.156 -33.466  1.00  0.00     0.011 A 
HETATM   18  C   UNL     1      -1.869   7.539 -33.348  1.00  0.00     0.037 A 
HETATM   19  C   UNL     1      -1.982   8.155 -32.102  1.00  0.00     0.068 A 
HETATM   20  C   UNL     1      -2.248   7.370 -30.978  1.00  0.00     0.037 A 
HETATM   21  C   UNL     1      -2.417   5.987 -31.092  1.00  0.00     0.011 A 
BRANCH  19  22
HETATM   22  O   UNL     1      -1.851   9.494 -31.854  1.00  0.00    -0.356 OA
HETATM   23  C   UNL     1      -2.478   9.988 -30.676  1.00  0.00     0.210 C 
ENDBRANCH  19  22
ENDBRANCH  15  16
ENDBRANCH  12  15
ENDBRANCH   1  11
BRANCH   4  24
HETATM   24  C   UNL     1     -10.034   0.919 -33.061  1.00  0.00     0.409 C 
HETATM   25  F   UNL     1     -10.425  -0.372 -33.069  1.00  0.00    -0.169 F 
HETATM   26  F   UNL     1      -9.566   1.173 -31.810  1.00  0.00    -0.169 F 
HETATM   27  F   UNL     1     -11.136   1.685 -33.217  1.00  0.00    -0.169 F 
ENDBRANCH   4  24
BRANCH   6  28
HETATM   28  C   UNL     1      -6.445  -1.737 -33.927  1.00  0.00    -0.035 A 
HETATM   29  C   UNL     1      -7.067  -2.855 -34.506  1.00  0.00     0.009 A 
HETATM   30  C   UNL     1      -6.313  -3.957 -34.918  1.00  0.00     0.001 A 
HETATM   31  C   UNL     1      -4.930  -3.959 -34.746  1.00  0.00     0.000 A 
HETATM   32  C   UNL     1      -4.300  -2.864 -34.163  1.00  0.00     0.001 A 
HETATM   33  C   UNL     1      -5.050  -1.760 -33.756  1.00  0.00     0.009 A 
ENDBRANCH   6  28
TORSDOF 6
ENDMDL
MODEL 3
REMARK VINA RESULT:      -9.4      5.006      8.969
REMARK  6 active torsions:
REMARK  status: ('A' for Active; 'I' for Inactive)
REMARK    1  A    between atoms: O_2  and  C_3 
REMARK    2  A    between atoms: C_6  and  C_7 
REMARK    3  A    between atoms: C_7  and  N_8 
REMARK       I    between atoms: N_8  and  C_9 
REMARK    4  A    between atoms: C_9  and  C_10 
REMARK    5  A    between atoms: C_13  and  C_14 
REMARK    6  A    between atoms: C_19  and  C_20 
ROOT
HETATM    1  C   UNL     1      -4.913   3.285 -32.773  1.00  0.00     0.096 A 
HETATM    2  C   UNL     1      -5.731   2.173 -32.880  1.00  0.00     0.138 A 
HETATM    3  N   UNL     1      -7.011   2.667 -32.973  1.00  0.00    -0.240 N 
HETATM    4  C   UNL     1      -8.197   1.851 -33.158  1.00  0.00     0.221 C 
HETATM    5  C   UNL     1      -7.801   0.500 -33.773  1.00  0.00     0.066 C 
HETATM    6  C   UNL     1      -6.614  -0.120 -33.021  1.00  0.00     0.118 C 
HETATM    7  N   UNL     1      -5.503   0.834 -32.947  1.00  0.00    -0.365 N 
HETATM    8  N   UNL     1      -7.084   4.004 -33.029  1.00  0.00    -0.181 NA
HETATM    9  C   UNL     1      -5.810   4.379 -32.887  1.00  0.00     0.160 A 
HETATM   10  H   UNL     1      -4.597   0.459 -33.225  1.00  0.00     0.161 HD
ENDROOT
BRANCH   1  11
HETATM   11  C   UNL     1      -3.476   3.402 -32.604  1.00  0.00     0.257 C 
HETATM   12  N   UNL     1      -2.924   4.583 -33.039  1.00  0.00    -0.352 N 
HETATM   13  H   UNL     1      -3.520   5.242 -33.517  1.00  0.00     0.163 HD
HETATM   14  O   UNL     1      -2.810   2.487 -32.133  1.00  0.00    -0.267 OA
BRANCH  12  15
HETATM   15  C   UNL     1      -1.511   4.856 -32.933  1.00  0.00     0.161 C 
BRANCH  15  16
HETATM   16  C   UNL     1      -1.204   5.783 -31.784  1.00  0.00    -0.040 A 
HETATM   17  C   UNL     1      -2.202   6.616 -31.258  1.00  0.00     0.011 A 
HETATM   18  C   UNL     1      -1.938   7.465 -30.178  1.00  0.00     0.037 A 
HETATM   19  C   UNL     1      -0.668   7.491 -29.604  1.00  0.00     0.068 A 
HETATM   20  C   UNL     1       0.335   6.676 -30.133  1.00  0.00     0.037 A 
HETATM   21  C   UNL     1       0.074   5.830 -31.216  1.00  0.00     0.011 A 
BRANCH  19  22
HETATM   22  O   UNL     1      -0.285   8.261 -28.540  1.00  0.00    -0.356 OA
HETATM   23  C   UNL     1       1.092   8.215 -28.184  1.00  0.00     0.210 C 
ENDBRANCH  19  22
ENDBRANCH  15  16
ENDBRANCH  12  15
ENDBRANCH   1  11
BRANCH   4  24
HETATM   24  C   UNL     1      -8.930   1.706 -31.843  1.00  0.00     0.409 C 
HETATM   25  F   UNL     1      -9.417   0.463 -31.646  1.00  0.00    -0.169 F 
HETATM   26  F   UNL     1      -8.076   1.952 -30.813  1.00  0.00    -0.169 F 
HETATM   27  F   UNL     1      -9.953   2.577 -31.705  1.00  0.00    -0.169 F 
ENDBRANCH   4  24
BRANCH   6  28
HETATM   28  C   UNL     1      -6.175  -1.418 -33.672  1.00  0.00    -0.035 A 
HETATM   29  C   UNL     1      -4.818  -1.759 -33.805  1.00  0.00     0.009 A 
HETATM   30  C   UNL     1      -4.442  -2.951 -34.429  1.00  0.00     0.001 A 
HETATM   31  C   UNL     1      -5.414  -3.810 -34.938  1.00  0.00     0.000 A 
HETATM   32  C   UNL     1      -6.761  -3.480 -34.826  1.00  0.00     0.001 A 
HETATM   33  C   UNL     1      -7.141  -2.293 -34.198  1.00  0.00     0.009 A 
ENDBRANCH   6  28
TORSDOF 6
ENDMDL
MODEL 4
REMARK VINA RESULT:      -9.2      2.051      2.531
REMARK  6 active torsions:
REMARK  status: ('A' for Active; 'I' for Inactive)
REMARK    1  A    between atoms: O_2  and  C_3 
REMARK    2  A    between atoms: C_6  and  C_7 
REMARK    3  A    between atoms: C_7  and  N_8 
REMARK       I    between atoms: N_8  and  C_9 
REMARK    4  A    between atoms: C_9  and  C_10 
REMARK    5  A    between atoms: C_13  and  C_14 
REMARK    6  A    between atoms: C_19  and  C_20 
ROOT
HETATM    1  C   UNL     1      -8.771   1.510 -32.557  1.00  0.00     0.096 A 
HETATM    2  C   UNL     1      -7.577   0.823 -32.700  1.00  0.00     0.138 A 
HETATM    3  N   UNL     1      -6.754   1.309 -31.710  1.00  0.00    -0.240 N 
HETATM    4  C   UNL     1      -5.410   0.829 -31.449  1.00  0.00     0.221 C 
HETATM    5  C   UNL     1      -5.252  -0.592 -32.010  1.00  0.00     0.066 C 
HETATM    6  C   UNL     1      -5.774  -0.675 -33.453  1.00  0.00     0.118 C 
HETATM    7  N   UNL     1      -7.148  -0.168 -33.527  1.00  0.00    -0.365 N 
HETATM    8  N   UNL     1      -7.343   2.183 -30.883  1.00  0.00    -0.181 NA
HETATM    9  C   UNL     1      -8.563   2.320 -31.410  1.00  0.00     0.160 A 
HETATM   10  H   UNL     1      -7.803  -0.776 -34.016  1.00  0.00     0.161 HD
ENDROOT
BRANCH   1  11
HETATM   11  C   UNL     1      -9.998   1.463 -33.330  1.00  0.00     0.257 C 
HETATM   12  N   UNL     1     -11.120   1.926 -32.686  1.00  0.00    -0.352 N 
HETATM   13  H   UNL     1     -11.043   2.180 -31.712  1.00  0.00     0.163 HD
HETATM   14  O   UNL     1     -10.021   1.009 -34.469  1.00  0.00    -0.267 OA
BRANCH  12  15
HETATM   15  C   UNL     1     -12.415   1.954 -33.321  1.00  0.00     0.161 C 
BRANCH  15  16
HETATM   16  C   UNL     1     -12.717   3.304 -33.921  1.00  0.00    -0.040 A 
HETATM   17  C   UNL     1     -13.260   4.327 -33.127  1.00  0.00     0.011 A 
HETATM   18  C   UNL     1     -13.525   5.591 -33.663  1.00  0.00     0.037 A 
HETATM   19  C   UNL     1     -13.248   5.855 -35.004  1.00  0.00     0.068 A 
HETATM   20  C   UNL     1     -12.724   4.836 -35.803  1.00  0.00     0.037 A 
HETATM   21  C   UNL     1     -12.462   3.570 -35.270  1.00  0.00     0.011 A 
BRANCH  19  22
HETATM   22  O   UNL     1     -13.446   7.047 -35.645  1.00  0.00    -0.356 OA
HETATM   23  C   UNL     1     -14.224   7.010 -36.835  1.00  0.00     0.210 C 
ENDBRANCH  19  22
ENDBRANCH  15  16
ENDBRANCH  12  15
ENDBRANCH   1  11
BRANCH   4  24
HETATM   24  C   UNL     1      -4.399   1.801 -32.016  1.00  0.00     0.409 C 
HETATM   25  F   UNL     1      -4.890   2.538 -33.033  1.00  0.00    -0.169 F 
HETATM   26  F   UNL     1      -4.018   2.680 -31.051  1.00  0.00    -0.169 F 
HETATM   27  F   UNL     1      -3.270   1.199 -32.450  1.00  0.00    -0.169 F 
ENDBRANCH   4  24
BRANCH   6  28
HETATM   28  C   UNL     1      -5.688  -2.093 -33.983  1.00  0.00    -0.035 A 
HETATM   29  C   UNL     1      -6.805  -2.753 -34.522  1.00  0.00     0.009 A 
HETATM   30  C   UNL     1      -6.701  -4.068 -34.983  1.00  0.00     0.001 A 
HETATM   31  C   UNL     1      -5.485  -4.743 -34.901  1.00  0.00     0.000 A 
HETATM   32  C   UNL     1      -4.372  -4.107 -34.359  1.00  0.00     0.001 A 
HETATM   33  C   UNL     1      -4.471  -2.791 -33.903  1.00  0.00     0.009 A 
ENDBRANCH   6  28
TORSDOF 6
ENDMDL
MODEL 5
REMARK VINA RESULT:      -8.8      4.991      9.243
REMARK  6 active torsions:
REMARK  status: ('A' for Active; 'I' for Inactive)
REMARK    1  A    between atoms: O_2  and  C_3 
REMARK    2  A    between atoms: C_6  and  C_7 
REMARK    3  A    between atoms: C_7  and  N_8 
REMARK       I    between atoms: N_8  and  C_9 
REMARK    4  A    between atoms: C_9  and  C_10 
REMARK    5  A    between atoms: C_13  and  C_14 
REMARK    6  A    between atoms: C_19  and  C_20 
ROOT
HETATM    1  C   UNL     1      -5.037   4.223 -33.260  1.00  0.00     0.096 A 
HETATM    2  C   UNL     1      -4.252   5.078 -32.505  1.00  0.00     0.138 A 
HETATM    3  N   UNL     1      -3.551   5.832 -33.418  1.00  0.00    -0.240 N 
HETATM    4  C   UNL     1      -2.638   6.906 -33.070  1.00  0.00     0.221 C 
HETATM    5  C   UNL     1      -2.976   7.435 -31.669  1.00  0.00     0.066 C 
HETATM    6  C   UNL     1      -3.138   6.280 -30.668  1.00  0.00     0.118 C 
HETATM    7  N   UNL     1      -4.109   5.303 -31.172  1.00  0.00    -0.365 N 
HETATM    8  N   UNL     1      -3.883   5.602 -34.695  1.00  0.00    -0.181 NA
HETATM    9  C   UNL     1      -4.773   4.610 -34.599  1.00  0.00     0.160 A 
HETATM   10  H   UNL     1      -4.829   5.031 -30.504  1.00  0.00     0.161 HD
ENDROOT
BRANCH   1  11
HETATM   11  C   UNL     1      -5.954   3.170 -32.864  1.00  0.00     0.257 C 
HETATM   12  N   UNL     1      -6.160   2.183 -33.798  1.00  0.00    -0.352 N 
HETATM   13  H   UNL     1      -5.743   2.293 -34.711  1.00  0.00     0.163 HD
HETATM   14  O   UNL     1      -6.524   3.191 -31.778  1.00  0.00    -0.267 OA
BRANCH  12  15
HETATM   15  C   UNL     1      -7.036   1.063 -33.554  1.00  0.00     0.161 C 
BRANCH  15  16
HETATM   16  C   UNL     1      -6.350  -0.254 -33.818  1.00  0.00    -0.040 A 
HETATM   17  C   UNL     1      -5.052  -0.486 -33.338  1.00  0.00     0.011 A 
HETATM   18  C   UNL     1      -4.412  -1.710 -33.557  1.00  0.00     0.037 A 
HETATM   19  C   UNL     1      -5.062  -2.725 -34.257  1.00  0.00     0.068 A 
HETATM   20  C   UNL     1      -6.348  -2.494 -34.751  1.00  0.00     0.037 A 
HETATM   21  C   UNL     1      -6.988  -1.269 -34.538  1.00  0.00     0.011 A 
BRANCH  19  22
HETATM   22  O   UNL     1      -4.556  -3.968 -34.524  1.00  0.00    -0.356 OA
HETATM   23  C   UNL     1      -3.598  -4.477 -33.604  1.00  0.00     0.210 C 
ENDBRANCH  19  22
ENDBRANCH  15  16
ENDBRANCH  12  15
ENDBRANCH   1  11
BRANCH   4  24
HETATM   24  C   UNL     1      -1.210   6.422 -33.187  1.00  0.00     0.409 C 
HETATM   25  F   UNL     1      -1.070   5.115 -32.884  1.00  0.00    -0.169 F 
HETATM   26  F   UNL     1      -0.780   6.569 -34.469  1.00  0.00    -0.169 F 
HETATM   27  F   UNL     1      -0.348   7.119 -32.415  1.00  0.00    -0.169 F 
ENDBRANCH   4  24
BRANCH   6  28
HETATM   28  C   UNL     1      -3.545   6.797 -29.301  1.00  0.00    -0.035 A 
HETATM   29  C   UNL     1      -2.664   7.538 -28.497  1.00  0.00     0.009 A 
HETATM   30  C   UNL     1      -3.058   7.983 -27.232  1.00  0.00     0.001 A 
HETATM   31  C   UNL     1      -4.330   7.682 -26.751  1.00  0.00     0.000 A 
HETATM   32  C   UNL     1      -5.210   6.938 -27.531  1.00  0.00     0.001 A 
HETATM   33  C   UNL     1      -4.822   6.498 -28.798  1.00  0.00     0.009 A 
ENDBRANCH   6  28
TORSDOF 6
ENDMDL
MODEL 6
REMARK VINA RESULT:      -8.6      4.757      7.589
REMARK  6 active torsions:
REMARK  status: ('A' for Active; 'I' for Inactive)
REMARK    1  A    between atoms: O_2  and  C_3 
REMARK    2  A    between atoms: C_6  and  C_7 
REMARK    3  A    between atoms: C_7  and  N_8 
REMARK       I    between atoms: N_8  and  C_9 
REMARK    4  A    between atoms: C_9  and  C_10 
REMARK    5  A    between atoms: C_13  and  C_14 
REMARK    6  A    between atoms: C_19  and  C_20 
ROOT
HETATM    1  C   UNL     1      -6.498   3.521 -33.045  1.00  0.00     0.096 A 
HETATM    2  C   UNL     1      -6.989   2.245 -33.264  1.00  0.00     0.138 A 
HETATM    3  N   UNL     1      -8.259   2.423 -33.761  1.00  0.00    -0.240 N 
HETATM    4  C   UNL     1      -9.134   1.346 -34.188  1.00  0.00     0.221 C 
HETATM    5  C   UNL     1      -8.295   0.105 -34.528  1.00  0.00     0.066 C 
HETATM    6  C   UNL     1      -7.279  -0.195 -33.415  1.00  0.00     0.118 C 
HETATM    7  N   UNL     1      -6.471   0.995 -33.129  1.00  0.00    -0.365 N 
HETATM    8  N   UNL     1      -8.596   3.702 -33.970  1.00  0.00    -0.181 NA
HETATM    9  C   UNL     1      -7.532   4.370 -33.516  1.00  0.00     0.160 A 
HETATM   10  H   UNL     1      -5.465   0.834 -33.104  1.00  0.00     0.161 HD
ENDROOT
BRANCH   1  11
HETATM   11  C   UNL     1      -5.235   3.976 -32.494  1.00  0.00     0.257 C 
HETATM   12  N   UNL     1      -5.224   5.271 -32.032  1.00  0.00    -0.352 N 
HETATM   13  H   UNL     1      -6.044   5.839 -32.182  1.00  0.00     0.163 HD
HETATM   14  O   UNL     1      -4.245   3.253 -32.477  1.00  0.00    -0.267 OA
BRANCH  12  15
HETATM   15  C   UNL     1      -4.048   5.869 -31.447  1.00  0.00     0.161 C 
BRANCH  15  16
HETATM   16  C   UNL     1      -4.270   6.248 -30.005  1.00  0.00    -0.040 A 
HETATM   17  C   UNL     1      -3.366   7.096 -29.348  1.00  0.00     0.011 A 
HETATM   18  C   UNL     1      -3.570   7.475 -28.017  1.00  0.00     0.037 A 
HETATM   19  C   UNL     1      -4.686   7.014 -27.321  1.00  0.00     0.068 A 
HETATM   20  C   UNL     1      -5.582   6.155 -27.965  1.00  0.00     0.037 A 
HETATM   21  C   UNL     1      -5.377   5.772 -29.294  1.00  0.00     0.011 A 
BRANCH  19  22
HETATM   22  O   UNL     1      -5.009   7.319 -26.028  1.00  0.00    -0.356 OA
HETATM   23  C   UNL     1      -4.222   8.321 -25.394  1.00  0.00     0.210 C 
ENDBRANCH  19  22
ENDBRANCH  15  16
ENDBRANCH  12  15
ENDBRANCH   1  11
BRANCH   4  24
HETATM   24  C   UNL     1     -10.174   1.078 -33.122  1.00  0.00     0.409 C 
HETATM   25  F   UNL     1     -11.312   1.778 -33.310  1.00  0.00    -0.169 F 
HETATM   26  F   UNL     1     -10.522  -0.237 -33.144  1.00  0.00    -0.169 F 
HETATM   27  F   UNL     1      -9.732   1.334 -31.872  1.00  0.00    -0.169 F 
ENDBRANCH   4  24
BRANCH   6  28
HETATM   28  C   UNL     1      -6.400  -1.375 -33.783  1.00  0.00    -0.035 A 
HETATM   29  C   UNL     1      -5.048  -1.438 -33.406  1.00  0.00     0.009 A 
HETATM   30  C   UNL     1      -4.256  -2.527 -33.778  1.00  0.00     0.001 A 
HETATM   31  C   UNL     1      -4.800  -3.559 -34.539  1.00  0.00     0.000 A 
HETATM   32  C   UNL     1      -6.134  -3.505 -34.931  1.00  0.00     0.001 A 
HETATM   33  C   UNL     1      -6.930  -2.421 -34.556  1.00  0.00     0.009 A 
ENDBRANCH   6  28
TORSDOF 6
ENDMDL
MODEL 7
REMARK VINA RESULT:      -8.6      5.062      9.509
REMARK  6 active torsions:
REMARK  status: ('A' for Active; 'I' for Inactive)
REMARK    1  A    between atoms: O_2  and  C_3 
REMARK    2  A    between atoms: C_6  and  C_7 
REMARK    3  A    between atoms: C_7  and  N_8 
REMARK       I    between atoms: N_8  and  C_9 
REMARK    4  A    between atoms: C_9  and  C_10 
REMARK    5  A    between atoms: C_13  and  C_14 
REMARK    6  A    between atoms: C_19  and  C_20 
ROOT
HETATM    1  C   UNL     1      -3.961   2.470 -31.984  1.00  0.00     0.096 A 
HETATM    2  C   UNL     1      -4.923   1.562 -32.390  1.00  0.00     0.138 A 
HETATM    3  N   UNL     1      -4.497   0.342 -31.918  1.00  0.00    -0.240 N 
HETATM    4  C   UNL     1      -5.234  -0.900 -32.065  1.00  0.00     0.221 C 
HETATM    5  C   UNL     1      -6.721  -0.593 -32.293  1.00  0.00     0.066 C 
HETATM    6  C   UNL     1      -6.901   0.480 -33.378  1.00  0.00     0.118 C 
HETATM    7  N   UNL     1      -6.103   1.667 -33.058  1.00  0.00    -0.365 N 
HETATM    8  N   UNL     1      -3.391   0.398 -31.164  1.00  0.00    -0.181 NA
HETATM    9  C   UNL     1      -3.055   1.689 -31.220  1.00  0.00     0.160 A 
HETATM   10  H   UNL     1      -6.608   2.551 -33.113  1.00  0.00     0.161 HD
ENDROOT
BRANCH   1  11
HETATM   11  C   UNL     1      -3.837   3.898 -32.216  1.00  0.00     0.257 C 
HETATM   12  N   UNL     1      -2.558   4.354 -32.426  1.00  0.00    -0.352 N 
HETATM   13  H   UNL     1      -1.794   3.703 -32.320  1.00  0.00     0.163 HD
HETATM   14  O   UNL     1      -4.814   4.638 -32.192  1.00  0.00    -0.267 OA
BRANCH  12  15
HETATM   15  C   UNL     1      -2.269   5.744 -32.679  1.00  0.00     0.161 C 
BRANCH  15  16
HETATM   16  C   UNL     1      -1.517   6.379 -31.536  1.00  0.00    -0.040 A 
HETATM   17  C   UNL     1      -2.214   6.969 -30.471  1.00  0.00     0.011 A 
HETATM   18  C   UNL     1      -1.531   7.542 -29.393  1.00  0.00     0.037 A 
HETATM   19  C   UNL     1      -0.138   7.530 -29.361  1.00  0.00     0.068 A 
HETATM   20  C   UNL     1       0.562   6.959 -30.427  1.00  0.00     0.037 A 
HETATM   21  C   UNL     1      -0.119   6.390 -31.508  1.00  0.00     0.011 A 
BRANCH  19  22
HETATM   22  O   UNL     1       0.647   8.041 -28.363  1.00  0.00    -0.356 OA
HETATM   23  C   UNL     1       1.036   7.139 -27.334  1.00  0.00     0.210 C 
ENDBRANCH  19  22
ENDBRANCH  15  16
ENDBRANCH  12  15
ENDBRANCH   1  11
BRANCH   4  24
HETATM   24  C   UNL     1      -4.627  -1.728 -33.177  1.00  0.00     0.409 C 
HETATM   25  F   UNL     1      -5.553  -2.368 -33.921  1.00  0.00    -0.169 F 
HETATM   26  F   UNL     1      -3.940  -0.919 -34.027  1.00  0.00    -0.169 F 
HETATM   27  F   UNL     1      -3.746  -2.650 -32.733  1.00  0.00    -0.169 F 
ENDBRANCH   4  24
BRANCH   6  28
HETATM   28  C   UNL     1      -8.365   0.838 -33.553  1.00  0.00    -0.035 A 
HETATM   29  C   UNL     1      -8.767   2.019 -34.197  1.00  0.00     0.009 A 
HETATM   30  C   UNL     1     -10.123   2.334 -34.324  1.00  0.00     0.001 A 
HETATM   31  C   UNL     1     -11.091   1.480 -33.800  1.00  0.00     0.000 A 
HETATM   32  C   UNL     1     -10.707   0.312 -33.148  1.00  0.00     0.001 A 
HETATM   33  C   UNL     1      -9.354  -0.009 -33.024  1.00  0.00     0.009 A 
ENDBRANCH   6  28
TORSDOF 6
ENDMDL
MODEL 8
REMARK VINA RESULT:      -8.6      3.402      8.305
REMARK  6 active torsions:
REMARK  status: ('A' for Active; 'I' for Inactive)
REMARK    1  A    between atoms: O_2  and  C_3 
REMARK    2  A    between atoms: C_6  and  C_7 
REMARK    3  A    between atoms: C_7  and  N_8 
REMARK       I    between atoms: N_8  and  C_9 
REMARK    4  A    between atoms: C_9  and  C_10 
REMARK    5  A    between atoms: C_13  and  C_14 
REMARK    6  A    between atoms: C_19  and  C_20 
ROOT
HETATM    1  C   UNL     1      -7.733   3.412 -33.090  1.00  0.00     0.096 A 
HETATM    2  C   UNL     1      -9.093   3.571 -33.296  1.00  0.00     0.138 A 
HETATM    3  N   UNL     1      -9.222   4.749 -33.995  1.00  0.00    -0.240 N 
HETATM    4  C   UNL     1     -10.481   5.285 -34.478  1.00  0.00     0.221 C 
HETATM    5  C   UNL     1     -11.510   4.152 -34.601  1.00  0.00     0.066 C 
HETATM    6  C   UNL     1     -11.538   3.294 -33.327  1.00  0.00     0.118 C 
HETATM    7  N   UNL     1     -10.189   2.823 -33.000  1.00  0.00    -0.365 N 
HETATM    8  N   UNL     1      -8.058   5.318 -34.338  1.00  0.00    -0.181 NA
HETATM    9  C   UNL     1      -7.154   4.515 -33.771  1.00  0.00     0.160 A 
HETATM   10  H   UNL     1     -10.118   1.824 -32.809  1.00  0.00     0.161 HD
ENDROOT
BRANCH   1  11
HETATM   11  C   UNL     1      -6.987   2.388 -32.382  1.00  0.00     0.257 C 
HETATM   12  N   UNL     1      -5.840   1.957 -33.002  1.00  0.00    -0.352 N 
HETATM   13  H   UNL     1      -5.637   2.303 -33.928  1.00  0.00     0.163 HD
HETATM   14  O   UNL     1      -7.385   1.927 -31.318  1.00  0.00    -0.267 OA
BRANCH  12  15
HETATM   15  C   UNL     1      -4.984   0.950 -32.423  1.00  0.00     0.161 C 
BRANCH  15  16
HETATM   16  C   UNL     1      -5.120  -0.376 -33.129  1.00  0.00    -0.040 A 
HETATM   17  C   UNL     1      -6.286  -0.679 -33.849  1.00  0.00     0.011 A 
HETATM   18  C   UNL     1      -6.417  -1.896 -34.527  1.00  0.00     0.037 A 
HETATM   19  C   UNL     1      -5.383  -2.829 -34.497  1.00  0.00     0.068 A 
HETATM   20  C   UNL     1      -4.227  -2.540 -33.768  1.00  0.00     0.037 A 
HETATM   21  C   UNL     1      -4.094  -1.326 -33.086  1.00  0.00     0.011 A 
BRANCH  19  22
HETATM   22  O   UNL     1      -5.379  -4.044 -35.127  1.00  0.00    -0.356 OA
HETATM   23  C   UNL     1      -6.650  -4.620 -35.407  1.00  0.00     0.210 C 
ENDBRANCH  19  22
ENDBRANCH  15  16
ENDBRANCH  12  15
ENDBRANCH   1  11
BRANCH   4  24
HETATM   24  C   UNL     1     -10.944   6.404 -33.571  1.00  0.00     0.409 C 
HETATM   25  F   UNL     1     -10.530   7.620 -33.981  1.00  0.00    -0.169 F 
HETATM   26  F   UNL     1     -12.303   6.445 -33.553  1.00  0.00    -0.169 F 
HETATM   27  F   UNL     1     -10.551   6.245 -32.288  1.00  0.00    -0.169 F 
ENDBRANCH   4  24
BRANCH   6  28
HETATM   28  C   UNL     1     -12.500   2.130 -33.475  1.00  0.00    -0.035 A 
HETATM   29  C   UNL     1     -13.893   2.314 -33.469  1.00  0.00     0.009 A 
HETATM   30  C   UNL     1     -14.756   1.221 -33.585  1.00  0.00     0.001 A 
HETATM   31  C   UNL     1     -14.239  -0.068 -33.697  1.00  0.00     0.000 A 
HETATM   32  C   UNL     1     -12.862  -0.268 -33.692  1.00  0.00     0.001 A 
HETATM   33  C   UNL     1     -11.997   0.822 -33.583  1.00  0.00     0.009 A 
ENDBRANCH   6  28
TORSDOF 6
ENDMDL
MODEL 9
REMARK VINA RESULT:      -8.5      4.257      8.190
REMARK  6 active torsions:
REMARK  status: ('A' for Active; 'I' for Inactive)
REMARK    1  A    between atoms: O_2  and  C_3 
REMARK    2  A    between atoms: C_6  and  C_7 
REMARK    3  A    between atoms: C_7  and  N_8 
REMARK       I    between atoms: N_8  and  C_9 
REMARK    4  A    between atoms: C_9  and  C_10 
REMARK    5  A    between atoms: C_13  and  C_14 
REMARK    6  A    between atoms: C_19  and  C_20 
ROOT
HETATM    1  C   UNL     1      -8.364   4.408 -33.654  1.00  0.00     0.096 A 
HETATM    2  C   UNL     1      -8.163   3.045 -33.521  1.00  0.00     0.138 A 
HETATM    3  N   UNL     1      -9.259   2.454 -34.106  1.00  0.00    -0.240 N 
HETATM    4  C   UNL     1      -9.445   1.021 -34.246  1.00  0.00     0.221 C 
HETATM    5  C   UNL     1      -8.082   0.316 -34.177  1.00  0.00     0.066 C 
HETATM    6  C   UNL     1      -7.262   0.819 -32.979  1.00  0.00     0.118 C 
HETATM    7  N   UNL     1      -7.160   2.281 -33.009  1.00  0.00    -0.365 N 
HETATM    8  N   UNL     1     -10.104   3.314 -34.689  1.00  0.00    -0.181 NA
HETATM    9  C   UNL     1      -9.570   4.503 -34.396  1.00  0.00     0.160 A 
HETATM   10  H   UNL     1      -6.217   2.648 -32.892  1.00  0.00     0.161 HD
ENDROOT
BRANCH   1  11
HETATM   11  C   UNL     1      -7.577   5.539 -33.199  1.00  0.00     0.257 C 
HETATM   12  N   UNL     1      -6.216   5.404 -33.335  1.00  0.00    -0.352 N 
HETATM   13  H   UNL     1      -5.851   4.517 -33.650  1.00  0.00     0.163 HD
HETATM   14  O   UNL     1      -8.104   6.527 -32.700  1.00  0.00    -0.267 OA
BRANCH  12  15
HETATM   15  C   UNL     1      -5.297   6.443 -32.937  1.00  0.00     0.161 C 
BRANCH  15  16
HETATM   16  C   UNL     1      -4.019   5.875 -32.373  1.00  0.00    -0.040 A 
HETATM   17  C   UNL     1      -3.428   4.744 -32.955  1.00  0.00     0.011 A 
HETATM   18  C   UNL     1      -2.231   4.219 -32.457  1.00  0.00     0.037 A 
HETATM   19  C   UNL     1      -1.602   4.821 -31.368  1.00  0.00     0.068 A 
HETATM   20  C   UNL     1      -2.195   5.938 -30.773  1.00  0.00     0.037 A 
HETATM   21  C   UNL     1      -3.394   6.462 -31.267  1.00  0.00     0.011 A 
BRANCH  19  22
HETATM   22  O   UNL     1      -0.427   4.418 -30.796  1.00  0.00    -0.356 OA
HETATM   23  C   UNL     1       0.216   5.352 -29.936  1.00  0.00     0.210 C 
ENDBRANCH  19  22
ENDBRANCH  15  16
ENDBRANCH  12  15
ENDBRANCH   1  11
BRANCH   4  24
HETATM   24  C   UNL     1     -10.416   0.526 -33.198  1.00  0.00     0.409 C 
HETATM   25  F   UNL     1     -10.446   1.305 -32.097  1.00  0.00    -0.169 F 
HETATM   26  F   UNL     1     -11.678   0.528 -33.705  1.00  0.00    -0.169 F 
HETATM   27  F   UNL     1     -10.168  -0.741 -32.800  1.00  0.00    -0.169 F 
ENDBRANCH   4  24
BRANCH   6  28
HETATM   28  C   UNL     1      -5.887   0.178 -32.952  1.00  0.00    -0.035 A 
HETATM   29  C   UNL     1      -4.753   0.876 -32.506  1.00  0.00     0.009 A 
HETATM   30  C   UNL     1      -3.495   0.268 -32.513  1.00  0.00     0.001 A 
HETATM   31  C   UNL     1      -3.353  -1.039 -32.975  1.00  0.00     0.000 A 
HETATM   32  C   UNL     1      -4.466  -1.739 -33.432  1.00  0.00     0.001 A 
HETATM   33  C   UNL     1      -5.725  -1.137 -33.421  1.00  0.00     0.009 A 
ENDBRANCH   6  28
TORSDOF 6
ENDMDL
MODEL 10
REMARK VINA RESULT:      -8.5      5.614      9.862
REMARK  6 active torsions:
REMARK  status: ('A' for Active; 'I' for Inactive)
REMARK    1  A    between atoms: O_2  and  C_3 
REMARK    2  A    between atoms: C_6  and  C_7 
REMARK    3  A    between atoms: C_7  and  N_8 
REMARK       I    between atoms: N_8  and  C_9 
REMARK    4  A    between atoms: C_9  and  C_10 
REMARK    5  A    between atoms: C_13  and  C_14 
REMARK    6  A    between atoms: C_19  and  C_20 
ROOT
HETATM    1  C   UNL     1      -3.370   4.033 -31.887  1.00  0.00     0.096 A 
HETATM    2  C   UNL     1      -2.906   5.166 -31.241  1.00  0.00     0.138 A 
HETATM    3  N   UNL     1      -1.829   5.594 -31.982  1.00  0.00    -0.240 N 
HETATM    4  C   UNL     1      -1.062   6.794 -31.701  1.00  0.00     0.221 C 
HETATM    5  C   UNL     1      -1.911   7.765 -30.868  1.00  0.00     0.066 C 
HETATM    6  C   UNL     1      -2.571   7.043 -29.684  1.00  0.00     0.118 C 
HETATM    7  N   UNL     1      -3.317   5.871 -30.153  1.00  0.00    -0.365 N 
HETATM    8  N   UNL     1      -1.614   4.890 -33.101  1.00  0.00    -0.181 NA
HETATM    9  C   UNL     1      -2.539   3.928 -33.032  1.00  0.00     0.160 A 
HETATM   10  H   UNL     1      -4.270   5.800 -29.800  1.00  0.00     0.161 HD
ENDROOT
BRANCH   1  11
HETATM   11  C   UNL     1      -4.451   3.122 -31.559  1.00  0.00     0.257 C 
HETATM   12  N   UNL     1      -5.044   2.498 -32.630  1.00  0.00    -0.352 N 
HETATM   13  H   UNL     1      -4.761   2.770 -33.559  1.00  0.00     0.163 HD
HETATM   14  O   UNL     1      -4.819   2.955 -30.401  1.00  0.00    -0.267 OA
BRANCH  12  15
HETATM   15  C   UNL     1      -6.127   1.557 -32.470  1.00  0.00     0.161 C 
BRANCH  15  16
HETATM   16  C   UNL     1      -5.833   0.243 -33.148  1.00  0.00    -0.040 A 
HETATM   17  C   UNL     1      -4.549  -0.318 -33.080  1.00  0.00     0.011 A 
HETATM   18  C   UNL     1      -4.267  -1.547 -33.686  1.00  0.00     0.037 A 
HETATM   19  C   UNL     1      -5.268  -2.237 -34.367  1.00  0.00     0.068 A 
HETATM   20  C   UNL     1      -6.544  -1.676 -34.453  1.00  0.00     0.037 A 
HETATM   21  C   UNL     1      -6.827  -0.445 -33.852  1.00  0.00     0.011 A 
BRANCH  19  22
HETATM   22  O   UNL     1      -5.128  -3.449 -34.987  1.00  0.00    -0.356 OA
HETATM   23  C   UNL     1      -6.300  -4.249 -35.094  1.00  0.00     0.210 C 
ENDBRANCH  19  22
ENDBRANCH  15  16
ENDBRANCH  12  15
ENDBRANCH   1  11
BRANCH   4  24
HETATM   24  C   UNL     1       0.240   6.424 -31.026  1.00  0.00     0.409 C 
HETATM   25  F   UNL     1       0.481   5.096 -31.038  1.00  0.00    -0.169 F 
HETATM   26  F   UNL     1       1.278   7.010 -31.680  1.00  0.00    -0.169 F 
HETATM   27  F   UNL     1       0.311   6.844 -29.744  1.00  0.00    -0.169 F 
ENDBRANCH   4  24
BRANCH   6  28
HETATM   28  C   UNL     1      -3.469   7.983 -28.903  1.00  0.00    -0.035 A 
HETATM   29  C   UNL     1      -2.982   8.761 -27.840  1.00  0.00     0.009 A 
HETATM   30  C   UNL     1      -3.837   9.603 -27.124  1.00  0.00     0.001 A 
HETATM   31  C   UNL     1      -5.189   9.669 -27.453  1.00  0.00     0.000 A 
HETATM   32  C   UNL     1      -5.689   8.895 -28.496  1.00  0.00     0.001 A 
HETATM   33  C   UNL     1      -4.836   8.058 -29.217  1.00  0.00     0.009 A 
ENDBRANCH   6  28
TORSDOF 6
ENDMDL
