MODEL 1
REMARK VINA RESULT:     -10.0      0.000      0.000
REMARK  3 active torsions:
REMARK  status: ('A' for Active; 'I' for Inactive)
REMARK    1  A    between atoms: N_1  and  C_2 
REMARK    2  A    between atoms: C_6  and  C_8 
REMARK    3  A    between atoms: C_13  and  C_17 
ROOT
HETATM    1  C   UNL     1      -6.097  -1.270 -34.309  1.00  0.00    -0.006 A 
HETATM    2  C   UNL     1      -6.878  -0.531 -35.211  1.00  0.00     0.016 A 
HETATM    3  C   UNL     1      -7.094   0.845 -35.044  1.00  0.00     0.034 A 
HETATM    4  C   UNL     1      -6.518   1.516 -33.952  1.00  0.00     0.074 A 
HETATM    5  N   UNL     1      -6.634   2.865 -33.677  1.00  0.00    -0.244 NA
HETATM    6  C   UNL     1      -5.932   3.179 -32.608  1.00  0.00     0.083 A 
HETATM    7  S   UNL     1      -5.194   1.842 -31.809  1.00  0.00    -0.072 SA
HETATM    8  C   UNL     1      -5.757   0.784 -33.045  1.00  0.00     0.036 A 
HETATM    9  C   UNL     1      -5.542  -0.597 -33.200  1.00  0.00     0.035 A 
ENDROOT
BRANCH   6  10
HETATM   10  C   UNL     1      -5.810   4.578 -32.039  1.00  0.00     0.074 C 
HETATM   11  C   UNL     1      -4.887   4.644 -30.820  1.00  0.00     0.187 C 
HETATM   12  O   UNL     1      -3.526   4.303 -31.104  1.00  0.00    -0.350 OA
HETATM   13  C   UNL     1      -3.009   4.886 -32.229  1.00  0.00     0.075 A 
HETATM   14  C   UNL     1      -1.625   4.798 -32.380  1.00  0.00     0.037 A 
HETATM   15  C   UNL     1      -3.788   5.507 -33.209  1.00  0.00    -0.024 A 
HETATM   16  C   UNL     1      -1.006   5.351 -33.500  1.00  0.00     0.003 A 
HETATM   17  C   UNL     1      -1.773   5.992 -34.472  1.00  0.00     0.001 A 
HETATM   18  C   UNL     1      -3.159   6.072 -34.327  1.00  0.00     0.010 A 
HETATM   19  C   UNL     1      -5.285   5.584 -33.070  1.00  0.00     0.055 C 
ENDBRANCH   6  10
BRANCH   1  20
HETATM   20  C   UNL     1      -5.849  -2.717 -34.496  1.00  0.00     0.071 A 
HETATM   21  C   UNL     1      -6.761  -3.561 -35.099  1.00  0.00     0.052 A 
HETATM   22  C   UNL     1      -6.388  -4.879 -35.207  1.00  0.00     0.122 A 
HETATM   23  N   UNL     1      -5.212  -5.354 -34.765  1.00  0.00    -0.231 NA
HETATM   24  C   UNL     1      -4.383  -4.464 -34.219  1.00  0.00     0.199 A 
HETATM   25  N   UNL     1      -4.654  -3.168 -34.051  1.00  0.00    -0.218 NA
BRANCH  24  26
HETATM   26  N   UNL     1      -3.173  -4.928 -33.746  1.00  0.00    -0.271 NA
HETATM   27  H   UNL     1      -2.464  -4.223 -33.891  1.00  0.00     0.127 HD
HETATM   28  H   UNL     1      -2.995  -5.848 -34.123  1.00  0.00     0.127 HD
ENDBRANCH  24  26
ENDBRANCH   1  20
TORSDOF 3
ENDMDL
MODEL 2
REMARK VINA RESULT:      -9.3      1.146      1.603
REMARK  3 active torsions:
REMARK  status: ('A' for Active; 'I' for Inactive)
REMARK    1  A    between atoms: N_1  and  C_2 
REMARK    2  A    between atoms: C_6  and  C_8 
REMARK    3  A    between atoms: C_13  and  C_17 
ROOT
HETATM    1  C   UNL     1      -5.224  -1.200 -33.414  1.00  0.00    -0.006 A 
HETATM    2  C   UNL     1      -4.369  -0.983 -32.322  1.00  0.00     0.016 A 
HETATM    3  C   UNL     1      -4.179   0.295 -31.775  1.00  0.00     0.034 A 
HETATM    4  C   UNL     1      -4.856   1.398 -32.323  1.00  0.00     0.074 A 
HETATM    5  N   UNL     1      -4.776   2.703 -31.876  1.00  0.00    -0.244 NA
HETATM    6  C   UNL     1      -5.574   3.479 -32.578  1.00  0.00     0.083 A 
HETATM    7  S   UNL     1      -6.372   2.699 -33.891  1.00  0.00    -0.072 SA
HETATM    8  C   UNL     1      -5.692   1.191 -33.418  1.00  0.00     0.036 A 
HETATM    9  C   UNL     1      -5.882  -0.085 -33.976  1.00  0.00     0.035 A 
ENDROOT
BRANCH   6  10
HETATM   10  C   UNL     1      -5.758   4.965 -32.339  1.00  0.00     0.074 C 
HETATM   11  C   UNL     1      -5.263   5.410 -30.961  1.00  0.00     0.187 C 
HETATM   12  O   UNL     1      -3.856   5.235 -30.767  1.00  0.00    -0.350 OA
HETATM   13  C   UNL     1      -3.073   5.661 -31.806  1.00  0.00     0.075 A 
HETATM   14  C   UNL     1      -1.708   5.760 -31.540  1.00  0.00     0.037 A 
HETATM   15  C   UNL     1      -3.568   5.949 -33.082  1.00  0.00    -0.024 A 
HETATM   16  C   UNL     1      -0.828   6.173 -32.539  1.00  0.00     0.003 A 
HETATM   17  C   UNL     1      -1.314   6.485 -33.808  1.00  0.00     0.001 A 
HETATM   18  C   UNL     1      -2.679   6.376 -34.079  1.00  0.00     0.010 A 
HETATM   19  C   UNL     1      -5.036   5.819 -33.387  1.00  0.00     0.055 C 
ENDBRANCH   6  10
BRANCH   1  20
HETATM   20  C   UNL     1      -5.442  -2.550 -33.976  1.00  0.00     0.071 A 
HETATM   21  C   UNL     1      -6.590  -2.901 -34.660  1.00  0.00     0.052 A 
HETATM   22  C   UNL     1      -6.646  -4.191 -35.128  1.00  0.00     0.122 A 
HETATM   23  N   UNL     1      -5.661  -5.087 -34.953  1.00  0.00    -0.231 NA
HETATM   24  C   UNL     1      -4.579  -4.655 -34.303  1.00  0.00     0.199 A 
HETATM   25  N   UNL     1      -4.431  -3.430 -33.794  1.00  0.00    -0.218 NA
BRANCH  24  26
HETATM   26  N   UNL     1      -3.557  -5.558 -34.099  1.00  0.00    -0.271 NA
HETATM   27  H   UNL     1      -3.695  -6.026 -33.214  1.00  0.00     0.127 HD
HETATM   28  H   UNL     1      -2.669  -5.099 -34.247  1.00  0.00     0.127 HD
ENDBRANCH  24  26
ENDBRANCH   1  20
TORSDOF 3
ENDMDL
MODEL 3
REMARK VINA RESULT:      -9.1      3.654      5.494
REMARK  3 active torsions:
REMARK  status: ('A' for Active; 'I' for Inactive)
REMARK    1  A    between atoms: N_1  and  C_2 
REMARK    2  A    between atoms: C_6  and  C_8 
REMARK    3  A    between atoms: C_13  and  C_17 
ROOT
HETATM    1  C   UNL     1      -5.362   2.283 -32.790  1.00  0.00    -0.006 A 
HETATM    2  C   UNL     1      -4.412   1.666 -31.961  1.00  0.00     0.016 A 
HETATM    3  C   UNL     1      -3.206   2.297 -31.622  1.00  0.00     0.034 A 
HETATM    4  C   UNL     1      -2.927   3.583 -32.116  1.00  0.00     0.074 A 
HETATM    5  N   UNL     1      -1.792   4.325 -31.850  1.00  0.00    -0.244 NA
HETATM    6  C   UNL     1      -1.869   5.506 -32.427  1.00  0.00     0.083 A 
HETATM    7  S   UNL     1      -3.259   5.737 -33.419  1.00  0.00    -0.072 SA
HETATM    8  C   UNL     1      -3.858   4.193 -32.953  1.00  0.00     0.036 A 
HETATM    9  C   UNL     1      -5.066   3.564 -33.303  1.00  0.00     0.035 A 
ENDROOT
BRANCH   6  10
HETATM   10  C   UNL     1      -0.812   6.586 -32.320  1.00  0.00     0.074 C 
HETATM   11  C   UNL     1      -1.396   7.954 -31.961  1.00  0.00     0.187 C 
HETATM   12  O   UNL     1      -2.017   7.999 -30.672  1.00  0.00    -0.350 OA
HETATM   13  C   UNL     1      -1.297   7.416 -29.664  1.00  0.00     0.075 A 
HETATM   14  C   UNL     1      -1.738   7.682 -28.368  1.00  0.00     0.037 A 
HETATM   15  C   UNL     1      -0.206   6.569 -29.880  1.00  0.00    -0.024 A 
HETATM   16  C   UNL     1      -1.077   7.124 -27.275  1.00  0.00     0.003 A 
HETATM   17  C   UNL     1       0.026   6.296 -27.479  1.00  0.00     0.001 A 
HETATM   18  C   UNL     1       0.462   6.020 -28.777  1.00  0.00     0.010 A 
HETATM   19  C   UNL     1       0.260   6.253 -31.276  1.00  0.00     0.055 C 
ENDBRANCH   6  10
BRANCH   1  20
HETATM   20  C   UNL     1      -6.644   1.627 -33.130  1.00  0.00     0.071 A 
HETATM   21  C   UNL     1      -6.989   1.279 -34.421  1.00  0.00     0.052 A 
HETATM   22  C   UNL     1      -8.210   0.671 -34.579  1.00  0.00     0.122 A 
HETATM   23  N   UNL     1      -9.047   0.413 -33.560  1.00  0.00    -0.231 NA
HETATM   24  C   UNL     1      -8.622   0.762 -32.344  1.00  0.00     0.199 A 
HETATM   25  N   UNL     1      -7.463   1.371 -32.085  1.00  0.00    -0.218 NA
BRANCH  24  26
HETATM   26  N   UNL     1      -9.466   0.518 -31.282  1.00  0.00    -0.271 NA
HETATM   27  H   UNL     1     -10.281   1.111 -31.358  1.00  0.00     0.127 HD
HETATM   28  H   UNL     1      -8.942   0.559 -30.419  1.00  0.00     0.127 HD
ENDBRANCH  24  26
ENDBRANCH   1  20
TORSDOF 3
ENDMDL
MODEL 4
REMARK VINA RESULT:      -8.9      1.629      3.347
REMARK  3 active torsions:
REMARK  status: ('A' for Active; 'I' for Inactive)
REMARK    1  A    between atoms: N_1  and  C_2 
REMARK    2  A    between atoms: C_6  and  C_8 
REMARK    3  A    between atoms: C_13  and  C_17 
ROOT
HETATM    1  C   UNL     1      -5.837  -1.036 -34.170  1.00  0.00    -0.006 A 
HETATM    2  C   UNL     1      -6.818  -0.265 -34.812  1.00  0.00     0.016 A 
HETATM    3  C   UNL     1      -6.882   1.128 -34.654  1.00  0.00     0.034 A 
HETATM    4  C   UNL     1      -5.945   1.783 -33.836  1.00  0.00     0.074 A 
HETATM    5  N   UNL     1      -5.882   3.144 -33.606  1.00  0.00    -0.244 NA
HETATM    6  C   UNL     1      -4.856   3.432 -32.832  1.00  0.00     0.083 A 
HETATM    7  S   UNL     1      -3.987   2.064 -32.244  1.00  0.00    -0.072 SA
HETATM    8  C   UNL     1      -4.981   1.020 -33.183  1.00  0.00     0.036 A 
HETATM    9  C   UNL     1      -4.915  -0.377 -33.330  1.00  0.00     0.035 A 
ENDROOT
BRANCH   6  10
HETATM   10  C   UNL     1      -4.470   4.832 -32.402  1.00  0.00     0.074 C 
HETATM   11  C   UNL     1      -5.395   5.906 -32.977  1.00  0.00     0.187 C 
HETATM   12  O   UNL     1      -6.750   5.806 -32.528  1.00  0.00    -0.350 OA
HETATM   13  C   UNL     1      -6.898   5.603 -31.182  1.00  0.00     0.075 A 
HETATM   14  C   UNL     1      -8.187   5.775 -30.678  1.00  0.00     0.037 A 
HETATM   15  C   UNL     1      -5.855   5.210 -30.338  1.00  0.00    -0.024 A 
HETATM   16  C   UNL     1      -8.440   5.579 -29.321  1.00  0.00     0.003 A 
HETATM   17  C   UNL     1      -7.402   5.209 -28.467  1.00  0.00     0.001 A 
HETATM   18  C   UNL     1      -6.114   5.026 -28.973  1.00  0.00     0.010 A 
HETATM   19  C   UNL     1      -4.466   4.994 -30.877  1.00  0.00     0.055 C 
ENDBRANCH   6  10
BRANCH   1  20
HETATM   20  C   UNL     1      -5.755  -2.502 -34.355  1.00  0.00     0.071 A 
HETATM   21  C   UNL     1      -6.815  -3.261 -34.811  1.00  0.00     0.052 A 
HETATM   22  C   UNL     1      -6.585  -4.609 -34.936  1.00  0.00     0.122 A 
HETATM   23  N   UNL     1      -5.410  -5.191 -34.643  1.00  0.00    -0.231 NA
HETATM   24  C   UNL     1      -4.435  -4.379 -34.233  1.00  0.00     0.199 A 
HETATM   25  N   UNL     1      -4.558  -3.061 -34.061  1.00  0.00    -0.218 NA
BRANCH  24  26
HETATM   26  N   UNL     1      -3.222  -4.952 -33.914  1.00  0.00    -0.271 NA
HETATM   27  H   UNL     1      -3.366  -5.688 -33.237  1.00  0.00     0.127 HD
HETATM   28  H   UNL     1      -2.559  -4.228 -33.678  1.00  0.00     0.127 HD
ENDBRANCH  24  26
ENDBRANCH   1  20
TORSDOF 3
ENDMDL
MODEL 5
REMARK VINA RESULT:      -8.7      4.075      5.726
REMARK  3 active torsions:
REMARK  status: ('A' for Active; 'I' for Inactive)
REMARK    1  A    between atoms: N_1  and  C_2 
REMARK    2  A    between atoms: C_6  and  C_8 
REMARK    3  A    between atoms: C_13  and  C_17 
ROOT
HETATM    1  C   UNL     1      -5.739   2.309 -32.268  1.00  0.00    -0.006 A 
HETATM    2  C   UNL     1      -4.788   1.628 -31.492  1.00  0.00     0.016 A 
HETATM    3  C   UNL     1      -3.499   2.143 -31.284  1.00  0.00     0.034 A 
HETATM    4  C   UNL     1      -3.137   3.374 -31.857  1.00  0.00     0.074 A 
HETATM    5  N   UNL     1      -1.915   4.003 -31.721  1.00  0.00    -0.244 NA
HETATM    6  C   UNL     1      -1.923   5.163 -32.344  1.00  0.00     0.083 A 
HETATM    7  S   UNL     1      -3.364   5.500 -33.228  1.00  0.00    -0.072 SA
HETATM    8  C   UNL     1      -4.072   4.045 -32.642  1.00  0.00     0.036 A 
HETATM    9  C   UNL     1      -5.362   3.532 -32.862  1.00  0.00     0.035 A 
ENDROOT
BRANCH   6  10
HETATM   10  C   UNL     1      -0.757   6.131 -32.375  1.00  0.00     0.074 C 
HETATM   11  C   UNL     1      -1.190   7.587 -32.188  1.00  0.00     0.187 C 
HETATM   12  O   UNL     1      -1.785   7.856 -30.915  1.00  0.00    -0.350 OA
HETATM   13  C   UNL     1      -1.114   7.331 -29.843  1.00  0.00     0.075 A 
HETATM   14  C   UNL     1      -1.506   7.800 -28.590  1.00  0.00     0.037 A 
HETATM   15  C   UNL     1      -0.121   6.354 -29.953  1.00  0.00    -0.024 A 
HETATM   16  C   UNL     1      -0.890   7.316 -27.436  1.00  0.00     0.003 A 
HETATM   17  C   UNL     1       0.118   6.358 -27.537  1.00  0.00     0.001 A 
HETATM   18  C   UNL     1       0.503   5.879 -28.791  1.00  0.00     0.010 A 
HETATM   19  C   UNL     1       0.290   5.819 -31.299  1.00  0.00     0.055 C 
ENDBRANCH   6  10
BRANCH   1  20
HETATM   20  C   UNL     1      -7.105   1.777 -32.469  1.00  0.00     0.071 A 
HETATM   21  C   UNL     1      -7.662   0.812 -31.653  1.00  0.00     0.052 A 
HETATM   22  C   UNL     1      -8.942   0.422 -31.962  1.00  0.00     0.122 A 
HETATM   23  N   UNL     1      -9.643   0.929 -32.990  1.00  0.00    -0.231 NA
HETATM   24  C   UNL     1      -9.037   1.873 -33.710  1.00  0.00     0.199 A 
HETATM   25  N   UNL     1      -7.793   2.311 -33.505  1.00  0.00    -0.218 NA
BRANCH  24  26
HETATM   26  N   UNL     1      -9.730   2.402 -34.778  1.00  0.00    -0.271 NA
HETATM   27  H   UNL     1      -9.491   1.895 -35.618  1.00  0.00     0.127 HD
HETATM   28  H   UNL     1      -9.611   3.406 -34.793  1.00  0.00     0.127 HD
ENDBRANCH  24  26
ENDBRANCH   1  20
TORSDOF 3
ENDMDL
MODEL 6
REMARK VINA RESULT:      -8.7      2.478      3.250
REMARK  3 active torsions:
REMARK  status: ('A' for Active; 'I' for Inactive)
REMARK    1  A    between atoms: N_1  and  C_2 
REMARK    2  A    between atoms: C_6  and  C_8 
REMARK    3  A    between atoms: C_13  and  C_17 
ROOT
HETATM    1  C   UNL     1      -4.537   0.356 -32.251  1.00  0.00    -0.006 A 
HETATM    2  C   UNL     1      -5.636   0.708 -31.453  1.00  0.00     0.016 A 
HETATM    3  C   UNL     1      -5.901   2.042 -31.107  1.00  0.00     0.034 A 
HETATM    4  C   UNL     1      -5.053   3.064 -31.566  1.00  0.00     0.074 A 
HETATM    5  N   UNL     1      -5.203   4.415 -31.318  1.00  0.00    -0.244 NA
HETATM    6  C   UNL     1      -4.266   5.103 -31.935  1.00  0.00     0.083 A 
HETATM    7  S   UNL     1      -3.084   4.149 -32.748  1.00  0.00    -0.072 SA
HETATM    8  C   UNL     1      -3.950   2.718 -32.344  1.00  0.00     0.036 A 
HETATM    9  C   UNL     1      -3.674   1.383 -32.688  1.00  0.00     0.035 A 
ENDROOT
BRANCH   6  10
HETATM   10  C   UNL     1      -4.147   6.614 -31.904  1.00  0.00     0.074 C 
HETATM   11  C   UNL     1      -4.276   7.191 -30.493  1.00  0.00     0.187 C 
HETATM   12  O   UNL     1      -3.236   6.778 -29.601  1.00  0.00    -0.350 OA
HETATM   13  C   UNL     1      -1.971   6.847 -30.119  1.00  0.00     0.075 A 
HETATM   14  C   UNL     1      -0.929   6.719 -29.201  1.00  0.00     0.037 A 
HETATM   15  C   UNL     1      -1.698   6.996 -31.482  1.00  0.00    -0.024 A 
HETATM   16  C   UNL     1       0.396   6.764 -29.634  1.00  0.00     0.003 A 
HETATM   17  C   UNL     1       0.678   6.935 -30.989  1.00  0.00     0.001 A 
HETATM   18  C   UNL     1      -0.364   7.052 -31.910  1.00  0.00     0.010 A 
HETATM   19  C   UNL     1      -2.816   7.107 -32.484  1.00  0.00     0.055 C 
ENDBRANCH   6  10
BRANCH   1  20
HETATM   20  C   UNL     1      -4.271  -1.048 -32.635  1.00  0.00     0.071 A 
HETATM   21  C   UNL     1      -4.781  -1.621 -33.783  1.00  0.00     0.052 A 
HETATM   22  C   UNL     1      -4.442  -2.933 -34.008  1.00  0.00     0.122 A 
HETATM   23  N   UNL     1      -3.660  -3.649 -33.183  1.00  0.00    -0.231 NA
HETATM   24  C   UNL     1      -3.192  -3.008 -32.110  1.00  0.00     0.199 A 
HETATM   25  N   UNL     1      -3.473  -1.743 -31.791  1.00  0.00    -0.218 NA
BRANCH  24  26
HETATM   26  N   UNL     1      -2.396  -3.723 -31.240  1.00  0.00    -0.271 NA
HETATM   27  H   UNL     1      -2.671  -4.695 -31.255  1.00  0.00     0.127 HD
HETATM   28  H   UNL     1      -2.379  -3.260 -30.342  1.00  0.00     0.127 HD
ENDBRANCH  24  26
ENDBRANCH   1  20
TORSDOF 3
ENDMDL
MODEL 7
REMARK VINA RESULT:      -8.7      3.176      4.899
REMARK  3 active torsions:
REMARK  status: ('A' for Active; 'I' for Inactive)
REMARK    1  A    between atoms: N_1  and  C_2 
REMARK    2  A    between atoms: C_6  and  C_8 
REMARK    3  A    between atoms: C_13  and  C_17 
ROOT
HETATM    1  C   UNL     1      -5.812  -1.280 -33.782  1.00  0.00    -0.006 A 
HETATM    2  C   UNL     1      -4.669  -0.522 -33.485  1.00  0.00     0.016 A 
HETATM    3  C   UNL     1      -4.758   0.814 -33.064  1.00  0.00     0.034 A 
HETATM    4  C   UNL     1      -6.018   1.422 -32.928  1.00  0.00     0.074 A 
HETATM    5  N   UNL     1      -6.252   2.717 -32.508  1.00  0.00    -0.244 NA
HETATM    6  C   UNL     1      -7.545   2.953 -32.444  1.00  0.00     0.083 A 
HETATM    7  S   UNL     1      -8.545   1.665 -33.003  1.00  0.00    -0.072 SA
HETATM    8  C   UNL     1      -7.154   0.679 -33.238  1.00  0.00     0.036 A 
HETATM    9  C   UNL     1      -7.073  -0.657 -33.668  1.00  0.00     0.035 A 
ENDROOT
BRANCH   6  10
HETATM   10  C   UNL     1      -8.159   4.263 -31.993  1.00  0.00     0.074 C 
HETATM   11  C   UNL     1      -7.909   5.406 -32.978  1.00  0.00     0.187 C 
HETATM   12  O   UNL     1      -8.509   5.208 -34.262  1.00  0.00    -0.350 OA
HETATM   13  C   UNL     1      -9.806   4.771 -34.231  1.00  0.00     0.075 A 
HETATM   14  C   UNL     1     -10.499   4.831 -35.439  1.00  0.00     0.037 A 
HETATM   15  C   UNL     1     -10.422   4.252 -33.088  1.00  0.00    -0.024 A 
HETATM   16  C   UNL     1     -11.822   4.398 -35.511  1.00  0.00     0.003 A 
HETATM   17  C   UNL     1     -12.453   3.900 -34.371  1.00  0.00     0.001 A 
HETATM   18  C   UNL     1     -11.757   3.829 -33.163  1.00  0.00     0.010 A 
HETATM   19  C   UNL     1      -9.675   4.157 -31.785  1.00  0.00     0.055 C 
ENDBRANCH   6  10
BRANCH   1  20
HETATM   20  C   UNL     1      -5.720  -2.695 -34.204  1.00  0.00     0.071 A 
HETATM   21  C   UNL     1      -6.738  -3.345 -34.875  1.00  0.00     0.052 A 
HETATM   22  C   UNL     1      -6.505  -4.657 -35.206  1.00  0.00     0.122 A 
HETATM   23  N   UNL     1      -5.364  -5.304 -34.914  1.00  0.00    -0.231 NA
HETATM   24  C   UNL     1      -4.426  -4.592 -34.286  1.00  0.00     0.199 A 
HETATM   25  N   UNL     1      -4.558  -3.320 -33.906  1.00  0.00    -0.218 NA
BRANCH  24  26
HETATM   26  N   UNL     1      -3.250  -5.235 -33.964  1.00  0.00    -0.271 NA
HETATM   27  H   UNL     1      -3.091  -5.991 -34.615  1.00  0.00     0.127 HD
HETATM   28  H   UNL     1      -3.250  -5.463 -32.980  1.00  0.00     0.127 HD
ENDBRANCH  24  26
ENDBRANCH   1  20
TORSDOF 3
ENDMDL
MODEL 8
REMARK VINA RESULT:      -8.5      3.882      7.951
REMARK  3 active torsions:
REMARK  status: ('A' for Active; 'I' for Inactive)
REMARK    1  A    between atoms: N_1  and  C_2 
REMARK    2  A    between atoms: C_6  and  C_8 
REMARK    3  A    between atoms: C_13  and  C_17 
ROOT
HETATM    1  C   UNL     1      -2.794   4.603 -32.411  1.00  0.00    -0.006 A 
HETATM    2  C   UNL     1      -3.514   5.220 -33.445  1.00  0.00     0.016 A 
HETATM    3  C   UNL     1      -4.687   4.655 -33.968  1.00  0.00     0.034 A 
HETATM    4  C   UNL     1      -5.167   3.439 -33.452  1.00  0.00     0.074 A 
HETATM    5  N   UNL     1      -6.312   2.782 -33.859  1.00  0.00    -0.244 NA
HETATM    6  C   UNL     1      -6.501   1.697 -33.137  1.00  0.00     0.083 A 
HETATM    7  S   UNL     1      -5.243   1.349 -32.011  1.00  0.00    -0.072 SA
HETATM    8  C   UNL     1      -4.447   2.814 -32.437  1.00  0.00     0.036 A 
HETATM    9  C   UNL     1      -3.266   3.370 -31.914  1.00  0.00     0.035 A 
ENDROOT
BRANCH   6  10
HETATM   10  C   UNL     1      -7.676   0.753 -33.293  1.00  0.00     0.074 C 
HETATM   11  C   UNL     1      -8.431   0.523 -31.982  1.00  0.00     0.187 C 
HETATM   12  O   UNL     1      -9.046   1.702 -31.453  1.00  0.00    -0.350 OA
HETATM   13  C   UNL     1      -9.732   2.454 -32.368  1.00  0.00     0.075 A 
HETATM   14  C   UNL     1     -10.563   3.444 -31.843  1.00  0.00     0.037 A 
HETATM   15  C   UNL     1      -9.606   2.297 -33.751  1.00  0.00    -0.024 A 
HETATM   16  C   UNL     1     -11.294   4.270 -32.696  1.00  0.00     0.003 A 
HETATM   17  C   UNL     1     -11.192   4.106 -34.077  1.00  0.00     0.001 A 
HETATM   18  C   UNL     1     -10.353   3.123 -34.604  1.00  0.00     0.010 A 
HETATM   19  C   UNL     1      -8.691   1.250 -34.329  1.00  0.00     0.055 C 
ENDBRANCH   6  10
BRANCH   1  20
HETATM   20  C   UNL     1      -1.570   5.210 -31.844  1.00  0.00     0.071 A 
HETATM   21  C   UNL     1      -1.148   6.486 -32.164  1.00  0.00     0.052 A 
HETATM   22  C   UNL     1       0.005   6.914 -31.553  1.00  0.00     0.122 A 
HETATM   23  N   UNL     1       0.707   6.165 -30.687  1.00  0.00    -0.231 NA
HETATM   24  C   UNL     1       0.213   4.956 -30.417  1.00  0.00     0.199 A 
HETATM   25  N   UNL     1      -0.887   4.439 -30.967  1.00  0.00    -0.218 NA
BRANCH  24  26
HETATM   26  N   UNL     1       0.921   4.162 -29.539  1.00  0.00    -0.271 NA
HETATM   27  H   UNL     1       1.744   4.657 -29.228  1.00  0.00     0.127 HD
HETATM   28  H   UNL     1       1.057   3.247 -29.947  1.00  0.00     0.127 HD
ENDBRANCH  24  26
ENDBRANCH   1  20
TORSDOF 3
ENDMDL
MODEL 9
REMARK VINA RESULT:      -8.5      3.459      4.673
REMARK  3 active torsions:
REMARK  status: ('A' for Active; 'I' for Inactive)
REMARK    1  A    between atoms: N_1  and  C_2 
REMARK    2  A    between atoms: C_6  and  C_8 
REMARK    3  A    between atoms: C_13  and  C_17 
ROOT
HETATM    1  C   UNL     1      -4.410   1.513 -31.939  1.00  0.00    -0.006 A 
HETATM    2  C   UNL     1      -5.535   2.010 -31.262  1.00  0.00     0.016 A 
HETATM    3  C   UNL     1      -5.596   3.335 -30.804  1.00  0.00     0.034 A 
HETATM    4  C   UNL     1      -4.511   4.201 -31.024  1.00  0.00     0.074 A 
HETATM    5  N   UNL     1      -4.444   5.528 -30.644  1.00  0.00    -0.244 NA
HETATM    6  C   UNL     1      -3.310   6.064 -31.045  1.00  0.00     0.083 A 
HETATM    7  S   UNL     1      -2.215   4.964 -31.795  1.00  0.00    -0.072 SA
HETATM    8  C   UNL     1      -3.386   3.708 -31.679  1.00  0.00     0.036 A 
HETATM    9  C   UNL     1      -3.314   2.380 -32.134  1.00  0.00     0.035 A 
ENDROOT
BRANCH   6  10
HETATM   10  C   UNL     1      -2.917   7.511 -30.825  1.00  0.00     0.074 C 
HETATM   11  C   UNL     1      -3.563   8.118 -29.578  1.00  0.00     0.187 C 
HETATM   12  O   UNL     1      -3.159   7.496 -28.354  1.00  0.00    -0.350 OA
HETATM   13  C   UNL     1      -1.813   7.278 -28.235  1.00  0.00     0.075 A 
HETATM   14  C   UNL     1      -1.361   6.933 -26.962  1.00  0.00     0.037 A 
HETATM   15  C   UNL     1      -0.919   7.347 -29.308  1.00  0.00    -0.024 A 
HETATM   16  C   UNL     1      -0.008   6.679 -26.743  1.00  0.00     0.003 A 
HETATM   17  C   UNL     1       0.895   6.768 -27.802  1.00  0.00     0.001 A 
HETATM   18  C   UNL     1       0.443   7.102 -29.080  1.00  0.00     0.010 A 
HETATM   19  C   UNL     1      -1.400   7.690 -30.692  1.00  0.00     0.055 C 
ENDBRANCH   6  10
BRANCH   1  20
HETATM   20  C   UNL     1      -4.355   0.123 -32.442  1.00  0.00     0.071 A 
HETATM   21  C   UNL     1      -5.094  -0.313 -33.525  1.00  0.00     0.052 A 
HETATM   22  C   UNL     1      -4.932  -1.630 -33.878  1.00  0.00     0.122 A 
HETATM   23  N   UNL     1      -4.111  -2.475 -33.233  1.00  0.00    -0.231 NA
HETATM   24  C   UNL     1      -3.418  -1.963 -32.215  1.00  0.00     0.199 A 
HETATM   25  N   UNL     1      -3.513  -0.704 -31.781  1.00  0.00    -0.218 NA
BRANCH  24  26
HETATM   26  N   UNL     1      -2.576  -2.811 -31.528  1.00  0.00    -0.271 NA
HETATM   27  H   UNL     1      -2.860  -3.767 -31.687  1.00  0.00     0.127 HD
HETATM   28  H   UNL     1      -2.497  -2.504 -30.568  1.00  0.00     0.127 HD
ENDBRANCH  24  26
ENDBRANCH   1  20
TORSDOF 3
ENDMDL
MODEL 10
REMARK VINA RESULT:      -8.2      2.569      4.576
REMARK  3 active torsions:
REMARK  status: ('A' for Active; 'I' for Inactive)
REMARK    1  A    between atoms: N_1  and  C_2 
REMARK    2  A    between atoms: C_6  and  C_8 
REMARK    3  A    between atoms: C_13  and  C_17 
ROOT
HETATM    1  C   UNL     1      -4.570  -1.450 -33.309  1.00  0.00    -0.006 A 
HETATM    2  C   UNL     1      -3.611  -0.984 -32.396  1.00  0.00     0.016 A 
HETATM    3  C   UNL     1      -3.574   0.356 -31.983  1.00  0.00     0.034 A 
HETATM    4  C   UNL     1      -4.518   1.269 -32.485  1.00  0.00     0.074 A 
HETATM    5  N   UNL     1      -4.608   2.607 -32.153  1.00  0.00    -0.244 NA
HETATM    6  C   UNL     1      -5.633   3.164 -32.762  1.00  0.00     0.083 A 
HETATM    7  S   UNL     1      -6.469   2.133 -33.861  1.00  0.00    -0.072 SA
HETATM    8  C   UNL     1      -5.461   0.816 -33.404  1.00  0.00     0.036 A 
HETATM    9  C   UNL     1      -5.499  -0.524 -33.829  1.00  0.00     0.035 A 
ENDROOT
BRANCH   6  10
HETATM   10  C   UNL     1      -6.046   4.614 -32.602  1.00  0.00     0.074 C 
HETATM   11  C   UNL     1      -6.900   5.119 -33.767  1.00  0.00     0.187 C 
HETATM   12  O   UNL     1      -8.159   4.450 -33.896  1.00  0.00    -0.350 OA
HETATM   13  C   UNL     1      -8.849   4.290 -32.725  1.00  0.00     0.075 A 
HETATM   14  C   UNL     1     -10.181   3.897 -32.851  1.00  0.00     0.037 A 
HETATM   15  C   UNL     1      -8.280   4.461 -31.459  1.00  0.00    -0.024 A 
HETATM   16  C   UNL     1     -10.963   3.696 -31.715  1.00  0.00     0.003 A 
HETATM   17  C   UNL     1     -10.411   3.886 -30.449  1.00  0.00     0.001 A 
HETATM   18  C   UNL     1      -9.074   4.269 -30.320  1.00  0.00     0.010 A 
HETATM   19  C   UNL     1      -6.835   4.858 -31.311  1.00  0.00     0.055 C 
ENDBRANCH   6  10
BRANCH   1  20
HETATM   20  C   UNL     1      -4.623  -2.868 -33.728  1.00  0.00     0.071 A 
HETATM   21  C   UNL     1      -3.644  -3.784 -33.397  1.00  0.00     0.052 A 
HETATM   22  C   UNL     1      -3.835  -5.066 -33.854  1.00  0.00     0.122 A 
HETATM   23  N   UNL     1      -4.900  -5.443 -34.579  1.00  0.00    -0.231 NA
HETATM   24  C   UNL     1      -5.808  -4.498 -34.831  1.00  0.00     0.199 A 
HETATM   25  N   UNL     1      -5.711  -3.223 -34.449  1.00  0.00    -0.218 NA
BRANCH  24  26
HETATM   26  N   UNL     1      -6.906  -4.856 -35.584  1.00  0.00    -0.271 NA
HETATM   27  H   UNL     1      -7.738  -4.795 -35.014  1.00  0.00     0.127 HD
HETATM   28  H   UNL     1      -6.725  -5.736 -36.046  1.00  0.00     0.127 HD
ENDBRANCH  24  26
ENDBRANCH   1  20
TORSDOF 3
ENDMDL
