MODEL 1
REMARK VINA RESULT:      -9.9      0.000      0.000
REMARK  9 active torsions:
REMARK  status: ('A' for Active; 'I' for Inactive)
REMARK    1  A    between atoms: C_2  and  O_3 
REMARK    2  A    between atoms: O_3  and  C_4 
REMARK    3  A    between atoms: C_4  and  C_5 
REMARK    4  A    between atoms: C_8  and  N_9 
REMARK       I    between atoms: N_9  and  C_10 
REMARK    5  A    between atoms: C_10  and  C_11 
REMARK    6  A    between atoms: C_11  and  C_12 
REMARK    7  A    between atoms: N_13  and  C_14 
REMARK    8  A    between atoms: C_14  and  C_15 
REMARK    9  A    between atoms: N_23  and  C_24 
ROOT
HETATM    1  C   UNL     1      -4.573   1.863 -31.110  1.00  0.00     0.191 C 
HETATM    2  N   UNL     1      -4.854   2.477 -32.393  1.00  0.00    -0.315 N 
HETATM    3  C   UNL     1      -5.422   1.541 -33.262  1.00  0.00     0.333 C 
HETATM    4  O   UNL     1      -6.087   1.869 -34.234  1.00  0.00    -0.246 OA
HETATM    5  N   UNL     1      -5.126   0.278 -32.786  1.00  0.00    -0.232 N 
HETATM    6  C   UNL     1      -4.503   0.404 -31.559  1.00  0.00     0.256 C 
HETATM    7  O   UNL     1      -4.000  -0.458 -30.850  1.00  0.00    -0.270 OA
ENDROOT
BRANCH   1   8
HETATM    8  C   UNL     1      -5.731   2.063 -30.136  1.00  0.00     0.138 C 
BRANCH   8   9
HETATM    9  C   UNL     1      -7.011   1.400 -30.595  1.00  0.00     0.224 C 
HETATM   10  N   UNL     1      -7.841   2.244 -31.315  1.00  0.00    -0.327 N 
HETATM   11  H   UNL     1      -7.558   3.210 -31.412  1.00  0.00     0.169 HD
HETATM   12  O   UNL     1      -7.202   0.213 -30.359  1.00  0.00    -0.273 OA
BRANCH  10  13
HETATM   13  C   UNL     1      -9.010   1.882 -32.023  1.00  0.00     0.034 A 
HETATM   14  C   UNL     1      -9.313   0.577 -32.420  1.00  0.00     0.030 A 
HETATM   15  C   UNL     1     -10.473   0.302 -33.159  1.00  0.00     0.020 A 
HETATM   16  C   UNL     1     -11.350   1.333 -33.510  1.00  0.00     0.039 A 
HETATM   17  C   UNL     1     -11.054   2.641 -33.108  1.00  0.00     0.020 A 
HETATM   18  C   UNL     1      -9.895   2.911 -32.370  1.00  0.00     0.030 A 
BRANCH  16  19
HETATM   19  C   UNL     1     -12.595   1.098 -34.293  1.00  0.00     0.293 C 
HETATM   20  O   UNL     1     -12.748   1.486 -35.440  1.00  0.00    -0.259 OA
BRANCH  19  21
HETATM   21  O   UNL     1     -13.502   0.412 -33.556  1.00  0.00    -0.318 OA
BRANCH  21  22
HETATM   22  C   UNL     1     -14.813   0.993 -33.474  1.00  0.00     0.174 C 
HETATM   23  C   UNL     1     -14.827   2.135 -32.477  1.00  0.00     0.034 C 
ENDBRANCH  21  22
ENDBRANCH  19  21
ENDBRANCH  16  19
ENDBRANCH  10  13
ENDBRANCH   8   9
ENDBRANCH   1   8
BRANCH   2  24
HETATM   24  C   UNL     1      -5.043   3.908 -32.550  1.00  0.00     0.168 C 
BRANCH  24  25
HETATM   25  C   UNL     1      -3.865   4.592 -33.184  1.00  0.00    -0.023 A 
HETATM   26  C   UNL     1      -4.028   5.499 -34.228  1.00  0.00     0.125 A 
HETATM   27  N   UNL     1      -3.012   6.153 -34.835  1.00  0.00    -0.273 NA
HETATM   28  C   UNL     1      -1.768   5.910 -34.366  1.00  0.00     0.116 A 
HETATM   29  C   UNL     1      -1.495   5.037 -33.328  1.00  0.00     0.020 A 
HETATM   30  C   UNL     1      -2.561   4.369 -32.733  1.00  0.00     0.012 A 
ENDBRANCH  24  25
ENDBRANCH   2  24
BRANCH   5  31
HETATM   31  C   UNL     1      -5.402  -0.951 -33.469  1.00  0.00     0.047 A 
HETATM   32  C   UNL     1      -6.717  -1.378 -33.718  1.00  0.00     0.031 A 
HETATM   33  C   UNL     1      -6.995  -2.578 -34.391  1.00  0.00     0.009 A 
HETATM   34  C   UNL     1      -5.961  -3.394 -34.841  1.00  0.00    -0.062 A 
HETATM   35  C   UNL     1      -6.243  -4.667 -35.580  1.00  0.00     0.048 C 
HETATM   36  C   UNL     1      -4.647  -2.986 -34.612  1.00  0.00     0.009 A 
HETATM   37  C   UNL     1      -4.375  -1.788 -33.933  1.00  0.00     0.031 A 
ENDBRANCH   5  31
TORSDOF 9
ENDMDL
MODEL 2
REMARK VINA RESULT:      -9.7      1.911      5.985
REMARK  9 active torsions:
REMARK  status: ('A' for Active; 'I' for Inactive)
REMARK    1  A    between atoms: C_2  and  O_3 
REMARK    2  A    between atoms: O_3  and  C_4 
REMARK    3  A    between atoms: C_4  and  C_5 
REMARK    4  A    between atoms: C_8  and  N_9 
REMARK       I    between atoms: N_9  and  C_10 
REMARK    5  A    between atoms: C_10  and  C_11 
REMARK    6  A    between atoms: C_11  and  C_12 
REMARK    7  A    between atoms: N_13  and  C_14 
REMARK    8  A    between atoms: C_14  and  C_15 
REMARK    9  A    between atoms: N_23  and  C_24 
ROOT
HETATM    1  C   UNL     1      -6.493   3.040 -33.670  1.00  0.00     0.191 C 
HETATM    2  N   UNL     1      -5.888   2.026 -32.830  1.00  0.00    -0.315 N 
HETATM    3  C   UNL     1      -4.825   2.573 -32.103  1.00  0.00     0.333 C 
HETATM    4  O   UNL     1      -4.406   2.065 -31.074  1.00  0.00    -0.246 OA
HETATM    5  N   UNL     1      -4.428   3.737 -32.733  1.00  0.00    -0.232 N 
HETATM    6  C   UNL     1      -5.311   4.005 -33.761  1.00  0.00     0.256 C 
HETATM    7  O   UNL     1      -5.269   4.881 -34.615  1.00  0.00    -0.270 OA
ENDROOT
BRANCH   1   8
HETATM    8  C   UNL     1      -7.672   3.709 -32.968  1.00  0.00     0.138 C 
BRANCH   8   9
HETATM    9  C   UNL     1      -9.006   3.352 -33.586  1.00  0.00     0.224 C 
HETATM   10  N   UNL     1      -9.736   2.446 -32.834  1.00  0.00    -0.327 N 
HETATM   11  H   UNL     1      -9.303   2.068 -32.002  1.00  0.00     0.169 HD
HETATM   12  O   UNL     1      -9.361   3.893 -34.627  1.00  0.00    -0.273 OA
BRANCH  10  13
HETATM   13  C   UNL     1     -11.078   2.055 -33.047  1.00  0.00     0.034 A 
HETATM   14  C   UNL     1     -11.460   0.815 -33.565  1.00  0.00     0.030 A 
HETATM   15  C   UNL     1     -12.812   0.515 -33.789  1.00  0.00     0.020 A 
HETATM   16  C   UNL     1     -13.804   1.455 -33.493  1.00  0.00     0.039 A 
HETATM   17  C   UNL     1     -13.427   2.696 -32.966  1.00  0.00     0.020 A 
HETATM   18  C   UNL     1     -12.075   2.991 -32.745  1.00  0.00     0.030 A 
BRANCH  16  19
HETATM   19  C   UNL     1     -15.253   1.190 -33.710  1.00  0.00     0.293 C 
HETATM   20  O   UNL     1     -15.692   0.649 -34.713  1.00  0.00    -0.259 OA
BRANCH  19  21
HETATM   21  O   UNL     1     -15.984   1.631 -32.657  1.00  0.00    -0.318 OA
BRANCH  21  22
HETATM   22  C   UNL     1     -17.184   2.350 -32.983  1.00  0.00     0.174 C 
HETATM   23  C   UNL     1     -17.829   2.904 -31.728  1.00  0.00     0.034 C 
ENDBRANCH  21  22
ENDBRANCH  19  21
ENDBRANCH  16  19
ENDBRANCH  10  13
ENDBRANCH   8   9
ENDBRANCH   1   8
BRANCH   2  24
HETATM   24  C   UNL     1      -6.603   0.839 -32.398  1.00  0.00     0.168 C 
BRANCH  24  25
HETATM   25  C   UNL     1      -6.198  -0.399 -33.147  1.00  0.00    -0.023 A 
HETATM   26  C   UNL     1      -4.946  -0.978 -32.968  1.00  0.00     0.125 A 
HETATM   27  N   UNL     1      -4.524  -2.094 -33.605  1.00  0.00    -0.273 NA
HETATM   28  C   UNL     1      -5.402  -2.679 -34.449  1.00  0.00     0.116 A 
HETATM   29  C   UNL     1      -6.675  -2.194 -34.692  1.00  0.00     0.020 A 
HETATM   30  C   UNL     1      -7.073  -1.036 -34.032  1.00  0.00     0.012 A 
ENDBRANCH  24  25
ENDBRANCH   2  24
BRANCH   5  31
HETATM   31  C   UNL     1      -3.277   4.516 -32.387  1.00  0.00     0.047 A 
HETATM   32  C   UNL     1      -3.253   5.329 -31.241  1.00  0.00     0.031 A 
HETATM   33  C   UNL     1      -2.128   6.091 -30.892  1.00  0.00     0.009 A 
HETATM   34  C   UNL     1      -0.981   6.063 -31.681  1.00  0.00    -0.062 A 
HETATM   35  C   UNL     1       0.236   6.855 -31.308  1.00  0.00     0.048 C 
HETATM   36  C   UNL     1      -0.978   5.256 -32.818  1.00  0.00     0.009 A 
HETATM   37  C   UNL     1      -2.110   4.501 -33.165  1.00  0.00     0.031 A 
ENDBRANCH   5  31
TORSDOF 9
ENDMDL
MODEL 3
REMARK VINA RESULT:      -9.7      1.548      5.811
REMARK  9 active torsions:
REMARK  status: ('A' for Active; 'I' for Inactive)
REMARK    1  A    between atoms: C_2  and  O_3 
REMARK    2  A    between atoms: O_3  and  C_4 
REMARK    3  A    between atoms: C_4  and  C_5 
REMARK    4  A    between atoms: C_8  and  N_9 
REMARK       I    between atoms: N_9  and  C_10 
REMARK    5  A    between atoms: C_10  and  C_11 
REMARK    6  A    between atoms: C_11  and  C_12 
REMARK    7  A    between atoms: N_13  and  C_14 
REMARK    8  A    between atoms: C_14  and  C_15 
REMARK    9  A    between atoms: N_23  and  C_24 
ROOT
HETATM    1  C   UNL     1      -6.240   1.874 -32.353  1.00  0.00     0.191 C 
HETATM    2  N   UNL     1      -5.121   0.965 -32.207  1.00  0.00    -0.315 N 
HETATM    3  C   UNL     1      -3.948   1.681 -31.946  1.00  0.00     0.333 C 
HETATM    4  O   UNL     1      -2.973   1.170 -31.416  1.00  0.00    -0.246 OA
HETATM    5  N   UNL     1      -4.146   2.990 -32.345  1.00  0.00    -0.232 N 
HETATM    6  C   UNL     1      -5.467   3.141 -32.721  1.00  0.00     0.256 C 
HETATM    7  O   UNL     1      -6.029   4.107 -33.220  1.00  0.00    -0.270 OA
ENDROOT
BRANCH   1   8
HETATM    8  C   UNL     1      -6.973   2.067 -31.028  1.00  0.00     0.138 C 
BRANCH   8   9
HETATM    9  C   UNL     1      -8.455   2.320 -31.204  1.00  0.00     0.224 C 
HETATM   10  N   UNL     1      -8.953   1.855 -32.411  1.00  0.00    -0.327 N 
HETATM   11  H   UNL     1      -8.295   1.459 -33.070  1.00  0.00     0.169 HD
HETATM   12  O   UNL     1      -9.096   2.845 -30.302  1.00  0.00    -0.273 OA
BRANCH  10  13
HETATM   13  C   UNL     1     -10.311   1.781 -32.795  1.00  0.00     0.034 A 
HETATM   14  C   UNL     1     -11.176   2.878 -32.832  1.00  0.00     0.030 A 
HETATM   15  C   UNL     1     -12.525   2.717 -33.182  1.00  0.00     0.020 A 
HETATM   16  C   UNL     1     -13.028   1.453 -33.504  1.00  0.00     0.039 A 
HETATM   17  C   UNL     1     -12.163   0.352 -33.475  1.00  0.00     0.020 A 
HETATM   18  C   UNL     1     -10.817   0.517 -33.124  1.00  0.00     0.030 A 
BRANCH  16  19
HETATM   19  C   UNL     1     -14.450   1.226 -33.882  1.00  0.00     0.293 C 
HETATM   20  O   UNL     1     -14.814   1.024 -35.030  1.00  0.00    -0.259 OA
BRANCH  19  21
HETATM   21  O   UNL     1     -15.251   1.281 -32.789  1.00  0.00    -0.318 OA
BRANCH  21  22
HETATM   22  C   UNL     1     -15.674   2.593 -32.387  1.00  0.00     0.174 C 
HETATM   23  C   UNL     1     -17.176   2.626 -32.178  1.00  0.00     0.034 C 
ENDBRANCH  21  22
ENDBRANCH  19  21
ENDBRANCH  16  19
ENDBRANCH  10  13
ENDBRANCH   8   9
ENDBRANCH   1   8
BRANCH   2  24
HETATM   24  C   UNL     1      -5.288  -0.428 -31.831  1.00  0.00     0.168 C 
BRANCH  24  25
HETATM   25  C   UNL     1      -5.384  -1.349 -33.014  1.00  0.00    -0.023 A 
HETATM   26  C   UNL     1      -4.288  -2.089 -33.448  1.00  0.00     0.125 A 
HETATM   27  N   UNL     1      -4.312  -2.941 -34.499  1.00  0.00    -0.273 NA
HETATM   28  C   UNL     1      -5.493  -3.081 -35.139  1.00  0.00     0.116 A 
HETATM   29  C   UNL     1      -6.645  -2.404 -34.784  1.00  0.00     0.020 A 
HETATM   30  C   UNL     1      -6.585  -1.524 -33.708  1.00  0.00     0.012 A 
ENDBRANCH  24  25
ENDBRANCH   2  24
BRANCH   5  31
HETATM   31  C   UNL     1      -3.138   4.006 -32.382  1.00  0.00     0.047 A 
HETATM   32  C   UNL     1      -2.448   4.321 -33.565  1.00  0.00     0.031 A 
HETATM   33  C   UNL     1      -1.464   5.319 -33.610  1.00  0.00     0.009 A 
HETATM   34  C   UNL     1      -1.135   6.042 -32.467  1.00  0.00    -0.062 A 
HETATM   35  C   UNL     1      -0.101   7.127 -32.505  1.00  0.00     0.048 C 
HETATM   36  C   UNL     1      -1.812   5.754 -31.282  1.00  0.00     0.009 A 
HETATM   37  C   UNL     1      -2.792   4.749 -31.242  1.00  0.00     0.031 A 
ENDBRANCH   5  31
TORSDOF 9
ENDMDL
MODEL 4
REMARK VINA RESULT:      -9.6      3.081      8.790
REMARK  9 active torsions:
REMARK  status: ('A' for Active; 'I' for Inactive)
REMARK    1  A    between atoms: C_2  and  O_3 
REMARK    2  A    between atoms: O_3  and  C_4 
REMARK    3  A    between atoms: C_4  and  C_5 
REMARK    4  A    between atoms: C_8  and  N_9 
REMARK       I    between atoms: N_9  and  C_10 
REMARK    5  A    between atoms: C_10  and  C_11 
REMARK    6  A    between atoms: C_11  and  C_12 
REMARK    7  A    between atoms: N_13  and  C_14 
REMARK    8  A    between atoms: C_14  and  C_15 
REMARK    9  A    between atoms: N_23  and  C_24 
ROOT
HETATM    1  C   UNL     1      -7.227   1.220 -32.278  1.00  0.00     0.191 C 
HETATM    2  N   UNL     1      -7.122   0.451 -33.502  1.00  0.00    -0.315 N 
HETATM    3  C   UNL     1      -8.343   0.455 -34.181  1.00  0.00     0.333 C 
HETATM    4  O   UNL     1      -8.428   0.224 -35.378  1.00  0.00    -0.246 OA
HETATM    5  N   UNL     1      -9.335   0.795 -33.280  1.00  0.00    -0.232 N 
HETATM    6  C   UNL     1      -8.741   1.142 -32.082  1.00  0.00     0.256 C 
HETATM    7  O   UNL     1      -9.259   1.414 -31.006  1.00  0.00    -0.270 OA
ENDROOT
BRANCH   1   8
HETATM    8  C   UNL     1      -6.795   2.667 -32.494  1.00  0.00     0.138 C 
BRANCH   8   9
HETATM    9  C   UNL     1      -5.438   2.974 -31.898  1.00  0.00     0.224 C 
HETATM   10  N   UNL     1      -4.765   3.991 -32.554  1.00  0.00    -0.327 N 
HETATM   11  H   UNL     1      -5.195   4.381 -33.382  1.00  0.00     0.169 HD
HETATM   12  O   UNL     1      -5.060   2.373 -30.898  1.00  0.00    -0.273 OA
BRANCH  10  13
HETATM   13  C   UNL     1      -3.570   4.623 -32.139  1.00  0.00     0.034 A 
HETATM   14  C   UNL     1      -2.304   4.318 -32.647  1.00  0.00     0.030 A 
HETATM   15  C   UNL     1      -1.159   4.959 -32.153  1.00  0.00     0.020 A 
HETATM   16  C   UNL     1      -1.264   5.919 -31.142  1.00  0.00     0.039 A 
HETATM   17  C   UNL     1      -2.531   6.232 -30.635  1.00  0.00     0.020 A 
HETATM   18  C   UNL     1      -3.673   5.590 -31.131  1.00  0.00     0.030 A 
BRANCH  16  19
HETATM   19  C   UNL     1      -0.082   6.629 -30.581  1.00  0.00     0.293 C 
HETATM   20  O   UNL     1       0.852   7.018 -31.264  1.00  0.00    -0.259 OA
BRANCH  19  21
HETATM   21  O   UNL     1      -0.199   6.767 -29.237  1.00  0.00    -0.318 OA
BRANCH  21  22
HETATM   22  C   UNL     1       0.150   8.055 -28.706  1.00  0.00     0.174 C 
HETATM   23  C   UNL     1       1.241   7.921 -27.661  1.00  0.00     0.034 C 
ENDBRANCH  21  22
ENDBRANCH  19  21
ENDBRANCH  16  19
ENDBRANCH  10  13
ENDBRANCH   8   9
ENDBRANCH   1   8
BRANCH   2  24
HETATM   24  C   UNL     1      -5.854   0.215 -34.170  1.00  0.00     0.168 C 
BRANCH  24  25
HETATM   25  C   UNL     1      -5.433  -1.226 -34.144  1.00  0.00    -0.023 A 
HETATM   26  C   UNL     1      -4.390  -1.662 -33.332  1.00  0.00     0.125 A 
HETATM   27  N   UNL     1      -3.968  -2.945 -33.257  1.00  0.00    -0.273 NA
HETATM   28  C   UNL     1      -4.632  -3.847 -34.012  1.00  0.00     0.116 A 
HETATM   29  C   UNL     1      -5.689  -3.524 -34.843  1.00  0.00     0.020 A 
HETATM   30  C   UNL     1      -6.090  -2.194 -34.910  1.00  0.00     0.012 A 
ENDBRANCH  24  25
ENDBRANCH   2  24
BRANCH   5  31
HETATM   31  C   UNL     1     -10.742   0.767 -33.546  1.00  0.00     0.047 A 
HETATM   32  C   UNL     1     -11.398   1.843 -34.168  1.00  0.00     0.031 A 
HETATM   33  C   UNL     1     -12.775   1.821 -34.437  1.00  0.00     0.009 A 
HETATM   34  C   UNL     1     -13.546   0.714 -34.092  1.00  0.00    -0.062 A 
HETATM   35  C   UNL     1     -15.014   0.667 -34.392  1.00  0.00     0.048 C 
HETATM   36  C   UNL     1     -12.916  -0.369 -33.481  1.00  0.00     0.009 A 
HETATM   37  C   UNL     1     -11.539  -0.339 -33.209  1.00  0.00     0.031 A 
ENDBRANCH   5  31
TORSDOF 9
ENDMDL
MODEL 5
REMARK VINA RESULT:      -9.6      3.761      9.043
REMARK  9 active torsions:
REMARK  status: ('A' for Active; 'I' for Inactive)
REMARK    1  A    between atoms: C_2  and  O_3 
REMARK    2  A    between atoms: O_3  and  C_4 
REMARK    3  A    between atoms: C_4  and  C_5 
REMARK    4  A    between atoms: C_8  and  N_9 
REMARK       I    between atoms: N_9  and  C_10 
REMARK    5  A    between atoms: C_10  and  C_11 
REMARK    6  A    between atoms: C_11  and  C_12 
REMARK    7  A    between atoms: N_13  and  C_14 
REMARK    8  A    between atoms: C_14  and  C_15 
REMARK    9  A    between atoms: N_23  and  C_24 
ROOT
HETATM    1  C   UNL     1      -5.211   1.199 -32.143  1.00  0.00     0.191 C 
HETATM    2  N   UNL     1      -5.226   0.113 -33.103  1.00  0.00    -0.315 N 
HETATM    3  C   UNL     1      -6.448   0.086 -33.782  1.00  0.00     0.333 C 
HETATM    4  O   UNL     1      -6.581  -0.456 -34.869  1.00  0.00    -0.246 OA
HETATM    5  N   UNL     1      -7.372   0.788 -33.031  1.00  0.00    -0.232 N 
HETATM    6  C   UNL     1      -6.718   1.375 -31.965  1.00  0.00     0.256 C 
HETATM    7  O   UNL     1      -7.179   2.000 -31.018  1.00  0.00    -0.270 OA
ENDROOT
BRANCH   1   8
HETATM    8  C   UNL     1      -4.597   2.460 -32.744  1.00  0.00     0.138 C 
BRANCH   8   9
HETATM    9  C   UNL     1      -3.495   3.047 -31.888  1.00  0.00     0.224 C 
HETATM   10  N   UNL     1      -3.316   4.407 -32.077  1.00  0.00    -0.327 N 
HETATM   11  H   UNL     1      -3.874   4.860 -32.789  1.00  0.00     0.169 HD
HETATM   12  O   UNL     1      -2.896   2.334 -31.091  1.00  0.00    -0.273 OA
BRANCH  10  13
HETATM   13  C   UNL     1      -2.500   5.270 -31.310  1.00  0.00     0.034 A 
HETATM   14  C   UNL     1      -1.105   5.191 -31.260  1.00  0.00     0.030 A 
HETATM   15  C   UNL     1      -0.366   6.055 -30.440  1.00  0.00     0.020 A 
HETATM   16  C   UNL     1      -1.013   7.016 -29.657  1.00  0.00     0.039 A 
HETATM   17  C   UNL     1      -2.409   7.104 -29.710  1.00  0.00     0.020 A 
HETATM   18  C   UNL     1      -3.144   6.238 -30.530  1.00  0.00     0.030 A 
BRANCH  16  19
HETATM   19  C   UNL     1      -0.277   7.958 -28.770  1.00  0.00     0.293 C 
HETATM   20  O   UNL     1      -0.690   9.072 -28.486  1.00  0.00    -0.259 OA
BRANCH  19  21
HETATM   21  O   UNL     1       0.886   7.406 -28.344  1.00  0.00    -0.318 OA
BRANCH  21  22
HETATM   22  C   UNL     1       0.948   7.072 -26.949  1.00  0.00     0.174 C 
HETATM   23  C   UNL     1       1.914   7.991 -26.225  1.00  0.00     0.034 C 
ENDBRANCH  21  22
ENDBRANCH  19  21
ENDBRANCH  16  19
ENDBRANCH  10  13
ENDBRANCH   8   9
ENDBRANCH   1   8
BRANCH   2  24
HETATM   24  C   UNL     1      -4.011  -0.461 -33.654  1.00  0.00     0.168 C 
BRANCH  24  25
HETATM   25  C   UNL     1      -3.850  -1.920 -33.332  1.00  0.00    -0.023 A 
HETATM   26  C   UNL     1      -4.237  -2.908 -34.233  1.00  0.00     0.125 A 
HETATM   27  N   UNL     1      -4.112  -4.236 -34.007  1.00  0.00    -0.273 NA
HETATM   28  C   UNL     1      -3.552  -4.601 -32.833  1.00  0.00     0.116 A 
HETATM   29  C   UNL     1      -3.123  -3.703 -31.873  1.00  0.00     0.020 A 
HETATM   30  C   UNL     1      -3.278  -2.344 -32.129  1.00  0.00     0.012 A 
ENDBRANCH  24  25
ENDBRANCH   2  24
BRANCH   5  31
HETATM   31  C   UNL     1      -8.775   0.870 -33.308  1.00  0.00     0.047 A 
HETATM   32  C   UNL     1      -9.684  -0.072 -32.797  1.00  0.00     0.031 A 
HETATM   33  C   UNL     1     -11.060   0.004 -33.060  1.00  0.00     0.009 A 
HETATM   34  C   UNL     1     -11.576   1.032 -33.844  1.00  0.00    -0.062 A 
HETATM   35  C   UNL     1     -13.047   1.138 -34.115  1.00  0.00     0.048 C 
HETATM   36  C   UNL     1     -10.694   1.983 -34.355  1.00  0.00     0.009 A 
HETATM   37  C   UNL     1      -9.317   1.898 -34.094  1.00  0.00     0.031 A 
ENDBRANCH   5  31
TORSDOF 9
ENDMDL
MODEL 6
REMARK VINA RESULT:      -9.5      2.233      3.135
REMARK  9 active torsions:
REMARK  status: ('A' for Active; 'I' for Inactive)
REMARK    1  A    between atoms: C_2  and  O_3 
REMARK    2  A    between atoms: O_3  and  C_4 
REMARK    3  A    between atoms: C_4  and  C_5 
REMARK    4  A    between atoms: C_8  and  N_9 
REMARK       I    between atoms: N_9  and  C_10 
REMARK    5  A    between atoms: C_10  and  C_11 
REMARK    6  A    between atoms: C_11  and  C_12 
REMARK    7  A    between atoms: N_13  and  C_14 
REMARK    8  A    between atoms: C_14  and  C_15 
REMARK    9  A    between atoms: N_23  and  C_24 
ROOT
HETATM    1  C   UNL     1      -5.592   4.462 -31.785  1.00  0.00     0.191 C 
HETATM    2  N   UNL     1      -4.189   4.635 -32.106  1.00  0.00    -0.315 N 
HETATM    3  C   UNL     1      -3.642   3.426 -32.545  1.00  0.00     0.333 C 
HETATM    4  O   UNL     1      -2.626   3.374 -33.222  1.00  0.00    -0.246 OA
HETATM    5  N   UNL     1      -4.465   2.401 -32.116  1.00  0.00    -0.232 N 
HETATM    6  C   UNL     1      -5.591   2.953 -31.539  1.00  0.00     0.256 C 
HETATM    7  O   UNL     1      -6.517   2.403 -30.956  1.00  0.00    -0.270 OA
ENDROOT
BRANCH   1   8
HETATM    8  C   UNL     1      -6.480   4.804 -32.978  1.00  0.00     0.138 C 
BRANCH   8   9
HETATM    9  C   UNL     1      -7.892   4.279 -32.834  1.00  0.00     0.224 C 
HETATM   10  N   UNL     1      -8.180   3.231 -33.693  1.00  0.00    -0.327 N 
HETATM   11  H   UNL     1      -7.469   2.961 -34.360  1.00  0.00     0.169 HD
HETATM   12  O   UNL     1      -8.635   4.752 -31.982  1.00  0.00    -0.273 OA
BRANCH  10  13
HETATM   13  C   UNL     1      -9.336   2.419 -33.681  1.00  0.00     0.034 A 
HETATM   14  C   UNL     1      -9.427   1.194 -33.014  1.00  0.00     0.030 A 
HETATM   15  C   UNL     1     -10.595   0.422 -33.084  1.00  0.00     0.020 A 
HETATM   16  C   UNL     1     -11.696   0.868 -33.823  1.00  0.00     0.039 A 
HETATM   17  C   UNL     1     -11.612   2.098 -34.487  1.00  0.00     0.020 A 
HETATM   18  C   UNL     1     -10.443   2.865 -34.415  1.00  0.00     0.030 A 
BRANCH  16  19
HETATM   19  C   UNL     1     -12.960   0.089 -33.932  1.00  0.00     0.293 C 
HETATM   20  O   UNL     1     -13.124  -0.998 -33.403  1.00  0.00    -0.259 OA
BRANCH  19  21
HETATM   21  O   UNL     1     -13.868   0.754 -34.688  1.00  0.00    -0.318 OA
BRANCH  21  22
HETATM   22  C   UNL     1     -15.188   0.864 -34.133  1.00  0.00     0.174 C 
HETATM   23  C   UNL     1     -15.175   1.753 -32.904  1.00  0.00     0.034 C 
ENDBRANCH  21  22
ENDBRANCH  19  21
ENDBRANCH  16  19
ENDBRANCH  10  13
ENDBRANCH   8   9
ENDBRANCH   1   8
BRANCH   2  24
HETATM   24  C   UNL     1      -3.620   5.925 -32.455  1.00  0.00     0.168 C 
BRANCH  24  25
HETATM   25  C   UNL     1      -2.480   6.326 -31.562  1.00  0.00    -0.023 A 
HETATM   26  C   UNL     1      -2.689   6.676 -30.232  1.00  0.00     0.125 A 
HETATM   27  N   UNL     1      -1.707   7.038 -29.375  1.00  0.00    -0.273 NA
HETATM   28  C   UNL     1      -0.446   7.032 -29.862  1.00  0.00     0.116 A 
HETATM   29  C   UNL     1      -0.126   6.692 -31.163  1.00  0.00     0.020 A 
HETATM   30  C   UNL     1      -1.160   6.338 -32.023  1.00  0.00     0.012 A 
ENDBRANCH  24  25
ENDBRANCH   2  24
BRANCH   5  31
HETATM   31  C   UNL     1      -4.178   1.003 -32.235  1.00  0.00     0.047 A 
HETATM   32  C   UNL     1      -3.163   0.390 -31.480  1.00  0.00     0.031 A 
HETATM   33  C   UNL     1      -2.880  -0.980 -31.586  1.00  0.00     0.009 A 
HETATM   34  C   UNL     1      -3.608  -1.788 -32.456  1.00  0.00    -0.062 A 
HETATM   35  C   UNL     1      -3.330  -3.257 -32.564  1.00  0.00     0.048 C 
HETATM   36  C   UNL     1      -4.625  -1.204 -33.209  1.00  0.00     0.009 A 
HETATM   37  C   UNL     1      -4.900   0.169 -33.103  1.00  0.00     0.031 A 
ENDBRANCH   5  31
TORSDOF 9
ENDMDL
MODEL 7
REMARK VINA RESULT:      -9.2      3.378      8.304
REMARK  9 active torsions:
REMARK  status: ('A' for Active; 'I' for Inactive)
REMARK    1  A    between atoms: C_2  and  O_3 
REMARK    2  A    between atoms: O_3  and  C_4 
REMARK    3  A    between atoms: C_4  and  C_5 
REMARK    4  A    between atoms: C_8  and  N_9 
REMARK       I    between atoms: N_9  and  C_10 
REMARK    5  A    between atoms: C_10  and  C_11 
REMARK    6  A    between atoms: C_11  and  C_12 
REMARK    7  A    between atoms: N_13  and  C_14 
REMARK    8  A    between atoms: C_14  and  C_15 
REMARK    9  A    between atoms: N_23  and  C_24 
ROOT
HETATM    1  C   UNL     1      -7.471   2.781 -32.691  1.00  0.00     0.191 C 
HETATM    2  N   UNL     1      -8.622   1.937 -32.944  1.00  0.00    -0.315 N 
HETATM    3  C   UNL     1      -8.233   0.595 -32.996  1.00  0.00     0.333 C 
HETATM    4  O   UNL     1      -9.021  -0.322 -32.814  1.00  0.00    -0.246 OA
HETATM    5  N   UNL     1      -6.872   0.550 -33.230  1.00  0.00    -0.232 N 
HETATM    6  C   UNL     1      -6.375   1.839 -33.186  1.00  0.00     0.256 C 
HETATM    7  O   UNL     1      -5.247   2.247 -33.430  1.00  0.00    -0.270 OA
ENDROOT
BRANCH   1   8
HETATM    8  C   UNL     1      -7.302   3.053 -31.199  1.00  0.00     0.138 C 
BRANCH   8   9
HETATM    9  C   UNL     1      -5.868   3.340 -30.809  1.00  0.00     0.224 C 
HETATM   10  N   UNL     1      -5.366   4.501 -31.374  1.00  0.00    -0.327 N 
HETATM   11  H   UNL     1      -5.958   5.002 -32.023  1.00  0.00     0.169 HD
HETATM   12  O   UNL     1      -5.289   2.598 -30.024  1.00  0.00    -0.273 OA
BRANCH  10  13
HETATM   13  C   UNL     1      -4.136   5.128 -31.069  1.00  0.00     0.034 A 
HETATM   14  C   UNL     1      -4.008   6.230 -30.220  1.00  0.00     0.030 A 
HETATM   15  C   UNL     1      -2.758   6.827 -30.000  1.00  0.00     0.020 A 
HETATM   16  C   UNL     1      -1.613   6.325 -30.628  1.00  0.00     0.039 A 
HETATM   17  C   UNL     1      -1.736   5.217 -31.474  1.00  0.00     0.020 A 
HETATM   18  C   UNL     1      -2.987   4.624 -31.691  1.00  0.00     0.030 A 
BRANCH  16  19
HETATM   19  C   UNL     1      -0.262   6.919 -30.431  1.00  0.00     0.293 C 
HETATM   20  O   UNL     1       0.681   6.699 -31.173  1.00  0.00    -0.259 OA
BRANCH  19  21
HETATM   21  O   UNL     1      -0.244   7.712 -29.331  1.00  0.00    -0.318 OA
BRANCH  21  22
HETATM   22  C   UNL     1       0.662   7.320 -28.289  1.00  0.00     0.174 C 
HETATM   23  C   UNL     1       1.471   8.510 -27.812  1.00  0.00     0.034 C 
ENDBRANCH  21  22
ENDBRANCH  19  21
ENDBRANCH  16  19
ENDBRANCH  10  13
ENDBRANCH   8   9
ENDBRANCH   1   8
BRANCH   2  24
HETATM   24  C   UNL     1      -9.978   2.349 -32.630  1.00  0.00     0.168 C 
BRANCH  24  25
HETATM   25  C   UNL     1     -10.801   2.651 -33.850  1.00  0.00    -0.023 A 
HETATM   26  C   UNL     1     -11.785   1.774 -34.297  1.00  0.00     0.125 A 
HETATM   27  N   UNL     1     -12.563   1.991 -35.381  1.00  0.00    -0.273 NA
HETATM   28  C   UNL     1     -12.368   3.151 -36.046  1.00  0.00     0.116 A 
HETATM   29  C   UNL     1     -11.426   4.096 -35.682  1.00  0.00     0.020 A 
HETATM   30  C   UNL     1     -10.631   3.837 -34.570  1.00  0.00     0.012 A 
ENDBRANCH  24  25
ENDBRANCH   2  24
BRANCH   5  31
HETATM   31  C   UNL     1      -6.115  -0.636 -33.496  1.00  0.00     0.047 A 
HETATM   32  C   UNL     1      -6.419  -1.479 -34.579  1.00  0.00     0.031 A 
HETATM   33  C   UNL     1      -5.679  -2.640 -34.849  1.00  0.00     0.009 A 
HETATM   34  C   UNL     1      -4.602  -2.997 -34.042  1.00  0.00    -0.062 A 
HETATM   35  C   UNL     1      -3.789  -4.223 -34.332  1.00  0.00     0.048 C 
HETATM   36  C   UNL     1      -4.276  -2.172 -32.967  1.00  0.00     0.009 A 
HETATM   37  C   UNL     1      -5.025  -1.015 -32.698  1.00  0.00     0.031 A 
ENDBRANCH   5  31
TORSDOF 9
ENDMDL
MODEL 8
REMARK VINA RESULT:      -9.2      4.028      6.868
REMARK  9 active torsions:
REMARK  status: ('A' for Active; 'I' for Inactive)
REMARK    1  A    between atoms: C_2  and  O_3 
REMARK    2  A    between atoms: O_3  and  C_4 
REMARK    3  A    between atoms: C_4  and  C_5 
REMARK    4  A    between atoms: C_8  and  N_9 
REMARK       I    between atoms: N_9  and  C_10 
REMARK    5  A    between atoms: C_10  and  C_11 
REMARK    6  A    between atoms: C_11  and  C_12 
REMARK    7  A    between atoms: N_13  and  C_14 
REMARK    8  A    between atoms: C_14  and  C_15 
REMARK    9  A    between atoms: N_23  and  C_24 
ROOT
HETATM    1  C   UNL     1      -5.404   2.095 -31.031  1.00  0.00     0.191 C 
HETATM    2  N   UNL     1      -5.352   2.656 -32.366  1.00  0.00    -0.315 N 
HETATM    3  C   UNL     1      -5.743   1.698 -33.307  1.00  0.00     0.333 C 
HETATM    4  O   UNL     1      -6.149   2.001 -34.420  1.00  0.00    -0.246 OA
HETATM    5  N   UNL     1      -5.622   0.450 -32.726  1.00  0.00    -0.232 N 
HETATM    6  C   UNL     1      -5.296   0.614 -31.393  1.00  0.00     0.256 C 
HETATM    7  O   UNL     1      -5.010  -0.228 -30.552  1.00  0.00    -0.270 OA
ENDROOT
BRANCH   1   8
HETATM    8  C   UNL     1      -6.746   2.381 -30.363  1.00  0.00     0.138 C 
BRANCH   8   9
HETATM    9  C   UNL     1      -6.788   3.728 -29.674  1.00  0.00     0.224 C 
HETATM   10  N   UNL     1      -5.556   4.137 -29.189  1.00  0.00    -0.327 N 
HETATM   11  H   UNL     1      -4.779   3.495 -29.279  1.00  0.00     0.169 HD
HETATM   12  O   UNL     1      -7.836   4.360 -29.632  1.00  0.00    -0.273 OA
BRANCH  10  13
HETATM   13  C   UNL     1      -5.232   5.408 -28.661  1.00  0.00     0.034 A 
HETATM   14  C   UNL     1      -5.321   5.740 -27.306  1.00  0.00     0.030 A 
HETATM   15  C   UNL     1      -5.024   7.037 -26.864  1.00  0.00     0.020 A 
HETATM   16  C   UNL     1      -4.628   8.023 -27.773  1.00  0.00     0.039 A 
HETATM   17  C   UNL     1      -4.531   7.693 -29.130  1.00  0.00     0.020 A 
HETATM   18  C   UNL     1      -4.829   6.396 -29.568  1.00  0.00     0.030 A 
BRANCH  16  19
HETATM   19  C   UNL     1      -4.301   9.415 -27.358  1.00  0.00     0.293 C 
HETATM   20  O   UNL     1      -5.077  10.350 -27.479  1.00  0.00    -0.259 OA
BRANCH  19  21
HETATM   21  O   UNL     1      -3.047   9.479 -26.845  1.00  0.00    -0.318 OA
BRANCH  21  22
HETATM   22  C   UNL     1      -2.083  10.193 -27.634  1.00  0.00     0.174 C 
HETATM   23  C   UNL     1      -1.167   9.225 -28.357  1.00  0.00     0.034 C 
ENDBRANCH  21  22
ENDBRANCH  19  21
ENDBRANCH  16  19
ENDBRANCH  10  13
ENDBRANCH   8   9
ENDBRANCH   1   8
BRANCH   2  24
HETATM   24  C   UNL     1      -5.436   4.083 -32.620  1.00  0.00     0.168 C 
BRANCH  24  25
HETATM   25  C   UNL     1      -4.159   4.662 -33.160  1.00  0.00    -0.023 A 
HETATM   26  C   UNL     1      -4.160   5.524 -34.253  1.00  0.00     0.125 A 
HETATM   27  N   UNL     1      -3.047   6.084 -34.782  1.00  0.00    -0.273 NA
HETATM   28  C   UNL     1      -1.875   5.789 -34.179  1.00  0.00     0.116 A 
HETATM   29  C   UNL     1      -1.763   4.955 -33.082  1.00  0.00     0.020 A 
HETATM   30  C   UNL     1      -2.923   4.383 -32.570  1.00  0.00     0.012 A 
ENDBRANCH  24  25
ENDBRANCH   2  24
BRANCH   5  31
HETATM   31  C   UNL     1      -5.785  -0.800 -33.405  1.00  0.00     0.047 A 
HETATM   32  C   UNL     1      -4.682  -1.587 -33.781  1.00  0.00     0.031 A 
HETATM   33  C   UNL     1      -4.835  -2.815 -34.442  1.00  0.00     0.009 A 
HETATM   34  C   UNL     1      -6.103  -3.301 -34.749  1.00  0.00    -0.062 A 
HETATM   35  C   UNL     1      -6.281  -4.622 -35.435  1.00  0.00     0.048 C 
HETATM   36  C   UNL     1      -7.212  -2.543 -34.378  1.00  0.00     0.009 A 
HETATM   37  C   UNL     1      -7.053  -1.312 -33.722  1.00  0.00     0.031 A 
ENDBRANCH   5  31
TORSDOF 9
ENDMDL
MODEL 9
REMARK VINA RESULT:      -9.1      2.976      7.904
REMARK  9 active torsions:
REMARK  status: ('A' for Active; 'I' for Inactive)
REMARK    1  A    between atoms: C_2  and  O_3 
REMARK    2  A    between atoms: O_3  and  C_4 
REMARK    3  A    between atoms: C_4  and  C_5 
REMARK    4  A    between atoms: C_8  and  N_9 
REMARK       I    between atoms: N_9  and  C_10 
REMARK    5  A    between atoms: C_10  and  C_11 
REMARK    6  A    between atoms: C_11  and  C_12 
REMARK    7  A    between atoms: N_13  and  C_14 
REMARK    8  A    between atoms: C_14  and  C_15 
REMARK    9  A    between atoms: N_23  and  C_24 
ROOT
HETATM    1  C   UNL     1      -8.492   2.516 -33.593  1.00  0.00     0.191 C 
HETATM    2  N   UNL     1      -9.517   1.499 -33.469  1.00  0.00    -0.315 N 
HETATM    3  C   UNL     1      -8.931   0.245 -33.276  1.00  0.00     0.333 C 
HETATM    4  O   UNL     1      -9.536  -0.691 -32.773  1.00  0.00    -0.246 OA
HETATM    5  N   UNL     1      -7.618   0.314 -33.702  1.00  0.00    -0.232 N 
HETATM    6  C   UNL     1      -7.328   1.625 -34.026  1.00  0.00     0.256 C 
HETATM    7  O   UNL     1      -6.316   2.098 -34.527  1.00  0.00    -0.270 OA
ENDROOT
BRANCH   1   8
HETATM    8  C   UNL     1      -8.190   3.165 -32.245  1.00  0.00     0.138 C 
BRANCH   8   9
HETATM    9  C   UNL     1      -6.750   3.614 -32.115  1.00  0.00     0.224 C 
HETATM   10  N   UNL     1      -6.445   4.717 -32.895  1.00  0.00    -0.327 N 
HETATM   11  H   UNL     1      -7.167   5.073 -33.508  1.00  0.00     0.169 HD
HETATM   12  O   UNL     1      -5.999   3.039 -31.336  1.00  0.00    -0.273 OA
BRANCH  10  13
HETATM   13  C   UNL     1      -5.252   5.475 -32.863  1.00  0.00     0.034 A 
HETATM   14  C   UNL     1      -4.137   5.216 -33.663  1.00  0.00     0.030 A 
HETATM   15  C   UNL     1      -2.971   5.986 -33.542  1.00  0.00     0.020 A 
HETATM   16  C   UNL     1      -2.907   7.033 -32.618  1.00  0.00     0.039 A 
HETATM   17  C   UNL     1      -4.024   7.302 -31.819  1.00  0.00     0.020 A 
HETATM   18  C   UNL     1      -5.187   6.529 -31.943  1.00  0.00     0.030 A 
BRANCH  16  19
HETATM   19  C   UNL     1      -1.695   7.883 -32.448  1.00  0.00     0.293 C 
HETATM   20  O   UNL     1      -1.743   9.088 -32.261  1.00  0.00    -0.259 OA
BRANCH  19  21
HETATM   21  O   UNL     1      -0.569   7.133 -32.536  1.00  0.00    -0.318 OA
BRANCH  21  22
HETATM   22  C   UNL     1       0.092   6.846 -31.294  1.00  0.00     0.174 C 
HETATM   23  C   UNL     1       0.411   5.367 -31.190  1.00  0.00     0.034 C 
ENDBRANCH  21  22
ENDBRANCH  19  21
ENDBRANCH  16  19
ENDBRANCH  10  13
ENDBRANCH   8   9
ENDBRANCH   1   8
BRANCH   2  24
HETATM   24  C   UNL     1     -10.874   1.803 -33.049  1.00  0.00     0.168 C 
BRANCH  24  25
HETATM   25  C   UNL     1     -11.550   2.816 -33.929  1.00  0.00    -0.023 A 
HETATM   26  C   UNL     1     -11.868   4.086 -33.460  1.00  0.00     0.125 A 
HETATM   27  N   UNL     1     -12.469   5.045 -34.203  1.00  0.00    -0.273 NA
HETATM   28  C   UNL     1     -12.748   4.730 -35.487  1.00  0.00     0.116 A 
HETATM   29  C   UNL     1     -12.465   3.503 -36.057  1.00  0.00     0.020 A 
HETATM   30  C   UNL     1     -11.860   2.534 -35.263  1.00  0.00     0.012 A 
ENDBRANCH  24  25
ENDBRANCH   2  24
BRANCH   5  31
HETATM   31  C   UNL     1      -6.721  -0.798 -33.807  1.00  0.00     0.047 A 
HETATM   32  C   UNL     1      -6.988  -1.885 -34.658  1.00  0.00     0.031 A 
HETATM   33  C   UNL     1      -6.112  -2.974 -34.771  1.00  0.00     0.009 A 
HETATM   34  C   UNL     1      -4.931  -3.013 -34.034  1.00  0.00    -0.062 A 
HETATM   35  C   UNL     1      -3.975  -4.162 -34.160  1.00  0.00     0.048 C 
HETATM   36  C   UNL     1      -4.641  -1.943 -33.189  1.00  0.00     0.009 A 
HETATM   37  C   UNL     1      -5.524  -0.858 -33.076  1.00  0.00     0.031 A 
ENDBRANCH   5  31
TORSDOF 9
ENDMDL
MODEL 10
REMARK VINA RESULT:      -9.1      2.024      2.760
REMARK  9 active torsions:
REMARK  status: ('A' for Active; 'I' for Inactive)
REMARK    1  A    between atoms: C_2  and  O_3 
REMARK    2  A    between atoms: O_3  and  C_4 
REMARK    3  A    between atoms: C_4  and  C_5 
REMARK    4  A    between atoms: C_8  and  N_9 
REMARK       I    between atoms: N_9  and  C_10 
REMARK    5  A    between atoms: C_10  and  C_11 
REMARK    6  A    between atoms: C_11  and  C_12 
REMARK    7  A    between atoms: N_13  and  C_14 
REMARK    8  A    between atoms: C_14  and  C_15 
REMARK    9  A    between atoms: N_23  and  C_24 
ROOT
HETATM    1  C   UNL     1      -5.367   4.053 -30.227  1.00  0.00     0.191 C 
HETATM    2  N   UNL     1      -4.372   4.357 -31.237  1.00  0.00    -0.315 N 
HETATM    3  C   UNL     1      -4.483   3.465 -32.307  1.00  0.00     0.333 C 
HETATM    4  O   UNL     1      -4.048   3.720 -33.421  1.00  0.00    -0.246 OA
HETATM    5  N   UNL     1      -5.174   2.351 -31.868  1.00  0.00    -0.232 N 
HETATM    6  C   UNL     1      -5.621   2.588 -30.583  1.00  0.00     0.256 C 
HETATM    7  O   UNL     1      -6.189   1.833 -29.805  1.00  0.00    -0.270 OA
ENDROOT
BRANCH   1   8
HETATM    8  C   UNL     1      -6.634   4.877 -30.432  1.00  0.00     0.138 C 
BRANCH   8   9
HETATM    9  C   UNL     1      -7.475   4.389 -31.592  1.00  0.00     0.224 C 
HETATM   10  N   UNL     1      -8.487   3.522 -31.211  1.00  0.00    -0.327 N 
HETATM   11  H   UNL     1      -8.533   3.252 -30.237  1.00  0.00     0.169 HD
HETATM   12  O   UNL     1      -7.255   4.803 -32.723  1.00  0.00    -0.273 OA
BRANCH  10  13
HETATM   13  C   UNL     1      -9.538   3.038 -32.023  1.00  0.00     0.034 A 
HETATM   14  C   UNL     1     -10.651   3.796 -32.399  1.00  0.00     0.030 A 
HETATM   15  C   UNL     1     -11.677   3.232 -33.171  1.00  0.00     0.020 A 
HETATM   16  C   UNL     1     -11.602   1.897 -33.582  1.00  0.00     0.039 A 
HETATM   17  C   UNL     1     -10.486   1.136 -33.214  1.00  0.00     0.020 A 
HETATM   18  C   UNL     1      -9.464   1.704 -32.442  1.00  0.00     0.030 A 
BRANCH  16  19
HETATM   19  C   UNL     1     -12.662   1.249 -34.402  1.00  0.00     0.293 C 
HETATM   20  O   UNL     1     -12.741   1.373 -35.614  1.00  0.00    -0.259 OA
BRANCH  19  21
HETATM   21  O   UNL     1     -13.499   0.526 -33.618  1.00  0.00    -0.318 OA
BRANCH  21  22
HETATM   22  C   UNL     1     -14.886   0.895 -33.673  1.00  0.00     0.174 C 
HETATM   23  C   UNL     1     -15.206   1.917 -32.598  1.00  0.00     0.034 C 
ENDBRANCH  21  22
ENDBRANCH  19  21
ENDBRANCH  16  19
ENDBRANCH  10  13
ENDBRANCH   8   9
ENDBRANCH   1   8
BRANCH   2  24
HETATM   24  C   UNL     1      -3.773   5.673 -31.372  1.00  0.00     0.168 C 
BRANCH  24  25
HETATM   25  C   UNL     1      -2.354   5.727 -30.881  1.00  0.00    -0.023 A 
HETATM   26  C   UNL     1      -1.389   4.843 -31.354  1.00  0.00     0.125 A 
HETATM   27  N   UNL     1      -0.095   4.845 -30.959  1.00  0.00    -0.273 NA
HETATM   28  C   UNL     1       0.264   5.790 -30.063  1.00  0.00     0.116 A 
HETATM   29  C   UNL     1      -0.611   6.724 -29.538  1.00  0.00     0.020 A 
HETATM   30  C   UNL     1      -1.938   6.687 -29.953  1.00  0.00     0.012 A 
ENDBRANCH  24  25
ENDBRANCH   2  24
BRANCH   5  31
HETATM   31  C   UNL     1      -5.368   1.147 -32.619  1.00  0.00     0.047 A 
HETATM   32  C   UNL     1      -6.276   1.083 -33.690  1.00  0.00     0.031 A 
HETATM   33  C   UNL     1      -6.468  -0.091 -34.434  1.00  0.00     0.009 A 
HETATM   34  C   UNL     1      -5.753  -1.247 -34.131  1.00  0.00    -0.062 A 
HETATM   35  C   UNL     1      -5.932  -2.502 -34.931  1.00  0.00     0.048 C 
HETATM   36  C   UNL     1      -4.840  -1.205 -33.078  1.00  0.00     0.009 A 
HETATM   37  C   UNL     1      -4.657  -0.029 -32.334  1.00  0.00     0.031 A 
ENDBRANCH   5  31
TORSDOF 9
ENDMDL
