MODEL 1
REMARK VINA RESULT:      -8.0      0.000      0.000
REMARK  7 active torsions:
REMARK  status: ('A' for Active; 'I' for Inactive)
REMARK    1  A    between atoms: S_2  and  C_3 
REMARK    2  A    between atoms: C_3  and  C_4 
REMARK    3  A    between atoms: C_4  and  C_5 
REMARK    4  A    between atoms: C_5  and  N_6 
REMARK    5  A    between atoms: C_5  and  C_10 
REMARK       I    between atoms: N_6  and  C_7 
REMARK       I    between atoms: C_7  and  N_8 
REMARK       I    between atoms: C_10  and  N_11 
REMARK    6  A    between atoms: N_11  and  N_12 
REMARK       I    between atoms: N_12  and  C_13 
REMARK    7  A    between atoms: C_13  and  C_14 
ROOT
HETATM    1  C   UNL     1      -2.005   4.511 -31.860  1.00  0.00     0.259 C 
HETATM    2  N   UNL     1      -2.821   3.593 -31.236  1.00  0.00    -0.265 N 
HETATM    3  O   UNL     1      -1.812   4.475 -33.080  1.00  0.00    -0.269 OA
HETATM    4  H   UNL     1      -3.036   3.580 -30.239  1.00  0.00     0.190 HD
ENDROOT
BRANCH   2   5
HETATM    5  N   UNL     1      -3.326   2.522 -31.980  1.00  0.00    -0.263 N 
HETATM    6  C   UNL     1      -4.372   1.779 -31.456  1.00  0.00     0.278 C 
HETATM    7  O   UNL     1      -4.893   2.133 -30.396  1.00  0.00    -0.265 OA
HETATM    8  H   UNL     1      -2.829   2.267 -32.833  1.00  0.00     0.190 HD
BRANCH   6   9
HETATM    9  C   UNL     1      -4.776   0.606 -32.219  1.00  0.00     0.097 A 
HETATM   10  S   UNL     1      -6.309   0.536 -32.978  1.00  0.00    -0.082 SA
HETATM   11  C   UNL     1      -6.009  -1.008 -33.665  1.00  0.00     0.017 A 
HETATM   12  C   UNL     1      -4.750  -1.492 -33.304  1.00  0.00     0.004 A 
HETATM   13  C   UNL     1      -6.879  -1.745 -34.492  1.00  0.00     0.020 A 
HETATM   14  C   UNL     1      -4.053  -0.547 -32.466  1.00  0.00     0.068 A 
HETATM   15  C   UNL     1      -4.370  -2.768 -33.797  1.00  0.00     0.014 A 
HETATM   16 CL   UNL     1      -2.476  -0.887 -31.863  1.00  0.00    -0.082 Cl
HETATM   17  C   UNL     1      -5.229  -3.504 -34.618  1.00  0.00     0.001 A 
HETATM   18  C   UNL     1      -6.471  -2.994 -34.964  1.00  0.00     0.001 A 
ENDBRANCH   6   9
ENDBRANCH   2   5
BRANCH   1  19
HETATM   19  C   UNL     1      -1.474   5.655 -30.958  1.00  0.00     0.180 C 
BRANCH  19  20
HETATM   20  C   UNL     1      -2.570   6.626 -30.486  1.00  0.00     0.045 C 
BRANCH  20  21
HETATM   21  C   UNL     1      -3.335   7.275 -31.638  1.00  0.00     0.076 C 
BRANCH  21  22
HETATM   22  S   UNL     1      -5.093   6.797 -31.544  1.00  0.00    -0.173 SA
HETATM   23  C   UNL     1      -5.222   5.920 -33.120  1.00  0.00     0.089 C 
ENDBRANCH  21  22
ENDBRANCH  20  21
ENDBRANCH  19  20
BRANCH  19  24
HETATM   24  N   UNL     1      -0.652   5.066 -29.897  1.00  0.00    -0.330 N 
HETATM   25  C   UNL     1       0.655   4.729 -30.092  1.00  0.00     0.314 C 
HETATM   26  N   UNL     1       1.276   4.354 -28.947  1.00  0.00    -0.352 N 
HETATM   27  O   UNL     1       1.230   4.686 -31.168  1.00  0.00    -0.248 OA
HETATM   28  H   UNL     1       1.029   4.815 -28.085  1.00  0.00     0.160 HD
HETATM   29  H   UNL     1       2.266   4.177 -29.068  1.00  0.00     0.160 HD
HETATM   30  H   UNL     1      -0.841   5.424 -28.973  1.00  0.00     0.165 HD
ENDBRANCH  19  24
ENDBRANCH   1  19
TORSDOF 7
ENDMDL
MODEL 2
REMARK VINA RESULT:      -7.8      1.321      1.889
REMARK  7 active torsions:
REMARK  status: ('A' for Active; 'I' for Inactive)
REMARK    1  A    between atoms: S_2  and  C_3 
REMARK    2  A    between atoms: C_3  and  C_4 
REMARK    3  A    between atoms: C_4  and  C_5 
REMARK    4  A    between atoms: C_5  and  N_6 
REMARK    5  A    between atoms: C_5  and  C_10 
REMARK       I    between atoms: N_6  and  C_7 
REMARK       I    between atoms: C_7  and  N_8 
REMARK       I    between atoms: C_10  and  N_11 
REMARK    6  A    between atoms: N_11  and  N_12 
REMARK       I    between atoms: N_12  and  C_13 
REMARK    7  A    between atoms: C_13  and  C_14 
ROOT
HETATM    1  C   UNL     1      -1.930   4.597 -31.886  1.00  0.00     0.259 C 
HETATM    2  N   UNL     1      -2.663   3.632 -31.229  1.00  0.00    -0.265 N 
HETATM    3  O   UNL     1      -1.863   4.624 -33.119  1.00  0.00    -0.269 OA
HETATM    4  H   UNL     1      -2.773   3.567 -30.217  1.00  0.00     0.190 HD
ENDROOT
BRANCH   2   5
HETATM    5  N   UNL     1      -3.223   2.587 -31.970  1.00  0.00    -0.263 N 
HETATM    6  C   UNL     1      -4.303   1.897 -31.442  1.00  0.00     0.278 C 
HETATM    7  O   UNL     1      -4.801   2.277 -30.380  1.00  0.00    -0.265 OA
HETATM    8  H   UNL     1      -2.743   2.308 -32.825  1.00  0.00     0.190 HD
BRANCH   6   9
HETATM    9  C   UNL     1      -4.767   0.746 -32.202  1.00  0.00     0.097 A 
HETATM   10  S   UNL     1      -6.324   0.734 -32.916  1.00  0.00    -0.082 SA
HETATM   11  C   UNL     1      -6.096  -0.812 -33.625  1.00  0.00     0.017 A 
HETATM   12  C   UNL     1      -4.843  -1.341 -33.307  1.00  0.00     0.004 A 
HETATM   13  C   UNL     1      -7.014  -1.512 -34.432  1.00  0.00     0.020 A 
HETATM   14  C   UNL     1      -4.091  -0.427 -32.482  1.00  0.00     0.068 A 
HETATM   15  C   UNL     1      -4.520  -2.624 -33.822  1.00  0.00     0.014 A 
HETATM   16 CL   UNL     1      -2.509  -0.825 -31.930  1.00  0.00    -0.082 Cl
HETATM   17  C   UNL     1      -5.428  -3.323 -34.624  1.00  0.00     0.001 A 
HETATM   18  C   UNL     1      -6.662  -2.769 -34.927  1.00  0.00     0.001 A 
ENDBRANCH   6   9
ENDBRANCH   2   5
BRANCH   1  19
HETATM   19  C   UNL     1      -1.329   5.707 -30.987  1.00  0.00     0.180 C 
BRANCH  19  20
HETATM   20  C   UNL     1      -2.355   6.764 -30.544  1.00  0.00     0.045 C 
BRANCH  20  21
HETATM   21  C   UNL     1      -1.722   8.116 -30.216  1.00  0.00     0.076 C 
BRANCH  21  22
HETATM   22  S   UNL     1      -1.569   8.290 -28.407  1.00  0.00    -0.173 SA
HETATM   23  C   UNL     1       0.234   8.255 -28.280  1.00  0.00     0.089 C 
ENDBRANCH  21  22
ENDBRANCH  20  21
ENDBRANCH  19  20
BRANCH  19  24
HETATM   24  N   UNL     1      -0.572   5.069 -29.905  1.00  0.00    -0.330 N 
HETATM   25  C   UNL     1       0.731   4.695 -30.052  1.00  0.00     0.314 C 
HETATM   26  N   UNL     1       1.289   4.275 -28.890  1.00  0.00    -0.352 N 
HETATM   27  O   UNL     1       1.350   4.656 -31.103  1.00  0.00    -0.248 OA
HETATM   28  H   UNL     1       1.020   4.725 -28.029  1.00  0.00     0.160 HD
HETATM   29  H   UNL     1       2.277   4.069 -28.972  1.00  0.00     0.160 HD
HETATM   30  H   UNL     1      -0.791   5.413 -28.982  1.00  0.00     0.165 HD
ENDBRANCH  19  24
ENDBRANCH   1  19
TORSDOF 7
ENDMDL
MODEL 3
REMARK VINA RESULT:      -7.0      2.263      3.227
REMARK  7 active torsions:
REMARK  status: ('A' for Active; 'I' for Inactive)
REMARK    1  A    between atoms: S_2  and  C_3 
REMARK    2  A    between atoms: C_3  and  C_4 
REMARK    3  A    between atoms: C_4  and  C_5 
REMARK    4  A    between atoms: C_5  and  N_6 
REMARK    5  A    between atoms: C_5  and  C_10 
REMARK       I    between atoms: N_6  and  C_7 
REMARK       I    between atoms: C_7  and  N_8 
REMARK       I    between atoms: C_10  and  N_11 
REMARK    6  A    between atoms: N_11  and  N_12 
REMARK       I    between atoms: N_12  and  C_13 
REMARK    7  A    between atoms: C_13  and  C_14 
ROOT
HETATM    1  C   UNL     1      -1.562   4.988 -31.244  1.00  0.00     0.259 C 
HETATM    2  N   UNL     1      -2.737   4.359 -30.891  1.00  0.00    -0.265 N 
HETATM    3  O   UNL     1      -0.978   4.714 -32.298  1.00  0.00    -0.269 OA
HETATM    4  H   UNL     1      -3.276   4.553 -30.047  1.00  0.00     0.190 HD
ENDROOT
BRANCH   2   5
HETATM    5  N   UNL     1      -3.196   3.297 -31.676  1.00  0.00    -0.263 N 
HETATM    6  C   UNL     1      -4.402   2.697 -31.348  1.00  0.00     0.278 C 
HETATM    7  O   UNL     1      -5.083   3.170 -30.435  1.00  0.00    -0.265 OA
HETATM    8  H   UNL     1      -2.570   2.939 -32.395  1.00  0.00     0.190 HD
BRANCH   6   9
HETATM    9  C   UNL     1      -4.771   1.522 -32.125  1.00  0.00     0.097 A 
HETATM   10  S   UNL     1      -6.116   1.556 -33.184  1.00  0.00    -0.082 SA
HETATM   11  C   UNL     1      -5.857  -0.052 -33.724  1.00  0.00     0.017 A 
HETATM   12  C   UNL     1      -4.760  -0.635 -33.086  1.00  0.00     0.004 A 
HETATM   13  C   UNL     1      -6.617  -0.752 -34.681  1.00  0.00     0.020 A 
HETATM   14  C   UNL     1      -4.147   0.289 -32.163  1.00  0.00     0.068 A 
HETATM   15  C   UNL     1      -4.433  -1.973 -33.431  1.00  0.00     0.014 A 
HETATM   16 CL   UNL     1      -2.774  -0.167 -31.230  1.00  0.00    -0.082 Cl
HETATM   17  C   UNL     1      -5.184  -2.672 -34.381  1.00  0.00     0.001 A 
HETATM   18  C   UNL     1      -6.265  -2.064 -35.001  1.00  0.00     0.001 A 
ENDBRANCH   6   9
ENDBRANCH   2   5
BRANCH   1  19
HETATM   19  C   UNL     1      -1.115   6.142 -30.310  1.00  0.00     0.180 C 
BRANCH  19  20
HETATM   20  C   UNL     1       0.387   6.120 -29.979  1.00  0.00     0.045 C 
BRANCH  20  21
HETATM   21  C   UNL     1       0.671   6.010 -28.482  1.00  0.00     0.076 C 
BRANCH  21  22
HETATM   22  S   UNL     1      -0.701   6.766 -27.547  1.00  0.00    -0.173 SA
HETATM   23  C   UNL     1      -0.107   8.473 -27.524  1.00  0.00     0.089 C 
ENDBRANCH  21  22
ENDBRANCH  20  21
ENDBRANCH  19  20
BRANCH  19  24
HETATM   24  N   UNL     1      -1.624   7.404 -30.857  1.00  0.00    -0.330 N 
HETATM   25  C   UNL     1      -2.845   7.905 -30.512  1.00  0.00     0.314 C 
HETATM   26  N   UNL     1      -3.055   9.153 -30.999  1.00  0.00    -0.352 N 
HETATM   27  O   UNL     1      -3.716   7.309 -29.898  1.00  0.00    -0.248 OA
HETATM   28  H   UNL     1      -2.277   9.793 -31.050  1.00  0.00     0.160 HD
HETATM   29  H   UNL     1      -3.925   9.564 -30.684  1.00  0.00     0.160 HD
HETATM   30  H   UNL     1      -0.921   8.115 -30.992  1.00  0.00     0.165 HD
ENDBRANCH  19  24
ENDBRANCH   1  19
TORSDOF 7
ENDMDL
MODEL 4
REMARK VINA RESULT:      -6.9      3.590      4.263
REMARK  7 active torsions:
REMARK  status: ('A' for Active; 'I' for Inactive)
REMARK    1  A    between atoms: S_2  and  C_3 
REMARK    2  A    between atoms: C_3  and  C_4 
REMARK    3  A    between atoms: C_4  and  C_5 
REMARK    4  A    between atoms: C_5  and  N_6 
REMARK    5  A    between atoms: C_5  and  C_10 
REMARK       I    between atoms: N_6  and  C_7 
REMARK       I    between atoms: C_7  and  N_8 
REMARK       I    between atoms: C_10  and  N_11 
REMARK    6  A    between atoms: N_11  and  N_12 
REMARK       I    between atoms: N_12  and  C_13 
REMARK    7  A    between atoms: C_13  and  C_14 
ROOT
HETATM    1  C   UNL     1      -6.024   3.189 -29.964  1.00  0.00     0.259 C 
HETATM    2  N   UNL     1      -4.755   2.836 -30.371  1.00  0.00    -0.265 N 
HETATM    3  O   UNL     1      -6.930   2.352 -29.888  1.00  0.00    -0.269 OA
HETATM    4  H   UNL     1      -3.962   3.474 -30.436  1.00  0.00     0.190 HD
ENDROOT
BRANCH   2   5
HETATM    5  N   UNL     1      -4.532   1.537 -30.836  1.00  0.00    -0.263 N 
HETATM    6  C   UNL     1      -4.553   1.303 -32.202  1.00  0.00     0.278 C 
HETATM    7  O   UNL     1      -4.674   2.256 -32.976  1.00  0.00    -0.265 OA
HETATM    8  H   UNL     1      -4.468   0.794 -30.141  1.00  0.00     0.190 HD
BRANCH   6   9
HETATM    9  C   UNL     1      -4.434  -0.086 -32.621  1.00  0.00     0.097 A 
HETATM   10  S   UNL     1      -3.306  -1.136 -31.874  1.00  0.00    -0.082 SA
HETATM   11  C   UNL     1      -3.795  -2.489 -32.809  1.00  0.00     0.017 A 
HETATM   12  C   UNL     1      -4.805  -2.148 -33.713  1.00  0.00     0.004 A 
HETATM   13  C   UNL     1      -3.285  -3.799 -32.726  1.00  0.00     0.020 A 
HETATM   14  C   UNL     1      -5.158  -0.754 -33.591  1.00  0.00     0.068 A 
HETATM   15  C   UNL     1      -5.302  -3.172 -34.561  1.00  0.00     0.014 A 
HETATM   16 CL   UNL     1      -6.372  -0.055 -34.592  1.00  0.00    -0.082 Cl
HETATM   17  C   UNL     1      -4.799  -4.474 -34.482  1.00  0.00     0.001 A 
HETATM   18  C   UNL     1      -3.801  -4.784 -33.571  1.00  0.00     0.001 A 
ENDBRANCH   6   9
ENDBRANCH   2   5
BRANCH   1  19
HETATM   19  C   UNL     1      -6.189   4.652 -29.481  1.00  0.00     0.180 C 
BRANCH  19  20
HETATM   20  C   UNL     1      -7.647   5.143 -29.485  1.00  0.00     0.045 C 
BRANCH  20  21
HETATM   21  C   UNL     1      -7.902   6.261 -30.494  1.00  0.00     0.076 C 
BRANCH  21  22
HETATM   22  S   UNL     1      -8.812   7.616 -29.681  1.00  0.00    -0.173 SA
HETATM   23  C   UNL     1      -8.691   7.039 -27.972  1.00  0.00     0.089 C 
ENDBRANCH  21  22
ENDBRANCH  20  21
ENDBRANCH  19  20
BRANCH  19  24
HETATM   24  N   UNL     1      -5.474   4.804 -28.210  1.00  0.00    -0.330 N 
HETATM   25  C   UNL     1      -4.981   6.006 -27.792  1.00  0.00     0.314 C 
HETATM   26  N   UNL     1      -4.501   5.962 -26.525  1.00  0.00    -0.352 N 
HETATM   27  O   UNL     1      -4.892   7.017 -28.470  1.00  0.00    -0.248 OA
HETATM   28  H   UNL     1      -4.968   5.381 -25.847  1.00  0.00     0.160 HD
HETATM   29  H   UNL     1      -4.204   6.866 -26.179  1.00  0.00     0.160 HD
HETATM   30  H   UNL     1      -5.830   4.233 -27.458  1.00  0.00     0.165 HD
ENDBRANCH  19  24
ENDBRANCH   1  19
TORSDOF 7
ENDMDL
MODEL 5
REMARK VINA RESULT:      -6.9      3.031      3.883
REMARK  7 active torsions:
REMARK  status: ('A' for Active; 'I' for Inactive)
REMARK    1  A    between atoms: S_2  and  C_3 
REMARK    2  A    between atoms: C_3  and  C_4 
REMARK    3  A    between atoms: C_4  and  C_5 
REMARK    4  A    between atoms: C_5  and  N_6 
REMARK    5  A    between atoms: C_5  and  C_10 
REMARK       I    between atoms: N_6  and  C_7 
REMARK       I    between atoms: C_7  and  N_8 
REMARK       I    between atoms: C_10  and  N_11 
REMARK    6  A    between atoms: N_11  and  N_12 
REMARK       I    between atoms: N_12  and  C_13 
REMARK    7  A    between atoms: C_13  and  C_14 
ROOT
HETATM    1  C   UNL     1      -2.460   5.999 -30.588  1.00  0.00     0.259 C 
HETATM    2  N   UNL     1      -2.589   4.644 -30.806  1.00  0.00    -0.265 N 
HETATM    3  O   UNL     1      -3.447   6.742 -30.557  1.00  0.00    -0.269 OA
HETATM    4  H   UNL     1      -1.819   3.977 -30.823  1.00  0.00     0.190 HD
ENDROOT
BRANCH   2   5
HETATM    5  N   UNL     1      -3.847   4.130 -31.133  1.00  0.00    -0.263 N 
HETATM    6  C   UNL     1      -3.966   2.775 -31.400  1.00  0.00     0.278 C 
HETATM    7  O   UNL     1      -2.985   2.042 -31.253  1.00  0.00    -0.265 OA
HETATM    8  H   UNL     1      -4.607   4.796 -31.266  1.00  0.00     0.190 HD
BRANCH   6   9
HETATM    9  C   UNL     1      -5.273   2.318 -31.852  1.00  0.00     0.097 A 
HETATM   10  S   UNL     1      -5.889   2.790 -33.379  1.00  0.00    -0.082 SA
HETATM   11  C   UNL     1      -7.320   1.858 -33.200  1.00  0.00     0.017 A 
HETATM   12  C   UNL     1      -7.349   1.199 -31.969  1.00  0.00     0.004 A 
HETATM   13  C   UNL     1      -8.366   1.733 -34.135  1.00  0.00     0.020 A 
HETATM   14  C   UNL     1      -6.160   1.480 -31.203  1.00  0.00     0.068 A 
HETATM   15  C   UNL     1      -8.484   0.394 -31.681  1.00  0.00     0.014 A 
HETATM   16 CL   UNL     1      -5.932   0.804 -29.636  1.00  0.00    -0.082 Cl
HETATM   17  C   UNL     1      -9.524   0.267 -32.606  1.00  0.00     0.001 A 
HETATM   18  C   UNL     1      -9.463   0.929 -33.822  1.00  0.00     0.001 A 
ENDBRANCH   6   9
ENDBRANCH   2   5
BRANCH   1  19
HETATM   19  C   UNL     1      -1.029   6.488 -30.248  1.00  0.00     0.180 C 
BRANCH  19  20
HETATM   20  C   UNL     1      -0.986   7.906 -29.654  1.00  0.00     0.045 C 
BRANCH  20  21
HETATM   21  C   UNL     1      -0.672   7.922 -28.159  1.00  0.00     0.076 C 
BRANCH  21  22
HETATM   22  S   UNL     1       1.069   8.407 -27.910  1.00  0.00    -0.173 SA
HETATM   23  C   UNL     1       0.947   8.996 -26.206  1.00  0.00     0.089 C 
ENDBRANCH  21  22
ENDBRANCH  20  21
ENDBRANCH  19  20
BRANCH  19  24
HETATM   24  N   UNL     1      -0.360   5.450 -29.456  1.00  0.00    -0.330 N 
HETATM   25  C   UNL     1       0.736   4.780 -29.913  1.00  0.00     0.314 C 
HETATM   26  N   UNL     1       1.294   3.984 -28.969  1.00  0.00    -0.352 N 
HETATM   27  O   UNL     1       1.164   4.804 -31.056  1.00  0.00    -0.248 OA
HETATM   28  H   UNL     1       1.294   4.292 -28.009  1.00  0.00     0.160 HD
HETATM   29  H   UNL     1       2.152   3.541 -29.275  1.00  0.00     0.160 HD
HETATM   30  H   UNL     1      -0.335   5.632 -28.464  1.00  0.00     0.165 HD
ENDBRANCH  19  24
ENDBRANCH   1  19
TORSDOF 7
ENDMDL
MODEL 6
REMARK VINA RESULT:      -6.8      3.443      4.032
REMARK  7 active torsions:
REMARK  status: ('A' for Active; 'I' for Inactive)
REMARK    1  A    between atoms: S_2  and  C_3 
REMARK    2  A    between atoms: C_3  and  C_4 
REMARK    3  A    between atoms: C_4  and  C_5 
REMARK    4  A    between atoms: C_5  and  N_6 
REMARK    5  A    between atoms: C_5  and  C_10 
REMARK       I    between atoms: N_6  and  C_7 
REMARK       I    between atoms: C_7  and  N_8 
REMARK       I    between atoms: C_10  and  N_11 
REMARK    6  A    between atoms: N_11  and  N_12 
REMARK       I    between atoms: N_12  and  C_13 
REMARK    7  A    between atoms: C_13  and  C_14 
ROOT
HETATM    1  C   UNL     1      -6.801   3.769 -29.604  1.00  0.00     0.259 C 
HETATM    2  N   UNL     1      -5.627   3.082 -29.830  1.00  0.00    -0.265 N 
HETATM    3  O   UNL     1      -7.900   3.264 -29.857  1.00  0.00    -0.269 OA
HETATM    4  H   UNL     1      -4.693   3.434 -29.625  1.00  0.00     0.190 HD
ENDROOT
BRANCH   2   5
HETATM    5  N   UNL     1      -5.682   1.849 -30.486  1.00  0.00    -0.263 N 
HETATM    6  C   UNL     1      -5.045   1.714 -31.709  1.00  0.00     0.278 C 
HETATM    7  O   UNL     1      -4.369   2.649 -32.145  1.00  0.00    -0.265 OA
HETATM    8  H   UNL     1      -6.282   1.129 -30.084  1.00  0.00     0.190 HD
BRANCH   6   9
HETATM    9  C   UNL     1      -5.236   0.446 -32.401  1.00  0.00     0.097 A 
HETATM   10  S   UNL     1      -6.722   0.081 -33.170  1.00  0.00    -0.082 SA
HETATM   11  C   UNL     1      -6.161  -1.432 -33.756  1.00  0.00     0.017 A 
HETATM   12  C   UNL     1      -4.846  -1.680 -33.353  1.00  0.00     0.004 A 
HETATM   13  C   UNL     1      -6.881  -2.350 -34.544  1.00  0.00     0.020 A 
HETATM   14  C   UNL     1      -4.330  -0.585 -32.568  1.00  0.00     0.068 A 
HETATM   15  C   UNL     1      -4.253  -2.904 -33.761  1.00  0.00     0.014 A 
HETATM   16 CL   UNL     1      -2.732  -0.625 -31.930  1.00  0.00    -0.082 Cl
HETATM   17  C   UNL     1      -4.964  -3.818 -34.544  1.00  0.00     0.001 A 
HETATM   18  C   UNL     1      -6.266  -3.541 -34.933  1.00  0.00     0.001 A 
ENDBRANCH   6   9
ENDBRANCH   2   5
BRANCH   1  19
HETATM   19  C   UNL     1      -6.648   5.135 -28.888  1.00  0.00     0.180 C 
BRANCH  19  20
HETATM   20  C   UNL     1      -7.975   5.704 -28.357  1.00  0.00     0.045 C 
BRANCH  20  21
HETATM   21  C   UNL     1      -8.505   6.870 -29.190  1.00  0.00     0.076 C 
BRANCH  21  22
HETATM   22  S   UNL     1      -9.842   6.277 -30.281  1.00  0.00    -0.173 SA
HETATM   23  C   UNL     1      -8.940   6.286 -31.847  1.00  0.00     0.089 C 
ENDBRANCH  21  22
ENDBRANCH  20  21
ENDBRANCH  19  20
BRANCH  19  24
HETATM   24  N   UNL     1      -5.568   5.024 -27.902  1.00  0.00    -0.330 N 
HETATM   25  C   UNL     1      -4.968   6.120 -27.355  1.00  0.00     0.314 C 
HETATM   26  N   UNL     1      -4.113   5.802 -26.352  1.00  0.00    -0.352 N 
HETATM   27  O   UNL     1      -5.098   7.272 -27.736  1.00  0.00    -0.248 OA
HETATM   28  H   UNL     1      -4.342   5.033 -25.742  1.00  0.00     0.160 HD
HETATM   29  H   UNL     1      -3.721   6.613 -25.888  1.00  0.00     0.160 HD
HETATM   30  H   UNL     1      -5.669   4.256 -27.256  1.00  0.00     0.165 HD
ENDBRANCH  19  24
ENDBRANCH   1  19
TORSDOF 7
ENDMDL
MODEL 7
REMARK VINA RESULT:      -6.8      2.588      3.071
REMARK  7 active torsions:
REMARK  status: ('A' for Active; 'I' for Inactive)
REMARK    1  A    between atoms: S_2  and  C_3 
REMARK    2  A    between atoms: C_3  and  C_4 
REMARK    3  A    between atoms: C_4  and  C_5 
REMARK    4  A    between atoms: C_5  and  N_6 
REMARK    5  A    between atoms: C_5  and  C_10 
REMARK       I    between atoms: N_6  and  C_7 
REMARK       I    between atoms: C_7  and  N_8 
REMARK       I    between atoms: C_10  and  N_11 
REMARK    6  A    between atoms: N_11  and  N_12 
REMARK       I    between atoms: N_12  and  C_13 
REMARK    7  A    between atoms: C_13  and  C_14 
ROOT
HETATM    1  C   UNL     1      -4.332   5.093 -33.413  1.00  0.00     0.259 C 
HETATM    2  N   UNL     1      -4.699   4.122 -32.507  1.00  0.00    -0.265 N 
HETATM    3  O   UNL     1      -4.429   4.905 -34.631  1.00  0.00    -0.269 OA
HETATM    4  H   UNL     1      -4.663   4.222 -31.493  1.00  0.00     0.190 HD
ENDROOT
BRANCH   2   5
HETATM    5  N   UNL     1      -5.055   2.855 -32.981  1.00  0.00    -0.263 N 
HETATM    6  C   UNL     1      -4.593   1.736 -32.307  1.00  0.00     0.278 C 
HETATM    7  O   UNL     1      -3.960   1.881 -31.259  1.00  0.00    -0.265 OA
HETATM    8  H   UNL     1      -5.555   2.809 -33.868  1.00  0.00     0.190 HD
BRANCH   6   9
HETATM    9  C   UNL     1      -4.895   0.447 -32.914  1.00  0.00     0.097 A 
HETATM   10  S   UNL     1      -3.655  -0.696 -33.212  1.00  0.00    -0.082 SA
HETATM   11  C   UNL     1      -4.747  -1.870 -33.824  1.00  0.00     0.017 A 
HETATM   12  C   UNL     1      -6.060  -1.394 -33.827  1.00  0.00     0.004 A 
HETATM   13  C   UNL     1      -4.425  -3.162 -34.281  1.00  0.00     0.020 A 
HETATM   14  C   UNL     1      -6.125  -0.052 -33.300  1.00  0.00     0.068 A 
HETATM   15  C   UNL     1      -7.073  -2.260 -34.317  1.00  0.00     0.014 A 
HETATM   16 CL   UNL     1      -7.623   0.789 -33.194  1.00  0.00    -0.082 Cl
HETATM   17  C   UNL     1      -6.758  -3.544 -34.771  1.00  0.00     0.001 A 
HETATM   18  C   UNL     1      -5.446  -3.991 -34.751  1.00  0.00     0.001 A 
ENDBRANCH   6   9
ENDBRANCH   2   5
BRANCH   1  19
HETATM   19  C   UNL     1      -3.936   6.461 -32.803  1.00  0.00     0.180 C 
BRANCH  19  20
HETATM   20  C   UNL     1      -4.951   6.997 -31.779  1.00  0.00     0.045 C 
BRANCH  20  21
HETATM   21  C   UNL     1      -4.310   7.858 -30.691  1.00  0.00     0.076 C 
BRANCH  21  22
HETATM   22  S   UNL     1      -5.550   8.235 -29.407  1.00  0.00    -0.173 SA
HETATM   23  C   UNL     1      -4.462   9.032 -28.203  1.00  0.00     0.089 C 
ENDBRANCH  21  22
ENDBRANCH  20  21
ENDBRANCH  19  20
BRANCH  19  24
HETATM   24  N   UNL     1      -2.549   6.374 -32.332  1.00  0.00    -0.330 N 
HETATM   25  C   UNL     1      -1.540   7.087 -32.910  1.00  0.00     0.314 C 
HETATM   26  N   UNL     1      -0.373   6.989 -32.227  1.00  0.00    -0.352 N 
HETATM   27  O   UNL     1      -1.608   7.700 -33.963  1.00  0.00    -0.248 OA
HETATM   28  H   UNL     1      -0.400   6.937 -31.220  1.00  0.00     0.160 HD
HETATM   29  H   UNL     1       0.362   7.575 -32.604  1.00  0.00     0.160 HD
HETATM   30  H   UNL     1      -2.452   6.277 -31.332  1.00  0.00     0.165 HD
ENDBRANCH  19  24
ENDBRANCH   1  19
TORSDOF 7
ENDMDL
MODEL 8
REMARK VINA RESULT:      -6.6      2.621      3.785
REMARK  7 active torsions:
REMARK  status: ('A' for Active; 'I' for Inactive)
REMARK    1  A    between atoms: S_2  and  C_3 
REMARK    2  A    between atoms: C_3  and  C_4 
REMARK    3  A    between atoms: C_4  and  C_5 
REMARK    4  A    between atoms: C_5  and  N_6 
REMARK    5  A    between atoms: C_5  and  C_10 
REMARK       I    between atoms: N_6  and  C_7 
REMARK       I    between atoms: C_7  and  N_8 
REMARK       I    between atoms: C_10  and  N_11 
REMARK    6  A    between atoms: N_11  and  N_12 
REMARK       I    between atoms: N_12  and  C_13 
REMARK    7  A    between atoms: C_13  and  C_14 
ROOT
HETATM    1  C   UNL     1      -3.737   3.898 -31.942  1.00  0.00     0.259 C 
HETATM    2  N   UNL     1      -4.789   3.068 -31.616  1.00  0.00    -0.265 N 
HETATM    3  O   UNL     1      -2.847   3.533 -32.717  1.00  0.00    -0.269 OA
HETATM    4  H   UNL     1      -5.562   3.316 -31.000  1.00  0.00     0.190 HD
ENDROOT
BRANCH   2   5
HETATM    5  N   UNL     1      -4.769   1.745 -32.066  1.00  0.00    -0.263 N 
HETATM    6  C   UNL     1      -5.572   1.392 -33.139  1.00  0.00     0.278 C 
HETATM    7  O   UNL     1      -6.211   2.267 -33.729  1.00  0.00    -0.265 OA
HETATM    8  H   UNL     1      -4.242   1.069 -31.515  1.00  0.00     0.190 HD
BRANCH   6   9
HETATM    9  C   UNL     1      -5.601  -0.022 -33.486  1.00  0.00     0.097 A 
HETATM   10  S   UNL     1      -7.025  -0.747 -34.102  1.00  0.00    -0.082 SA
HETATM   11  C   UNL     1      -6.278  -2.278 -34.304  1.00  0.00     0.017 A 
HETATM   12  C   UNL     1      -4.946  -2.256 -33.885  1.00  0.00     0.004 A 
HETATM   13  C   UNL     1      -6.875  -3.445 -34.820  1.00  0.00     0.020 A 
HETATM   14  C   UNL     1      -4.574  -0.945 -33.413  1.00  0.00     0.068 A 
HETATM   15  C   UNL     1      -4.204  -3.462 -33.989  1.00  0.00     0.014 A 
HETATM   16 CL   UNL     1      -2.987  -0.629 -32.825  1.00  0.00    -0.082 Cl
HETATM   17  C   UNL     1      -4.791  -4.623 -34.500  1.00  0.00     0.001 A 
HETATM   18  C   UNL     1      -6.115  -4.612 -34.913  1.00  0.00     0.001 A 
ENDBRANCH   6   9
ENDBRANCH   2   5
BRANCH   1  19
HETATM   19  C   UNL     1      -3.830   5.343 -31.388  1.00  0.00     0.180 C 
BRANCH  19  20
HETATM   20  C   UNL     1      -2.460   6.014 -31.187  1.00  0.00     0.045 C 
BRANCH  20  21
HETATM   21  C   UNL     1      -2.389   6.865 -29.920  1.00  0.00     0.076 C 
BRANCH  21  22
HETATM   22  S   UNL     1      -0.646   7.253 -29.546  1.00  0.00    -0.173 SA
HETATM   23  C   UNL     1      -0.640   6.820 -27.791  1.00  0.00     0.089 C 
ENDBRANCH  21  22
ENDBRANCH  20  21
ENDBRANCH  19  20
BRANCH  19  24
HETATM   24  N   UNL     1      -4.788   6.093 -32.206  1.00  0.00    -0.330 N 
HETATM   25  C   UNL     1      -6.108   6.189 -31.876  1.00  0.00     0.314 C 
HETATM   26  N   UNL     1      -6.784   7.055 -32.669  1.00  0.00    -0.352 N 
HETATM   27  O   UNL     1      -6.680   5.536 -31.018  1.00  0.00    -0.248 OA
HETATM   28  H   UNL     1      -6.315   7.887 -32.993  1.00  0.00     0.160 HD
HETATM   29  H   UNL     1      -7.746   7.192 -32.383  1.00  0.00     0.160 HD
HETATM   30  H   UNL     1      -4.415   6.933 -32.622  1.00  0.00     0.165 HD
ENDBRANCH  19  24
ENDBRANCH   1  19
TORSDOF 7
ENDMDL
MODEL 9
REMARK VINA RESULT:      -6.6      3.196      9.124
REMARK  7 active torsions:
REMARK  status: ('A' for Active; 'I' for Inactive)
REMARK    1  A    between atoms: S_2  and  C_3 
REMARK    2  A    between atoms: C_3  and  C_4 
REMARK    3  A    between atoms: C_4  and  C_5 
REMARK    4  A    between atoms: C_5  and  N_6 
REMARK    5  A    between atoms: C_5  and  C_10 
REMARK       I    between atoms: N_6  and  C_7 
REMARK       I    between atoms: C_7  and  N_8 
REMARK       I    between atoms: C_10  and  N_11 
REMARK    6  A    between atoms: N_11  and  N_12 
REMARK       I    between atoms: N_12  and  C_13 
REMARK    7  A    between atoms: C_13  and  C_14 
ROOT
HETATM    1  C   UNL     1      -5.087   2.911 -30.954  1.00  0.00     0.259 C 
HETATM    2  N   UNL     1      -3.954   3.498 -31.477  1.00  0.00    -0.265 N 
HETATM    3  O   UNL     1      -5.664   3.391 -29.973  1.00  0.00    -0.269 OA
HETATM    4  H   UNL     1      -3.444   3.163 -32.294  1.00  0.00     0.190 HD
ENDROOT
BRANCH   2   5
HETATM    5  N   UNL     1      -3.375   4.573 -30.796  1.00  0.00    -0.263 N 
HETATM    6  C   UNL     1      -2.087   4.960 -31.132  1.00  0.00     0.278 C 
HETATM    7  O   UNL     1      -1.519   4.412 -32.080  1.00  0.00    -0.265 OA
HETATM    8  H   UNL     1      -3.888   4.960 -30.005  1.00  0.00     0.190 HD
BRANCH   6   9
HETATM    9  C   UNL     1      -1.492   6.005 -30.310  1.00  0.00     0.097 A 
HETATM   10  S   UNL     1      -2.367   7.425 -29.925  1.00  0.00    -0.082 SA
HETATM   11  C   UNL     1      -1.102   8.061 -28.956  1.00  0.00     0.017 A 
HETATM   12  C   UNL     1       0.004   7.209 -28.935  1.00  0.00     0.004 A 
HETATM   13  C   UNL     1      -1.114   9.279 -28.248  1.00  0.00     0.020 A 
HETATM   14  C   UNL     1      -0.239   6.027 -29.726  1.00  0.00     0.068 A 
HETATM   15  C   UNL     1       1.133   7.614 -28.174  1.00  0.00     0.014 A 
HETATM   16 CL   UNL     1       0.961   4.803 -29.886  1.00  0.00    -0.082 Cl
HETATM   17  C   UNL     1       1.125   8.821 -27.470  1.00  0.00     0.001 A 
HETATM   18  C   UNL     1       0.010   9.644 -27.505  1.00  0.00     0.001 A 
ENDBRANCH   6   9
ENDBRANCH   2   5
BRANCH   1  19
HETATM   19  C   UNL     1      -5.653   1.715 -31.761  1.00  0.00     0.180 C 
BRANCH  19  20
HETATM   20  C   UNL     1      -4.623   0.600 -32.015  1.00  0.00     0.045 C 
BRANCH  20  21
HETATM   21  C   UNL     1      -5.264  -0.763 -32.267  1.00  0.00     0.076 C 
BRANCH  21  22
HETATM   22  S   UNL     1      -4.331  -1.641 -33.566  1.00  0.00    -0.173 SA
HETATM   23  C   UNL     1      -5.726  -2.358 -34.465  1.00  0.00     0.089 C 
ENDBRANCH  21  22
ENDBRANCH  20  21
ENDBRANCH  19  20
BRANCH  19  24
HETATM   24  N   UNL     1      -6.908   1.286 -31.135  1.00  0.00    -0.330 N 
HETATM   25  C   UNL     1      -8.122   1.508 -31.716  1.00  0.00     0.314 C 
HETATM   26  N   UNL     1      -9.136   0.893 -31.058  1.00  0.00    -0.352 N 
HETATM   27  O   UNL     1      -8.335   2.230 -32.677  1.00  0.00    -0.248 OA
HETATM   28  H   UNL     1      -8.969  -0.008 -30.639  1.00  0.00     0.160 HD
HETATM   29  H   UNL     1     -10.030   0.988 -31.524  1.00  0.00     0.160 HD
HETATM   30  H   UNL     1      -6.851   0.406 -30.644  1.00  0.00     0.165 HD
ENDBRANCH  19  24
ENDBRANCH   1  19
TORSDOF 7
ENDMDL
MODEL 10
REMARK VINA RESULT:      -6.6      6.534      9.020
REMARK  7 active torsions:
REMARK  status: ('A' for Active; 'I' for Inactive)
REMARK    1  A    between atoms: S_2  and  C_3 
REMARK    2  A    between atoms: C_3  and  C_4 
REMARK    3  A    between atoms: C_4  and  C_5 
REMARK    4  A    between atoms: C_5  and  N_6 
REMARK    5  A    between atoms: C_5  and  C_10 
REMARK       I    between atoms: N_6  and  C_7 
REMARK       I    between atoms: C_7  and  N_8 
REMARK       I    between atoms: C_10  and  N_11 
REMARK    6  A    between atoms: N_11  and  N_12 
REMARK       I    between atoms: N_12  and  C_13 
REMARK    7  A    between atoms: C_13  and  C_14 
ROOT
HETATM    1  C   UNL     1     -11.825   3.414 -32.447  1.00  0.00     0.259 C 
HETATM    2  N   UNL     1     -11.407   2.148 -32.798  1.00  0.00    -0.265 N 
HETATM    3  O   UNL     1     -11.047   4.231 -31.941  1.00  0.00    -0.269 OA
HETATM    4  H   UNL     1     -11.993   1.438 -33.235  1.00  0.00     0.190 HD
ENDROOT
BRANCH   2   5
HETATM    5  N   UNL     1     -10.117   1.741 -32.446  1.00  0.00    -0.263 N 
HETATM    6  C   UNL     1      -9.120   1.777 -33.408  1.00  0.00     0.278 C 
HETATM    7  O   UNL     1      -9.369   2.252 -34.518  1.00  0.00    -0.265 OA
HETATM    8  H   UNL     1      -9.988   1.333 -31.521  1.00  0.00     0.190 HD
BRANCH   6   9
HETATM    9  C   UNL     1      -7.827   1.230 -33.019  1.00  0.00     0.097 A 
HETATM   10  S   UNL     1      -7.103   1.660 -31.528  1.00  0.00    -0.082 SA
HETATM   11  C   UNL     1      -5.753   0.629 -31.773  1.00  0.00     0.017 A 
HETATM   12  C   UNL     1      -5.832  -0.034 -33.000  1.00  0.00     0.004 A 
HETATM   13  C   UNL     1      -4.673   0.433 -30.891  1.00  0.00     0.020 A 
HETATM   14  C   UNL     1      -7.036   0.329 -33.707  1.00  0.00     0.068 A 
HETATM   15  C   UNL     1      -4.773  -0.917 -33.339  1.00  0.00     0.014 A 
HETATM   16 CL   UNL     1      -7.389  -0.333 -35.257  1.00  0.00    -0.082 Cl
HETATM   17  C   UNL     1      -3.699  -1.116 -32.467  1.00  0.00     0.001 A 
HETATM   18  C   UNL     1      -3.652  -0.448 -31.253  1.00  0.00     0.001 A 
ENDBRANCH   6   9
ENDBRANCH   2   5
BRANCH   1  19
HETATM   19  C   UNL     1     -13.274   3.777 -32.858  1.00  0.00     0.180 C 
BRANCH  19  20
HETATM   20  C   UNL     1     -13.396   5.150 -33.541  1.00  0.00     0.045 C 
BRANCH  20  21
HETATM   21  C   UNL     1     -12.933   5.140 -34.997  1.00  0.00     0.076 C 
BRANCH  21  22
HETATM   22  S   UNL     1     -11.791   6.534 -35.281  1.00  0.00    -0.173 SA
HETATM   23  C   UNL     1     -10.227   5.639 -35.130  1.00  0.00     0.089 C 
ENDBRANCH  21  22
ENDBRANCH  20  21
ENDBRANCH  19  20
BRANCH  19  24
HETATM   24  N   UNL     1     -13.842   2.649 -33.603  1.00  0.00    -0.330 N 
HETATM   25  C   UNL     1     -14.912   1.939 -33.143  1.00  0.00     0.314 C 
HETATM   26  N   UNL     1     -15.378   1.048 -34.052  1.00  0.00    -0.352 N 
HETATM   27  O   UNL     1     -15.389   2.009 -32.022  1.00  0.00    -0.248 OA
HETATM   28  H   UNL     1     -15.357   1.292 -35.030  1.00  0.00     0.160 HD
HETATM   29  H   UNL     1     -16.219   0.571 -33.750  1.00  0.00     0.160 HD
HETATM   30  H   UNL     1     -13.836   2.764 -34.606  1.00  0.00     0.165 HD
ENDBRANCH  19  24
ENDBRANCH   1  19
TORSDOF 7
ENDMDL
