MODEL 1
REMARK VINA RESULT:      -9.1      0.000      0.000
REMARK  10 active torsions:
REMARK  status: ('A' for Active; 'I' for Inactive)
REMARK    1  A    between atoms: C_2  and  C_3 
REMARK    2  A    between atoms: C_3  and  O_4 
REMARK    3  A    between atoms: O_4  and  C_5 
REMARK    4  A    between atoms: C_7  and  C_8 
REMARK       I    between atoms: C_8  and  N_9 
REMARK    5  A    between atoms: N_9  and  C_10 
REMARK    6  A    between atoms: C_10  and  N_11 
REMARK    7  A    between atoms: N_11  and  C_12 
REMARK    8  A    between atoms: C_15  and  N_16 
REMARK    9  A    between atoms: N_19  and  C_21 
REMARK   10  A    between atoms: C_21  and  C_22 
ROOT
HETATM    1  C   UNL     1      -5.033   5.974 -31.201  1.00  0.00     0.034 A 
HETATM    2  C   UNL     1      -5.822   5.377 -30.218  1.00  0.00     0.032 A 
HETATM    3  C   UNL     1      -5.854   3.982 -30.065  1.00  0.00     0.031 A 
HETATM    4  C   UNL     1      -5.083   3.121 -30.859  1.00  0.00     0.030 A 
HETATM    5  C   UNL     1      -4.289   3.751 -31.835  1.00  0.00     0.031 A 
HETATM    6  C   UNL     1      -4.266   5.150 -32.010  1.00  0.00     0.032 A 
ENDROOT
BRANCH   1   7
HETATM    7  N   UNL     1      -5.187   7.367 -31.368  1.00  0.00    -0.333 N 
HETATM    8  H   UNL     1      -5.753   7.615 -32.173  1.00  0.00     0.168 HD
BRANCH   7   9
HETATM    9  C   UNL     1      -4.408   8.391 -30.975  1.00  0.00     0.179 C 
HETATM   10  S   UNL     1      -5.092   9.922 -30.922  1.00  0.00    -0.040 SA
BRANCH   9  11
HETATM   11  N   UNL     1      -3.125   8.274 -30.553  1.00  0.00    -0.299 N 
HETATM   12  C   UNL     1      -1.997   8.099 -31.353  1.00  0.00     0.257 C 
HETATM   13  O   UNL     1      -1.791   8.647 -32.430  1.00  0.00    -0.267 OA
HETATM   14  H   UNL     1      -3.133   7.709 -29.715  1.00  0.00     0.171 HD
BRANCH  12  15
HETATM   15  C   UNL     1      -0.949   7.180 -30.797  1.00  0.00     0.035 A 
HETATM   16  C   UNL     1      -0.461   7.274 -29.486  1.00  0.00     0.053 A 
HETATM   17  C   UNL     1       0.461   6.344 -28.993  1.00  0.00     0.069 A 
HETATM   18  C   UNL     1       0.920   5.323 -29.822  1.00  0.00     0.037 A 
HETATM   19  C   UNL     1       0.465   5.237 -31.140  1.00  0.00     0.004 A 
HETATM   20  C   UNL     1      -0.466   6.159 -31.626  1.00  0.00     0.017 A 
BRANCH  17  21
HETATM   21  O   UNL     1       0.814   6.543 -27.686  1.00  0.00    -0.351 OA
BRANCH  21  22
HETATM   22  C   UNL     1      -0.163   7.123 -26.816  1.00  0.00     0.179 C 
BRANCH  22  23
HETATM   23  C   UNL     1       0.499   8.272 -26.040  1.00  0.00     0.002 C 
HETATM   24  C   UNL     1       0.035   9.624 -26.575  1.00  0.00     0.011 C 
HETATM   25  C   UNL     1       2.026   8.176 -26.101  1.00  0.00     0.011 C 
ENDBRANCH  22  23
ENDBRANCH  21  22
ENDBRANCH  17  21
ENDBRANCH  12  15
ENDBRANCH   9  11
ENDBRANCH   7   9
ENDBRANCH   1   7
BRANCH   4  26
HETATM   26  N   UNL     1      -5.177   1.735 -30.720  1.00  0.00    -0.378 N 
HETATM   27  C   UNL     1      -4.064   0.884 -31.195  1.00  0.00     0.150 C 
HETATM   28  C   UNL     1      -4.318   0.432 -32.649  1.00  0.00     0.255 C 
HETATM   29  N   UNL     1      -5.671  -0.279 -32.759  1.00  0.00    -0.064 N 
HETATM   30  H   UNL     1      -5.615  -1.110 -32.160  1.00  0.00     0.280 HD
HETATM   31  C   UNL     1      -6.800   0.602 -32.214  1.00  0.00     0.255 C 
HETATM   32  C   UNL     1      -6.482   1.050 -30.772  1.00  0.00     0.150 C 
BRANCH  29  33
HETATM   33  C   UNL     1      -5.961  -0.764 -34.157  1.00  0.00     0.273 C 
BRANCH  33  34
HETATM   34  C   UNL     1      -5.695  -2.235 -34.325  1.00  0.00    -0.033 A 
HETATM   35  C   UNL     1      -6.716  -3.097 -34.757  1.00  0.00     0.009 A 
HETATM   36  C   UNL     1      -6.480  -4.467 -34.880  1.00  0.00     0.001 A 
HETATM   37  C   UNL     1      -5.225  -4.990 -34.572  1.00  0.00     0.000 A 
HETATM   38  C   UNL     1      -4.204  -4.145 -34.145  1.00  0.00     0.001 A 
HETATM   39  C   UNL     1      -4.435  -2.774 -34.023  1.00  0.00     0.009 A 
ENDBRANCH  33  34
ENDBRANCH  29  33
ENDBRANCH   4  26
TORSDOF 10
ENDMDL
MODEL 2
REMARK VINA RESULT:      -9.0      3.352     10.265
REMARK  10 active torsions:
REMARK  status: ('A' for Active; 'I' for Inactive)
REMARK    1  A    between atoms: C_2  and  C_3 
REMARK    2  A    between atoms: C_3  and  O_4 
REMARK    3  A    between atoms: O_4  and  C_5 
REMARK    4  A    between atoms: C_7  and  C_8 
REMARK       I    between atoms: C_8  and  N_9 
REMARK    5  A    between atoms: N_9  and  C_10 
REMARK    6  A    between atoms: C_10  and  N_11 
REMARK    7  A    between atoms: N_11  and  C_12 
REMARK    8  A    between atoms: C_15  and  N_16 
REMARK    9  A    between atoms: N_19  and  C_21 
REMARK   10  A    between atoms: C_21  and  C_22 
ROOT
HETATM    1  C   UNL     1      -6.169   4.460 -33.607  1.00  0.00     0.034 A 
HETATM    2  C   UNL     1      -5.006   4.575 -34.368  1.00  0.00     0.032 A 
HETATM    3  C   UNL     1      -3.976   5.448 -33.989  1.00  0.00     0.031 A 
HETATM    4  C   UNL     1      -4.040   6.224 -32.823  1.00  0.00     0.030 A 
HETATM    5  C   UNL     1      -5.218   6.081 -32.068  1.00  0.00     0.031 A 
HETATM    6  C   UNL     1      -6.269   5.221 -32.452  1.00  0.00     0.032 A 
ENDROOT
BRANCH   1   7
HETATM    7  N   UNL     1      -7.201   3.669 -34.154  1.00  0.00    -0.333 N 
HETATM    8  H   UNL     1      -7.757   4.158 -34.848  1.00  0.00     0.168 HD
BRANCH   7   9
HETATM    9  C   UNL     1      -7.860   2.610 -33.647  1.00  0.00     0.179 C 
HETATM   10  S   UNL     1      -9.530   2.709 -33.529  1.00  0.00    -0.040 SA
BRANCH   9  11
HETATM   11  N   UNL     1      -7.285   1.438 -33.286  1.00  0.00    -0.299 N 
HETATM   12  C   UNL     1      -6.861   1.076 -32.008  1.00  0.00     0.257 C 
HETATM   13  O   UNL     1      -7.448   1.328 -30.962  1.00  0.00    -0.267 OA
HETATM   14  H   UNL     1      -6.650   1.172 -34.026  1.00  0.00     0.171 HD
BRANCH  12  15
HETATM   15  C   UNL     1      -5.591   0.279 -31.952  1.00  0.00     0.035 A 
HETATM   16  C   UNL     1      -5.398  -0.911 -32.669  1.00  0.00     0.053 A 
HETATM   17  C   UNL     1      -4.166  -1.576 -32.641  1.00  0.00     0.069 A 
HETATM   18  C   UNL     1      -3.124  -1.063 -31.872  1.00  0.00     0.037 A 
HETATM   19  C   UNL     1      -3.314   0.105 -31.129  1.00  0.00     0.004 A 
HETATM   20  C   UNL     1      -4.540   0.773 -31.168  1.00  0.00     0.017 A 
BRANCH  17  21
HETATM   21  O   UNL     1      -4.117  -2.699 -33.420  1.00  0.00    -0.351 OA
BRANCH  21  22
HETATM   22  C   UNL     1      -4.691  -2.624 -34.729  1.00  0.00     0.179 C 
BRANCH  22  23
HETATM   23  C   UNL     1      -5.418  -3.946 -35.018  1.00  0.00     0.002 C 
HETATM   24  C   UNL     1      -6.902  -3.832 -34.677  1.00  0.00     0.011 C 
HETATM   25  C   UNL     1      -4.787  -5.107 -34.245  1.00  0.00     0.011 C 
ENDBRANCH  22  23
ENDBRANCH  21  22
ENDBRANCH  17  21
ENDBRANCH  12  15
ENDBRANCH   9  11
ENDBRANCH   7   9
ENDBRANCH   1   7
BRANCH   4  26
HETATM   26  N   UNL     1      -3.024   7.126 -32.500  1.00  0.00    -0.378 N 
HETATM   27  C   UNL     1      -1.677   6.935 -33.081  1.00  0.00     0.150 C 
HETATM   28  C   UNL     1      -0.796   6.098 -32.129  1.00  0.00     0.255 C 
HETATM   29  N   UNL     1      -0.736   6.752 -30.743  1.00  0.00    -0.064 N 
HETATM   30  H   UNL     1      -0.301   7.673 -30.872  1.00  0.00     0.280 HD
HETATM   31  C   UNL     1      -2.144   6.986 -30.186  1.00  0.00     0.255 C 
HETATM   32  C   UNL     1      -2.990   7.799 -31.189  1.00  0.00     0.150 C 
BRANCH  29  33
HETATM   33  C   UNL     1       0.132   5.988 -29.777  1.00  0.00     0.273 C 
BRANCH  33  34
HETATM   34  C   UNL     1       0.510   6.803 -28.570  1.00  0.00    -0.033 A 
HETATM   35  C   UNL     1       0.188   6.353 -27.279  1.00  0.00     0.009 A 
HETATM   36  C   UNL     1       0.508   7.125 -26.161  1.00  0.00     0.001 A 
HETATM   37  C   UNL     1       1.149   8.352 -26.320  1.00  0.00     0.000 A 
HETATM   38  C   UNL     1       1.475   8.808 -27.595  1.00  0.00     0.001 A 
HETATM   39  C   UNL     1       1.160   8.038 -28.716  1.00  0.00     0.009 A 
ENDBRANCH  33  34
ENDBRANCH  29  33
ENDBRANCH   4  26
TORSDOF 10
ENDMDL
MODEL 3
REMARK VINA RESULT:      -9.0      2.163      3.816
REMARK  10 active torsions:
REMARK  status: ('A' for Active; 'I' for Inactive)
REMARK    1  A    between atoms: C_2  and  C_3 
REMARK    2  A    between atoms: C_3  and  O_4 
REMARK    3  A    between atoms: O_4  and  C_5 
REMARK    4  A    between atoms: C_7  and  C_8 
REMARK       I    between atoms: C_8  and  N_9 
REMARK    5  A    between atoms: N_9  and  C_10 
REMARK    6  A    between atoms: C_10  and  N_11 
REMARK    7  A    between atoms: N_11  and  C_12 
REMARK    8  A    between atoms: C_15  and  N_16 
REMARK    9  A    between atoms: N_19  and  C_21 
REMARK   10  A    between atoms: C_21  and  C_22 
ROOT
HETATM    1  C   UNL     1      -5.318   6.354 -28.933  1.00  0.00     0.034 A 
HETATM    2  C   UNL     1      -6.345   5.515 -28.502  1.00  0.00     0.032 A 
HETATM    3  C   UNL     1      -6.875   4.528 -29.346  1.00  0.00     0.031 A 
HETATM    4  C   UNL     1      -6.391   4.309 -30.643  1.00  0.00     0.030 A 
HETATM    5  C   UNL     1      -5.348   5.161 -31.049  1.00  0.00     0.031 A 
HETATM    6  C   UNL     1      -4.822   6.171 -30.215  1.00  0.00     0.032 A 
ENDROOT
BRANCH   1   7
HETATM    7  N   UNL     1      -4.961   7.407 -28.064  1.00  0.00    -0.333 N 
HETATM    8  H   UNL     1      -5.316   8.311 -28.361  1.00  0.00     0.168 HD
BRANCH   7   9
HETATM    9  C   UNL     1      -3.922   7.535 -27.219  1.00  0.00     0.179 C 
HETATM   10  S   UNL     1      -4.223   8.172 -25.697  1.00  0.00    -0.040 SA
BRANCH   9  11
HETATM   11  N   UNL     1      -2.656   7.126 -27.475  1.00  0.00    -0.299 N 
HETATM   12  C   UNL     1      -1.811   7.606 -28.475  1.00  0.00     0.257 C 
HETATM   13  O   UNL     1      -1.703   8.778 -28.819  1.00  0.00    -0.267 OA
HETATM   14  H   UNL     1      -2.633   6.122 -27.358  1.00  0.00     0.171 HD
BRANCH  12  15
HETATM   15  C   UNL     1      -0.949   6.574 -29.141  1.00  0.00     0.035 A 
HETATM   16  C   UNL     1      -1.155   6.132 -30.455  1.00  0.00     0.053 A 
HETATM   17  C   UNL     1      -0.275   5.222 -31.055  1.00  0.00     0.069 A 
HETATM   18  C   UNL     1       0.808   4.731 -30.328  1.00  0.00     0.037 A 
HETATM   19  C   UNL     1       1.006   5.140 -29.007  1.00  0.00     0.004 A 
HETATM   20  C   UNL     1       0.134   6.057 -28.415  1.00  0.00     0.017 A 
BRANCH  17  21
HETATM   21  O   UNL     1      -0.583   4.916 -32.352  1.00  0.00    -0.351 OA
BRANCH  21  22
HETATM   22  C   UNL     1      -1.967   4.864 -32.710  1.00  0.00     0.179 C 
BRANCH  22  23
HETATM   23  C   UNL     1      -2.142   5.554 -34.072  1.00  0.00     0.002 C 
HETATM   24  C   UNL     1      -1.902   7.057 -33.952  1.00  0.00     0.011 C 
HETATM   25  C   UNL     1      -3.532   5.286 -34.655  1.00  0.00     0.011 C 
ENDBRANCH  22  23
ENDBRANCH  21  22
ENDBRANCH  17  21
ENDBRANCH  12  15
ENDBRANCH   9  11
ENDBRANCH   7   9
ENDBRANCH   1   7
BRANCH   4  26
HETATM   26  N   UNL     1      -6.975   3.355 -31.480  1.00  0.00    -0.378 N 
HETATM   27  C   UNL     1      -7.388   2.053 -30.914  1.00  0.00     0.150 C 
HETATM   28  C   UNL     1      -6.253   1.019 -31.064  1.00  0.00     0.255 C 
HETATM   29  N   UNL     1      -5.831   0.898 -32.533  1.00  0.00    -0.064 N 
HETATM   30  H   UNL     1      -6.653   0.563 -33.048  1.00  0.00     0.280 HD
HETATM   31  C   UNL     1      -5.457   2.267 -33.111  1.00  0.00     0.255 C 
HETATM   32  C   UNL     1      -6.613   3.269 -32.907  1.00  0.00     0.150 C 
BRANCH  29  33
HETATM   33  C   UNL     1      -4.738  -0.119 -32.742  1.00  0.00     0.273 C 
BRANCH  33  34
HETATM   34  C   UNL     1      -5.208  -1.324 -33.511  1.00  0.00    -0.033 A 
HETATM   35  C   UNL     1      -6.561  -1.459 -33.862  1.00  0.00     0.009 A 
HETATM   36  C   UNL     1      -7.005  -2.592 -34.545  1.00  0.00     0.001 A 
HETATM   37  C   UNL     1      -6.105  -3.601 -34.882  1.00  0.00     0.000 A 
HETATM   38  C   UNL     1      -4.760  -3.478 -34.541  1.00  0.00     0.001 A 
HETATM   39  C   UNL     1      -4.311  -2.344 -33.861  1.00  0.00     0.009 A 
ENDBRANCH  33  34
ENDBRANCH  29  33
ENDBRANCH   4  26
TORSDOF 10
ENDMDL
MODEL 4
REMARK VINA RESULT:      -8.8      2.682      4.331
REMARK  10 active torsions:
REMARK  status: ('A' for Active; 'I' for Inactive)
REMARK    1  A    between atoms: C_2  and  C_3 
REMARK    2  A    between atoms: C_3  and  O_4 
REMARK    3  A    between atoms: O_4  and  C_5 
REMARK    4  A    between atoms: C_7  and  C_8 
REMARK       I    between atoms: C_8  and  N_9 
REMARK    5  A    between atoms: N_9  and  C_10 
REMARK    6  A    between atoms: C_10  and  N_11 
REMARK    7  A    between atoms: N_11  and  C_12 
REMARK    8  A    between atoms: C_15  and  N_16 
REMARK    9  A    between atoms: N_19  and  C_21 
REMARK   10  A    between atoms: C_21  and  C_22 
ROOT
HETATM    1  C   UNL     1      -9.394   5.163 -30.981  1.00  0.00     0.034 A 
HETATM    2  C   UNL     1      -9.592   5.065 -32.357  1.00  0.00     0.032 A 
HETATM    3  C   UNL     1      -9.689   3.815 -32.987  1.00  0.00     0.031 A 
HETATM    4  C   UNL     1      -9.624   2.608 -32.277  1.00  0.00     0.030 A 
HETATM    5  C   UNL     1      -9.435   2.736 -30.889  1.00  0.00     0.031 A 
HETATM    6  C   UNL     1      -9.316   3.987 -30.249  1.00  0.00     0.032 A 
ENDROOT
BRANCH   1   7
HETATM    7  N   UNL     1      -9.162   6.457 -30.471  1.00  0.00    -0.333 N 
HETATM    8  H   UNL     1      -9.879   7.127 -30.731  1.00  0.00     0.168 HD
BRANCH   7   9
HETATM    9  C   UNL     1      -8.018   7.070 -30.115  1.00  0.00     0.179 C 
HETATM   10  S   UNL     1      -8.132   8.502 -29.249  1.00  0.00    -0.040 SA
BRANCH   9  11
HETATM   11  N   UNL     1      -6.773   6.586 -30.343  1.00  0.00    -0.299 N 
HETATM   12  C   UNL     1      -6.190   6.337 -31.584  1.00  0.00     0.257 C 
HETATM   13  O   UNL     1      -6.304   7.040 -32.582  1.00  0.00    -0.267 OA
HETATM   14  H   UNL     1      -6.595   5.873 -29.649  1.00  0.00     0.171 HD
BRANCH  12  15
HETATM   15  C   UNL     1      -5.326   5.112 -31.657  1.00  0.00     0.035 A 
HETATM   16  C   UNL     1      -3.932   5.145 -31.513  1.00  0.00     0.053 A 
HETATM   17  C   UNL     1      -3.180   3.964 -31.513  1.00  0.00     0.069 A 
HETATM   18  C   UNL     1      -3.822   2.739 -31.682  1.00  0.00     0.037 A 
HETATM   19  C   UNL     1      -5.207   2.696 -31.857  1.00  0.00     0.004 A 
HETATM   20  C   UNL     1      -5.957   3.875 -31.845  1.00  0.00     0.017 A 
BRANCH  17  21
HETATM   21  O   UNL     1      -1.839   4.153 -31.323  1.00  0.00    -0.351 OA
BRANCH  21  22
HETATM   22  C   UNL     1      -1.361   5.501 -31.258  1.00  0.00     0.179 C 
BRANCH  22  23
HETATM   23  C   UNL     1       0.170   5.468 -31.132  1.00  0.00     0.002 C 
HETATM   24  C   UNL     1       0.591   4.803 -29.823  1.00  0.00     0.011 C 
HETATM   25  C   UNL     1       0.765   6.875 -31.224  1.00  0.00     0.011 C 
ENDBRANCH  22  23
ENDBRANCH  21  22
ENDBRANCH  17  21
ENDBRANCH  12  15
ENDBRANCH   9  11
ENDBRANCH   7   9
ENDBRANCH   1   7
BRANCH   4  26
HETATM   26  N   UNL     1      -9.668   1.379 -32.938  1.00  0.00    -0.378 N 
HETATM   27  C   UNL     1      -9.261   0.155 -32.214  1.00  0.00     0.150 C 
HETATM   28  C   UNL     1      -7.764  -0.136 -32.452  1.00  0.00     0.255 C 
HETATM   29  N   UNL     1      -7.471  -0.232 -33.954  1.00  0.00    -0.064 N 
HETATM   30  H   UNL     1      -8.021  -1.022 -34.310  1.00  0.00     0.280 HD
HETATM   31  C   UNL     1      -7.948   1.025 -34.688  1.00  0.00     0.255 C 
HETATM   32  C   UNL     1      -9.440   1.286 -34.391  1.00  0.00     0.150 C 
BRANCH  29  33
HETATM   33  C   UNL     1      -6.024  -0.539 -34.246  1.00  0.00     0.273 C 
BRANCH  33  34
HETATM   34  C   UNL     1      -5.759  -2.015 -34.367  1.00  0.00    -0.033 A 
HETATM   35  C   UNL     1      -6.798  -2.899 -34.701  1.00  0.00     0.009 A 
HETATM   36  C   UNL     1      -6.561  -4.272 -34.780  1.00  0.00     0.001 A 
HETATM   37  C   UNL     1      -5.288  -4.776 -34.525  1.00  0.00     0.000 A 
HETATM   38  C   UNL     1      -4.249  -3.910 -34.194  1.00  0.00     0.001 A 
HETATM   39  C   UNL     1      -4.480  -2.536 -34.117  1.00  0.00     0.009 A 
ENDBRANCH  33  34
ENDBRANCH  29  33
ENDBRANCH   4  26
TORSDOF 10
ENDMDL
MODEL 5
REMARK VINA RESULT:      -8.7      1.483      2.006
REMARK  10 active torsions:
REMARK  status: ('A' for Active; 'I' for Inactive)
REMARK    1  A    between atoms: C_2  and  C_3 
REMARK    2  A    between atoms: C_3  and  O_4 
REMARK    3  A    between atoms: O_4  and  C_5 
REMARK    4  A    between atoms: C_7  and  C_8 
REMARK       I    between atoms: C_8  and  N_9 
REMARK    5  A    between atoms: N_9  and  C_10 
REMARK    6  A    between atoms: C_10  and  N_11 
REMARK    7  A    between atoms: N_11  and  C_12 
REMARK    8  A    between atoms: C_15  and  N_16 
REMARK    9  A    between atoms: N_19  and  C_21 
REMARK   10  A    between atoms: C_21  and  C_22 
ROOT
HETATM    1  C   UNL     1      -6.679   5.294 -30.106  1.00  0.00     0.034 A 
HETATM    2  C   UNL     1      -7.977   4.823 -30.300  1.00  0.00     0.032 A 
HETATM    3  C   UNL     1      -8.233   3.454 -30.470  1.00  0.00     0.031 A 
HETATM    4  C   UNL     1      -7.217   2.489 -30.425  1.00  0.00     0.030 A 
HETATM    5  C   UNL     1      -5.919   2.990 -30.217  1.00  0.00     0.031 A 
HETATM    6  C   UNL     1      -5.649   4.366 -30.066  1.00  0.00     0.032 A 
ENDROOT
BRANCH   1   7
HETATM    7  N   UNL     1      -6.515   6.695 -30.096  1.00  0.00    -0.333 N 
HETATM    8  H   UNL     1      -7.129   7.167 -29.440  1.00  0.00     0.168 HD
BRANCH   7   9
HETATM    9  C   UNL     1      -6.067   7.535 -31.047  1.00  0.00     0.179 C 
HETATM   10  S   UNL     1      -7.172   8.579 -31.756  1.00  0.00    -0.040 SA
BRANCH   9  11
HETATM   11  N   UNL     1      -4.773   7.653 -31.434  1.00  0.00    -0.299 N 
HETATM   12  C   UNL     1      -4.081   6.806 -32.298  1.00  0.00     0.257 C 
HETATM   13  O   UNL     1      -4.535   6.295 -33.316  1.00  0.00    -0.267 OA
HETATM   14  H   UNL     1      -4.243   7.947 -30.626  1.00  0.00     0.171 HD
BRANCH  12  15
HETATM   15  C   UNL     1      -2.647   6.550 -31.938  1.00  0.00     0.035 A 
HETATM   16  C   UNL     1      -1.974   7.243 -30.922  1.00  0.00     0.053 A 
HETATM   17  C   UNL     1      -0.659   6.914 -30.574  1.00  0.00     0.069 A 
HETATM   18  C   UNL     1       0.001   5.897 -31.263  1.00  0.00     0.037 A 
HETATM   19  C   UNL     1      -0.649   5.219 -32.297  1.00  0.00     0.004 A 
HETATM   20  C   UNL     1      -1.966   5.542 -32.634  1.00  0.00     0.017 A 
BRANCH  17  21
HETATM   21  O   UNL     1      -0.150   7.650 -29.540  1.00  0.00    -0.351 OA
BRANCH  21  22
HETATM   22  C   UNL     1       0.765   7.002 -28.651  1.00  0.00     0.179 C 
BRANCH  22  23
HETATM   23  C   UNL     1       0.398   7.389 -27.210  1.00  0.00     0.002 C 
HETATM   24  C   UNL     1       1.652   7.731 -26.407  1.00  0.00     0.011 C 
HETATM   25  C   UNL     1      -0.385   6.272 -26.517  1.00  0.00     0.011 C 
ENDBRANCH  22  23
ENDBRANCH  21  22
ENDBRANCH  17  21
ENDBRANCH  12  15
ENDBRANCH   9  11
ENDBRANCH   7   9
ENDBRANCH   1   7
BRANCH   4  26
HETATM   26  N   UNL     1      -7.493   1.139 -30.652  1.00  0.00    -0.378 N 
HETATM   27  C   UNL     1      -6.426   0.137 -30.441  1.00  0.00     0.150 C 
HETATM   28  C   UNL     1      -5.671  -0.128 -31.762  1.00  0.00     0.255 C 
HETATM   29  N   UNL     1      -6.651  -0.555 -32.860  1.00  0.00    -0.064 N 
HETATM   30  H   UNL     1      -7.082  -1.432 -32.545  1.00  0.00     0.280 HD
HETATM   31  C   UNL     1      -7.775   0.473 -33.023  1.00  0.00     0.255 C 
HETATM   32  C   UNL     1      -8.475   0.723 -31.670  1.00  0.00     0.150 C 
BRANCH  29  33
HETATM   33  C   UNL     1      -5.964  -0.851 -34.169  1.00  0.00     0.273 C 
BRANCH  33  34
HETATM   34  C   UNL     1      -5.648  -2.312 -34.339  1.00  0.00    -0.033 A 
HETATM   35  C   UNL     1      -6.628  -3.201 -34.809  1.00  0.00     0.009 A 
HETATM   36  C   UNL     1      -6.346  -4.562 -34.934  1.00  0.00     0.001 A 
HETATM   37  C   UNL     1      -5.086  -5.049 -34.591  1.00  0.00     0.000 A 
HETATM   38  C   UNL     1      -4.105  -4.177 -34.126  1.00  0.00     0.001 A 
HETATM   39  C   UNL     1      -4.381  -2.814 -34.002  1.00  0.00     0.009 A 
ENDBRANCH  33  34
ENDBRANCH  29  33
ENDBRANCH   4  26
TORSDOF 10
ENDMDL
MODEL 6
REMARK VINA RESULT:      -8.5      2.318      3.910
REMARK  10 active torsions:
REMARK  status: ('A' for Active; 'I' for Inactive)
REMARK    1  A    between atoms: C_2  and  C_3 
REMARK    2  A    between atoms: C_3  and  O_4 
REMARK    3  A    between atoms: O_4  and  C_5 
REMARK    4  A    between atoms: C_7  and  C_8 
REMARK       I    between atoms: C_8  and  N_9 
REMARK    5  A    between atoms: N_9  and  C_10 
REMARK    6  A    between atoms: C_10  and  N_11 
REMARK    7  A    between atoms: N_11  and  C_12 
REMARK    8  A    between atoms: C_15  and  N_16 
REMARK    9  A    between atoms: N_19  and  C_21 
REMARK   10  A    between atoms: C_21  and  C_22 
ROOT
HETATM    1  C   UNL     1      -5.675   7.142 -28.591  1.00  0.00     0.034 A 
HETATM    2  C   UNL     1      -5.301   7.597 -29.854  1.00  0.00     0.032 A 
HETATM    3  C   UNL     1      -4.991   6.697 -30.885  1.00  0.00     0.031 A 
HETATM    4  C   UNL     1      -5.067   5.307 -30.718  1.00  0.00     0.030 A 
HETATM    5  C   UNL     1      -5.457   4.875 -29.437  1.00  0.00     0.031 A 
HETATM    6  C   UNL     1      -5.750   5.772 -28.388  1.00  0.00     0.032 A 
ENDROOT
BRANCH   1   7
HETATM    7  N   UNL     1      -5.819   8.123 -27.588  1.00  0.00    -0.333 N 
HETATM    8  H   UNL     1      -6.625   8.724 -27.726  1.00  0.00     0.168 HD
BRANCH   7   9
HETATM    9  C   UNL     1      -4.908   8.695 -26.779  1.00  0.00     0.179 C 
HETATM   10  S   UNL     1      -5.466   9.661 -25.527  1.00  0.00    -0.040 SA
BRANCH   9  11
HETATM   11  N   UNL     1      -3.569   8.498 -26.855  1.00  0.00    -0.299 N 
HETATM   12  C   UNL     1      -2.671   9.184 -27.672  1.00  0.00     0.257 C 
HETATM   13  O   UNL     1      -2.698  10.385 -27.915  1.00  0.00    -0.267 OA
HETATM   14  H   UNL     1      -3.407   7.503 -26.802  1.00  0.00     0.171 HD
BRANCH  12  15
HETATM   15  C   UNL     1      -1.567   8.352 -28.256  1.00  0.00     0.035 A 
HETATM   16  C   UNL     1      -1.794   7.268 -29.116  1.00  0.00     0.053 A 
HETATM   17  C   UNL     1      -0.726   6.572 -29.694  1.00  0.00     0.069 A 
HETATM   18  C   UNL     1       0.582   6.944 -29.393  1.00  0.00     0.037 A 
HETATM   19  C   UNL     1       0.822   8.003 -28.513  1.00  0.00     0.004 A 
HETATM   20  C   UNL     1      -0.246   8.704 -27.947  1.00  0.00     0.017 A 
BRANCH  17  21
HETATM   21  O   UNL     1      -1.105   5.566 -30.541  1.00  0.00    -0.351 OA
BRANCH  21  22
HETATM   22  C   UNL     1      -0.553   5.568 -31.861  1.00  0.00     0.179 C 
BRANCH  22  23
HETATM   23  C   UNL     1      -1.643   6.028 -32.842  1.00  0.00     0.002 C 
HETATM   24  C   UNL     1      -1.556   5.247 -34.152  1.00  0.00     0.011 C 
HETATM   25  C   UNL     1      -1.545   7.531 -33.116  1.00  0.00     0.011 C 
ENDBRANCH  22  23
ENDBRANCH  21  22
ENDBRANCH  17  21
ENDBRANCH  12  15
ENDBRANCH   9  11
ENDBRANCH   7   9
ENDBRANCH   1   7
BRANCH   4  26
HETATM   26  N   UNL     1      -4.700   4.436 -31.745  1.00  0.00    -0.378 N 
HETATM   27  C   UNL     1      -5.669   4.139 -32.822  1.00  0.00     0.150 C 
HETATM   28  C   UNL     1      -6.483   2.874 -32.477  1.00  0.00     0.255 C 
HETATM   29  N   UNL     1      -5.545   1.692 -32.207  1.00  0.00    -0.064 N 
HETATM   30  H   UNL     1      -5.027   1.524 -33.077  1.00  0.00     0.280 HD
HETATM   31  C   UNL     1      -4.519   2.042 -31.125  1.00  0.00     0.255 C 
HETATM   32  C   UNL     1      -3.756   3.329 -31.505  1.00  0.00     0.150 C 
BRANCH  29  33
HETATM   33  C   UNL     1      -6.290   0.421 -31.887  1.00  0.00     0.273 C 
BRANCH  33  34
HETATM   34  C   UNL     1      -6.043  -0.664 -32.901  1.00  0.00    -0.033 A 
HETATM   35  C   UNL     1      -7.101  -1.165 -33.677  1.00  0.00     0.009 A 
HETATM   36  C   UNL     1      -6.880  -2.194 -34.593  1.00  0.00     0.001 A 
HETATM   37  C   UNL     1      -5.604  -2.734 -34.742  1.00  0.00     0.000 A 
HETATM   38  C   UNL     1      -4.547  -2.244 -33.980  1.00  0.00     0.001 A 
HETATM   39  C   UNL     1      -4.762  -1.213 -33.065  1.00  0.00     0.009 A 
ENDBRANCH  33  34
ENDBRANCH  29  33
ENDBRANCH   4  26
TORSDOF 10
ENDMDL
MODEL 7
REMARK VINA RESULT:      -8.5      4.166      9.263
REMARK  10 active torsions:
REMARK  status: ('A' for Active; 'I' for Inactive)
REMARK    1  A    between atoms: C_2  and  C_3 
REMARK    2  A    between atoms: C_3  and  O_4 
REMARK    3  A    between atoms: O_4  and  C_5 
REMARK    4  A    between atoms: C_7  and  C_8 
REMARK       I    between atoms: C_8  and  N_9 
REMARK    5  A    between atoms: N_9  and  C_10 
REMARK    6  A    between atoms: C_10  and  N_11 
REMARK    7  A    between atoms: N_11  and  C_12 
REMARK    8  A    between atoms: C_15  and  N_16 
REMARK    9  A    between atoms: N_19  and  C_21 
REMARK   10  A    between atoms: C_21  and  C_22 
ROOT
HETATM    1  C   UNL     1     -10.144   3.659 -31.484  1.00  0.00     0.034 A 
HETATM    2  C   UNL     1      -9.988   5.029 -31.693  1.00  0.00     0.032 A 
HETATM    3  C   UNL     1      -8.926   5.734 -31.107  1.00  0.00     0.031 A 
HETATM    4  C   UNL     1      -7.956   5.107 -30.313  1.00  0.00     0.030 A 
HETATM    5  C   UNL     1      -8.131   3.723 -30.127  1.00  0.00     0.031 A 
HETATM    6  C   UNL     1      -9.207   3.009 -30.695  1.00  0.00     0.032 A 
ENDROOT
BRANCH   1   7
HETATM    7  N   UNL     1     -11.324   3.077 -31.995  1.00  0.00    -0.333 N 
HETATM    8  H   UNL     1     -12.005   2.854 -31.276  1.00  0.00     0.168 HD
BRANCH   7   9
HETATM    9  C   UNL     1     -11.541   2.372 -33.120  1.00  0.00     0.179 C 
HETATM   10  S   UNL     1     -13.051   2.489 -33.840  1.00  0.00    -0.040 SA
BRANCH   9  11
HETATM   11  N   UNL     1     -10.611   1.621 -33.759  1.00  0.00    -0.299 N 
HETATM   12  C   UNL     1     -10.078   0.408 -33.326  1.00  0.00     0.257 C 
HETATM   13  O   UNL     1     -10.703  -0.494 -32.779  1.00  0.00    -0.267 OA
HETATM   14  H   UNL     1      -9.932   2.256 -34.156  1.00  0.00     0.171 HD
BRANCH  12  15
HETATM   15  C   UNL     1      -8.617   0.210 -33.604  1.00  0.00     0.035 A 
HETATM   16  C   UNL     1      -7.678  -0.091 -32.607  1.00  0.00     0.053 A 
HETATM   17  C   UNL     1      -6.339  -0.340 -32.930  1.00  0.00     0.069 A 
HETATM   18  C   UNL     1      -5.926  -0.265 -34.259  1.00  0.00     0.037 A 
HETATM   19  C   UNL     1      -6.845   0.064 -35.258  1.00  0.00     0.004 A 
HETATM   20  C   UNL     1      -8.184   0.300 -34.934  1.00  0.00     0.017 A 
BRANCH  17  21
HETATM   21  O   UNL     1      -5.553  -0.659 -31.857  1.00  0.00    -0.351 OA
BRANCH  21  22
HETATM   22  C   UNL     1      -5.216   0.392 -30.946  1.00  0.00     0.179 C 
BRANCH  22  23
HETATM   23  C   UNL     1      -3.722   0.714 -31.106  1.00  0.00     0.002 C 
HETATM   24  C   UNL     1      -3.523   1.908 -32.036  1.00  0.00     0.011 C 
HETATM   25  C   UNL     1      -2.947  -0.498 -31.629  1.00  0.00     0.011 C 
ENDBRANCH  22  23
ENDBRANCH  21  22
ENDBRANCH  17  21
ENDBRANCH  12  15
ENDBRANCH   9  11
ENDBRANCH   7   9
ENDBRANCH   1   7
BRANCH   4  26
HETATM   26  N   UNL     1      -6.941   5.843 -29.697  1.00  0.00    -0.378 N 
HETATM   27  C   UNL     1      -6.803   7.283 -30.008  1.00  0.00     0.150 C 
HETATM   28  C   UNL     1      -5.805   7.487 -31.168  1.00  0.00     0.255 C 
HETATM   29  N   UNL     1      -4.456   6.839 -30.832  1.00  0.00    -0.064 N 
HETATM   30  H   UNL     1      -4.098   7.322 -30.000  1.00  0.00     0.280 HD
HETATM   31  C   UNL     1      -4.633   5.363 -30.464  1.00  0.00     0.255 C 
HETATM   32  C   UNL     1      -5.662   5.214 -29.323  1.00  0.00     0.150 C 
BRANCH  29  33
HETATM   33  C   UNL     1      -3.433   7.029 -31.923  1.00  0.00     0.273 C 
BRANCH  33  34
HETATM   34  C   UNL     1      -2.046   6.641 -31.488  1.00  0.00    -0.033 A 
HETATM   35  C   UNL     1      -1.362   7.405 -30.529  1.00  0.00     0.009 A 
HETATM   36  C   UNL     1      -0.063   7.065 -30.149  1.00  0.00     0.001 A 
HETATM   37  C   UNL     1       0.567   5.963 -30.725  1.00  0.00     0.000 A 
HETATM   38  C   UNL     1      -0.101   5.197 -31.676  1.00  0.00     0.001 A 
HETATM   39  C   UNL     1      -1.402   5.530 -32.056  1.00  0.00     0.009 A 
ENDBRANCH  33  34
ENDBRANCH  29  33
ENDBRANCH   4  26
TORSDOF 10
ENDMDL
MODEL 8
REMARK VINA RESULT:      -8.3      4.016      7.681
REMARK  10 active torsions:
REMARK  status: ('A' for Active; 'I' for Inactive)
REMARK    1  A    between atoms: C_2  and  C_3 
REMARK    2  A    between atoms: C_3  and  O_4 
REMARK    3  A    between atoms: O_4  and  C_5 
REMARK    4  A    between atoms: C_7  and  C_8 
REMARK       I    between atoms: C_8  and  N_9 
REMARK    5  A    between atoms: N_9  and  C_10 
REMARK    6  A    between atoms: C_10  and  N_11 
REMARK    7  A    between atoms: N_11  and  C_12 
REMARK    8  A    between atoms: C_15  and  N_16 
REMARK    9  A    between atoms: N_19  and  C_21 
REMARK   10  A    between atoms: C_21  and  C_22 
ROOT
HETATM    1  C   UNL     1      -4.767   6.067 -30.392  1.00  0.00     0.034 A 
HETATM    2  C   UNL     1      -5.311   6.214 -31.667  1.00  0.00     0.032 A 
HETATM    3  C   UNL     1      -6.685   6.038 -31.892  1.00  0.00     0.031 A 
HETATM    4  C   UNL     1      -7.583   5.739 -30.858  1.00  0.00     0.030 A 
HETATM    5  C   UNL     1      -7.009   5.608 -29.580  1.00  0.00     0.031 A 
HETATM    6  C   UNL     1      -5.626   5.762 -29.348  1.00  0.00     0.032 A 
ENDROOT
BRANCH   1   7
HETATM    7  N   UNL     1      -3.360   6.117 -30.301  1.00  0.00    -0.333 N 
HETATM    8  H   UNL     1      -3.004   7.039 -30.067  1.00  0.00     0.168 HD
BRANCH   7   9
HETATM    9  C   UNL     1      -2.413   5.353 -30.876  1.00  0.00     0.179 C 
HETATM   10  S   UNL     1      -0.974   6.090 -31.324  1.00  0.00    -0.040 SA
BRANCH   9  11
HETATM   11  N   UNL     1      -2.504   4.014 -31.063  1.00  0.00    -0.299 N 
HETATM   12  C   UNL     1      -3.035   3.361 -32.175  1.00  0.00     0.257 C 
HETATM   13  O   UNL     1      -2.892   3.705 -33.343  1.00  0.00    -0.267 OA
HETATM   14  H   UNL     1      -2.759   3.601 -30.177  1.00  0.00     0.171 HD
BRANCH  12  15
HETATM   15  C   UNL     1      -3.815   2.114 -31.878  1.00  0.00     0.035 A 
HETATM   16  C   UNL     1      -5.184   1.981 -32.145  1.00  0.00     0.053 A 
HETATM   17  C   UNL     1      -5.848   0.769 -31.919  1.00  0.00     0.069 A 
HETATM   18  C   UNL     1      -5.144  -0.314 -31.398  1.00  0.00     0.037 A 
HETATM   19  C   UNL     1      -3.786  -0.185 -31.099  1.00  0.00     0.004 A 
HETATM   20  C   UNL     1      -3.123   1.021 -31.337  1.00  0.00     0.017 A 
BRANCH  17  21
HETATM   21  O   UNL     1      -7.172   0.781 -32.265  1.00  0.00    -0.351 OA
BRANCH  21  22
HETATM   22  C   UNL     1      -7.661  -0.309 -33.052  1.00  0.00     0.179 C 
BRANCH  22  23
HETATM   23  C   UNL     1      -6.754  -0.464 -34.283  1.00  0.00     0.002 C 
HETATM   24  C   UNL     1      -7.332   0.290 -35.479  1.00  0.00     0.011 C 
HETATM   25  C   UNL     1      -6.549  -1.939 -34.638  1.00  0.00     0.011 C 
ENDBRANCH  22  23
ENDBRANCH  21  22
ENDBRANCH  17  21
ENDBRANCH  12  15
ENDBRANCH   9  11
ENDBRANCH   7   9
ENDBRANCH   1   7
BRANCH   4  26
HETATM   26  N   UNL     1      -8.936   5.516 -31.120  1.00  0.00    -0.378 N 
HETATM   27  C   UNL     1      -9.586   4.302 -30.579  1.00  0.00     0.150 C 
HETATM   28  C   UNL     1      -9.528   3.157 -31.613  1.00  0.00     0.255 C 
HETATM   29  N   UNL     1     -10.156   3.602 -32.939  1.00  0.00    -0.064 N 
HETATM   30  H   UNL     1     -11.140   3.818 -32.740  1.00  0.00     0.280 HD
HETATM   31  C   UNL     1      -9.501   4.889 -33.452  1.00  0.00     0.255 C 
HETATM   32  C   UNL     1      -9.559   5.989 -32.370  1.00  0.00     0.150 C 
BRANCH  29  33
HETATM   33  C   UNL     1     -10.148   2.513 -33.981  1.00  0.00     0.273 C 
BRANCH  33  34
HETATM   34  C   UNL     1     -11.434   1.732 -34.010  1.00  0.00    -0.033 A 
HETATM   35  C   UNL     1     -11.501   0.451 -33.438  1.00  0.00     0.009 A 
HETATM   36  C   UNL     1     -12.684  -0.287 -33.494  1.00  0.00     0.001 A 
HETATM   37  C   UNL     1     -13.809   0.243 -34.124  1.00  0.00     0.000 A 
HETATM   38  C   UNL     1     -13.755   1.512 -34.694  1.00  0.00     0.001 A 
HETATM   39  C   UNL     1     -12.575   2.256 -34.637  1.00  0.00     0.009 A 
ENDBRANCH  33  34
ENDBRANCH  29  33
ENDBRANCH   4  26
TORSDOF 10
ENDMDL
MODEL 9
REMARK VINA RESULT:      -8.3      4.362     10.256
REMARK  10 active torsions:
REMARK  status: ('A' for Active; 'I' for Inactive)
REMARK    1  A    between atoms: C_2  and  C_3 
REMARK    2  A    between atoms: C_3  and  O_4 
REMARK    3  A    between atoms: O_4  and  C_5 
REMARK    4  A    between atoms: C_7  and  C_8 
REMARK       I    between atoms: C_8  and  N_9 
REMARK    5  A    between atoms: N_9  and  C_10 
REMARK    6  A    between atoms: C_10  and  N_11 
REMARK    7  A    between atoms: N_11  and  C_12 
REMARK    8  A    between atoms: C_15  and  N_16 
REMARK    9  A    between atoms: N_19  and  C_21 
REMARK   10  A    between atoms: C_21  and  C_22 
ROOT
HETATM    1  C   UNL     1     -10.254   3.936 -31.247  1.00  0.00     0.034 A 
HETATM    2  C   UNL     1     -10.119   5.324 -31.247  1.00  0.00     0.032 A 
HETATM    3  C   UNL     1      -9.004   5.942 -30.661  1.00  0.00     0.031 A 
HETATM    4  C   UNL     1      -7.960   5.211 -30.078  1.00  0.00     0.030 A 
HETATM    5  C   UNL     1      -8.116   3.813 -30.102  1.00  0.00     0.031 A 
HETATM    6  C   UNL     1      -9.244   3.183 -30.669  1.00  0.00     0.032 A 
ENDROOT
BRANCH   1   7
HETATM    7  N   UNL     1     -11.479   3.425 -31.726  1.00  0.00    -0.333 N 
HETATM    8  H   UNL     1     -12.134   3.190 -30.986  1.00  0.00     0.168 HD
BRANCH   7   9
HETATM    9  C   UNL     1     -11.778   2.787 -32.873  1.00  0.00     0.179 C 
HETATM   10  S   UNL     1     -13.344   2.917 -33.459  1.00  0.00    -0.040 SA
BRANCH   9  11
HETATM   11  N   UNL     1     -10.891   2.098 -33.632  1.00  0.00    -0.299 N 
HETATM   12  C   UNL     1     -10.442   0.796 -33.414  1.00  0.00     0.257 C 
HETATM   13  O   UNL     1     -11.129  -0.143 -33.028  1.00  0.00    -0.267 OA
HETATM   14  H   UNL     1     -10.169   2.745 -33.916  1.00  0.00     0.171 HD
BRANCH  12  15
HETATM   15  C   UNL     1      -8.994   0.554 -33.724  1.00  0.00     0.035 A 
HETATM   16  C   UNL     1      -8.390  -0.708 -33.636  1.00  0.00     0.053 A 
HETATM   17  C   UNL     1      -7.053  -0.894 -34.010  1.00  0.00     0.069 A 
HETATM   18  C   UNL     1      -6.305   0.195 -34.453  1.00  0.00     0.037 A 
HETATM   19  C   UNL     1      -6.887   1.463 -34.516  1.00  0.00     0.004 A 
HETATM   20  C   UNL     1      -8.224   1.643 -34.154  1.00  0.00     0.017 A 
BRANCH  17  21
HETATM   21  O   UNL     1      -6.616  -2.186 -33.907  1.00  0.00    -0.351 OA
BRANCH  21  22
HETATM   22  C   UNL     1      -5.267  -2.463 -34.295  1.00  0.00     0.179 C 
BRANCH  22  23
HETATM   23  C   UNL     1      -5.218  -3.869 -34.912  1.00  0.00     0.002 C 
HETATM   24  C   UNL     1      -6.626  -4.440 -35.068  1.00  0.00     0.011 C 
HETATM   25  C   UNL     1      -4.355  -4.814 -34.073  1.00  0.00     0.011 C 
ENDBRANCH  22  23
ENDBRANCH  21  22
ENDBRANCH  17  21
ENDBRANCH  12  15
ENDBRANCH   9  11
ENDBRANCH   7   9
ENDBRANCH   1   7
BRANCH   4  26
HETATM   26  N   UNL     1      -6.889   5.855 -29.454  1.00  0.00    -0.378 N 
HETATM   27  C   UNL     1      -6.725   7.315 -29.626  1.00  0.00     0.150 C 
HETATM   28  C   UNL     1      -5.790   7.612 -30.818  1.00  0.00     0.255 C 
HETATM   29  N   UNL     1      -4.445   6.900 -30.632  1.00  0.00    -0.064 N 
HETATM   30  H   UNL     1      -4.024   7.286 -29.779  1.00  0.00     0.280 HD
HETATM   31  C   UNL     1      -4.645   5.399 -30.404  1.00  0.00     0.255 C 
HETATM   32  C   UNL     1      -5.610   5.159 -29.224  1.00  0.00     0.150 C 
BRANCH  29  33
HETATM   33  C   UNL     1      -3.481   7.175 -31.758  1.00  0.00     0.273 C 
BRANCH  33  34
HETATM   34  C   UNL     1      -2.064   6.813 -31.408  1.00  0.00    -0.033 A 
HETATM   35  C   UNL     1      -1.433   5.725 -32.032  1.00  0.00     0.009 A 
HETATM   36  C   UNL     1      -0.130   5.368 -31.683  1.00  0.00     0.001 A 
HETATM   37  C   UNL     1       0.555   6.090 -30.707  1.00  0.00     0.000 A 
HETATM   38  C   UNL     1      -0.060   7.172 -30.082  1.00  0.00     0.001 A 
HETATM   39  C   UNL     1      -1.361   7.535 -30.431  1.00  0.00     0.009 A 
ENDBRANCH  33  34
ENDBRANCH  29  33
ENDBRANCH   4  26
TORSDOF 10
ENDMDL
MODEL 10
REMARK VINA RESULT:      -8.3      5.360      8.702
REMARK  10 active torsions:
REMARK  status: ('A' for Active; 'I' for Inactive)
REMARK    1  A    between atoms: C_2  and  C_3 
REMARK    2  A    between atoms: C_3  and  O_4 
REMARK    3  A    between atoms: O_4  and  C_5 
REMARK    4  A    between atoms: C_7  and  C_8 
REMARK       I    between atoms: C_8  and  N_9 
REMARK    5  A    between atoms: N_9  and  C_10 
REMARK    6  A    between atoms: C_10  and  N_11 
REMARK    7  A    between atoms: N_11  and  C_12 
REMARK    8  A    between atoms: C_15  and  N_16 
REMARK    9  A    between atoms: N_19  and  C_21 
REMARK   10  A    between atoms: C_21  and  C_22 
ROOT
HETATM    1  C   UNL     1      -8.207   4.908 -29.665  1.00  0.00     0.034 A 
HETATM    2  C   UNL     1      -6.832   5.057 -29.487  1.00  0.00     0.032 A 
HETATM    3  C   UNL     1      -5.940   4.038 -29.856  1.00  0.00     0.031 A 
HETATM    4  C   UNL     1      -6.370   2.841 -30.446  1.00  0.00     0.030 A 
HETATM    5  C   UNL     1      -7.760   2.722 -30.625  1.00  0.00     0.031 A 
HETATM    6  C   UNL     1      -8.666   3.731 -30.237  1.00  0.00     0.032 A 
ENDROOT
BRANCH   1   7
HETATM    7  N   UNL     1      -9.023   5.925 -29.125  1.00  0.00    -0.333 N 
HETATM    8  H   UNL     1      -9.275   5.765 -28.155  1.00  0.00     0.168 HD
BRANCH   7   9
HETATM    9  C   UNL     1      -9.871   6.782 -29.723  1.00  0.00     0.179 C 
HETATM   10  S   UNL     1      -9.729   8.412 -29.353  1.00  0.00    -0.040 SA
BRANCH   9  11
HETATM   11  N   UNL     1     -10.793   6.440 -30.656  1.00  0.00    -0.299 N 
HETATM   12  C   UNL     1     -12.147   6.191 -30.438  1.00  0.00     0.257 C 
HETATM   13  O   UNL     1     -12.876   6.814 -29.674  1.00  0.00    -0.267 OA
HETATM   14  H   UNL     1     -10.349   5.797 -31.297  1.00  0.00     0.171 HD
BRANCH  12  15
HETATM   15  C   UNL     1     -12.737   5.078 -31.254  1.00  0.00     0.035 A 
HETATM   16  C   UNL     1     -12.014   4.371 -32.226  1.00  0.00     0.053 A 
HETATM   17  C   UNL     1     -12.589   3.291 -32.907  1.00  0.00     0.069 A 
HETATM   18  C   UNL     1     -13.906   2.928 -32.633  1.00  0.00     0.037 A 
HETATM   19  C   UNL     1     -14.646   3.644 -31.689  1.00  0.00     0.004 A 
HETATM   20  C   UNL     1     -14.066   4.713 -31.002  1.00  0.00     0.017 A 
BRANCH  17  21
HETATM   21  O   UNL     1     -11.750   2.677 -33.795  1.00  0.00    -0.351 OA
BRANCH  21  22
HETATM   22  C   UNL     1     -11.692   1.247 -33.772  1.00  0.00     0.179 C 
BRANCH  22  23
HETATM   23  C   UNL     1     -10.221   0.819 -33.891  1.00  0.00     0.002 C 
HETATM   24  C   UNL     1      -9.815  -0.055 -32.707  1.00  0.00     0.011 C 
HETATM   25  C   UNL     1      -9.295   2.034 -33.992  1.00  0.00     0.011 C 
ENDBRANCH  22  23
ENDBRANCH  21  22
ENDBRANCH  17  21
ENDBRANCH  12  15
ENDBRANCH   9  11
ENDBRANCH   7   9
ENDBRANCH   1   7
BRANCH   4  26
HETATM   26  N   UNL     1      -5.465   1.823 -30.752  1.00  0.00    -0.378 N 
HETATM   27  C   UNL     1      -4.558   1.986 -31.910  1.00  0.00     0.150 C 
HETATM   28  C   UNL     1      -5.189   1.366 -33.175  1.00  0.00     0.255 C 
HETATM   29  N   UNL     1      -5.546  -0.104 -32.929  1.00  0.00    -0.064 N 
HETATM   30  H   UNL     1      -4.665  -0.591 -32.727  1.00  0.00     0.280 HD
HETATM   31  C   UNL     1      -6.442  -0.251 -31.695  1.00  0.00     0.255 C 
HETATM   32  C   UNL     1      -5.780   0.411 -30.468  1.00  0.00     0.150 C 
BRANCH  29  33
HETATM   33  C   UNL     1      -6.145  -0.768 -34.143  1.00  0.00     0.273 C 
BRANCH  33  34
HETATM   34  C   UNL     1      -5.762  -2.219 -34.256  1.00  0.00    -0.033 A 
HETATM   35  C   UNL     1      -4.462  -2.638 -33.929  1.00  0.00     0.009 A 
HETATM   36  C   UNL     1      -4.096  -3.978 -34.066  1.00  0.00     0.001 A 
HETATM   37  C   UNL     1      -5.020  -4.910 -34.533  1.00  0.00     0.000 A 
HETATM   38  C   UNL     1      -6.312  -4.507 -34.860  1.00  0.00     0.001 A 
HETATM   39  C   UNL     1      -6.685  -3.169 -34.720  1.00  0.00     0.009 A 
ENDBRANCH  33  34
ENDBRANCH  29  33
ENDBRANCH   4  26
TORSDOF 10
ENDMDL
