MODEL 1
REMARK VINA RESULT:      -9.9      0.000      0.000
REMARK  3 active torsions:
REMARK  status: ('A' for Active; 'I' for Inactive)
REMARK    1  A    between atoms: N_4  and  C_5 
REMARK    2  A    between atoms: C_15  and  C_16 
REMARK       I    between atoms: C_16  and  N_17 
REMARK    3  A    between atoms: N_17  and  C_18 
ROOT
HETATM    1  C   UNL     1      -8.645   1.631 -34.329  1.00  0.00     0.073 C 
HETATM    2  C   UNL     1      -7.443   0.813 -34.035  1.00  0.00     0.069 A 
HETATM    3  N   UNL     1      -7.456  -0.512 -34.240  1.00  0.00    -0.170 NA
HETATM    4  N   UNL     1      -6.196  -0.943 -33.927  1.00  0.00    -0.216 N 
HETATM    5  C   UNL     1      -5.454   0.101 -33.395  1.00  0.00     0.145 A 
HETATM    6  C   UNL     1      -6.217   1.240 -33.493  1.00  0.00     0.087 A 
HETATM    7  N   UNL     1      -4.230   0.094 -32.815  1.00  0.00    -0.349 N 
HETATM    8  C   UNL     1      -3.738   1.289 -32.314  1.00  0.00     0.111 A 
HETATM    9  C   UNL     1      -4.373   2.481 -32.387  1.00  0.00     0.098 A 
HETATM   10  C   UNL     1      -5.732   2.525 -33.032  1.00  0.00     0.205 A 
HETATM   11  O   UNL     1      -6.371   3.568 -33.139  1.00  0.00    -0.286 OA
HETATM   12  H   UNL     1      -3.749  -0.752 -32.514  1.00  0.00     0.167 HD
ENDROOT
BRANCH   9  13
HETATM   13  C   UNL     1      -3.695   3.680 -31.795  1.00  0.00     0.261 C 
HETATM   14  N   UNL     1      -2.422   3.905 -32.274  1.00  0.00    -0.320 N 
HETATM   15  H   UNL     1      -2.042   3.190 -32.894  1.00  0.00     0.169 HD
HETATM   16  O   UNL     1      -4.278   4.335 -30.939  1.00  0.00    -0.267 OA
BRANCH  14  17
HETATM   17  C   UNL     1      -1.534   4.964 -31.976  1.00  0.00     0.073 A 
HETATM   18  C   UNL     1      -1.390   6.157 -32.694  1.00  0.00     0.143 A 
HETATM   19  F   UNL     1      -2.069   6.404 -33.820  1.00  0.00    -0.204 F 
HETATM   20  C   UNL     1      -0.472   7.132 -32.294  1.00  0.00     0.044 A 
HETATM   21  C   UNL     1       0.328   6.928 -31.173  1.00  0.00     0.003 A 
HETATM   22  C   UNL     1       0.215   5.741 -30.456  1.00  0.00     0.002 A 
HETATM   23  C   UNL     1      -0.705   4.767 -30.858  1.00  0.00     0.033 A 
ENDBRANCH  14  17
ENDBRANCH   9  13
BRANCH   4  24
HETATM   24  C   UNL     1      -5.828  -2.296 -34.178  1.00  0.00     0.060 A 
HETATM   25  C   UNL     1      -4.527  -2.762 -33.947  1.00  0.00     0.031 A 
HETATM   26  C   UNL     1      -4.206  -4.100 -34.201  1.00  0.00     0.002 A 
HETATM   27  C   UNL     1      -5.173  -4.974 -34.695  1.00  0.00     0.000 A 
HETATM   28  C   UNL     1      -6.461  -4.512 -34.952  1.00  0.00     0.002 A 
HETATM   29  C   UNL     1      -6.787  -3.176 -34.704  1.00  0.00     0.031 A 
ENDBRANCH   4  24
TORSDOF 3
ENDMDL
MODEL 2
REMARK VINA RESULT:      -9.8      2.487      8.451
REMARK  3 active torsions:
REMARK  status: ('A' for Active; 'I' for Inactive)
REMARK    1  A    between atoms: N_4  and  C_5 
REMARK    2  A    between atoms: C_15  and  C_16 
REMARK       I    between atoms: C_16  and  N_17 
REMARK    3  A    between atoms: N_17  and  C_18 
ROOT
HETATM    1  C   UNL     1      -6.363   5.583 -33.446  1.00  0.00     0.073 C 
HETATM    2  C   UNL     1      -5.153   5.041 -32.781  1.00  0.00     0.069 A 
HETATM    3  N   UNL     1      -4.134   5.851 -32.462  1.00  0.00    -0.170 NA
HETATM    4  N   UNL     1      -3.221   5.055 -31.824  1.00  0.00    -0.216 N 
HETATM    5  C   UNL     1      -3.624   3.730 -31.881  1.00  0.00     0.145 A 
HETATM    6  C   UNL     1      -4.874   3.703 -32.452  1.00  0.00     0.087 A 
HETATM    7  N   UNL     1      -2.964   2.601 -31.524  1.00  0.00    -0.349 N 
HETATM    8  C   UNL     1      -3.589   1.383 -31.738  1.00  0.00     0.111 A 
HETATM    9  C   UNL     1      -4.830   1.228 -32.251  1.00  0.00     0.098 A 
HETATM   10  C   UNL     1      -5.594   2.462 -32.652  1.00  0.00     0.205 A 
HETATM   11  O   UNL     1      -6.727   2.405 -33.122  1.00  0.00    -0.286 OA
HETATM   12  H   UNL     1      -1.965   2.566 -31.326  1.00  0.00     0.167 HD
ENDROOT
BRANCH   9  13
HETATM   13  C   UNL     1      -5.359  -0.165 -32.414  1.00  0.00     0.261 C 
HETATM   14  N   UNL     1      -4.917  -0.810 -33.549  1.00  0.00    -0.320 N 
HETATM   15  H   UNL     1      -4.367  -0.249 -34.199  1.00  0.00     0.169 HD
HETATM   16  O   UNL     1      -6.141  -0.610 -31.581  1.00  0.00    -0.267 OA
BRANCH  14  17
HETATM   17  C   UNL     1      -5.172  -2.134 -33.976  1.00  0.00     0.073 A 
HETATM   18  C   UNL     1      -6.354  -2.609 -34.556  1.00  0.00     0.143 A 
HETATM   19  F   UNL     1      -7.434  -1.835 -34.721  1.00  0.00    -0.204 F 
HETATM   20  C   UNL     1      -6.482  -3.947 -34.938  1.00  0.00     0.044 A 
HETATM   21  C   UNL     1      -5.434  -4.840 -34.737  1.00  0.00     0.003 A 
HETATM   22  C   UNL     1      -4.257  -4.393 -34.144  1.00  0.00     0.002 A 
HETATM   23  C   UNL     1      -4.130  -3.053 -33.764  1.00  0.00     0.033 A 
ENDBRANCH  14  17
ENDBRANCH   9  13
BRANCH   4  24
HETATM   24  C   UNL     1      -2.072   5.640 -31.220  1.00  0.00     0.060 A 
HETATM   25  C   UNL     1      -2.177   6.564 -30.173  1.00  0.00     0.031 A 
HETATM   26  C   UNL     1      -1.023   7.113 -29.602  1.00  0.00     0.002 A 
HETATM   27  C   UNL     1       0.236   6.752 -30.077  1.00  0.00     0.000 A 
HETATM   28  C   UNL     1       0.349   5.853 -31.135  1.00  0.00     0.002 A 
HETATM   29  C   UNL     1      -0.799   5.306 -31.713  1.00  0.00     0.031 A 
ENDBRANCH   4  24
TORSDOF 3
ENDMDL
MODEL 3
REMARK VINA RESULT:      -9.4      3.816      8.873
REMARK  3 active torsions:
REMARK  status: ('A' for Active; 'I' for Inactive)
REMARK    1  A    between atoms: N_4  and  C_5 
REMARK    2  A    between atoms: C_15  and  C_16 
REMARK       I    between atoms: C_16  and  N_17 
REMARK    3  A    between atoms: N_17  and  C_18 
ROOT
HETATM    1  C   UNL     1      -3.492   0.274 -30.871  1.00  0.00     0.073 C 
HETATM    2  C   UNL     1      -3.741   1.493 -31.680  1.00  0.00     0.069 A 
HETATM    3  N   UNL     1      -2.913   2.543 -31.597  1.00  0.00    -0.170 NA
HETATM    4  N   UNL     1      -3.390   3.457 -32.497  1.00  0.00    -0.216 N 
HETATM    5  C   UNL     1      -4.595   3.018 -33.027  1.00  0.00     0.145 A 
HETATM    6  C   UNL     1      -4.817   1.749 -32.550  1.00  0.00     0.087 A 
HETATM    7  N   UNL     1      -5.483   3.661 -33.823  1.00  0.00    -0.349 N 
HETATM    8  C   UNL     1      -6.650   2.997 -34.168  1.00  0.00     0.111 A 
HETATM    9  C   UNL     1      -6.963   1.735 -33.798  1.00  0.00     0.098 A 
HETATM   10  C   UNL     1      -5.994   0.990 -32.919  1.00  0.00     0.205 A 
HETATM   11  O   UNL     1      -6.204  -0.160 -32.543  1.00  0.00    -0.286 OA
HETATM   12  H   UNL     1      -5.469   4.665 -33.996  1.00  0.00     0.167 HD
ENDROOT
BRANCH   9  13
HETATM   13  C   UNL     1      -8.268   1.165 -34.264  1.00  0.00     0.261 C 
HETATM   14  N   UNL     1      -9.376   1.715 -33.655  1.00  0.00    -0.320 N 
HETATM   15  H   UNL     1      -9.193   2.369 -32.894  1.00  0.00     0.169 HD
HETATM   16  O   UNL     1      -8.266   0.264 -35.094  1.00  0.00    -0.267 OA
BRANCH  14  17
HETATM   17  C   UNL     1     -10.745   1.453 -33.895  1.00  0.00     0.073 A 
HETATM   18  C   UNL     1     -11.476   0.354 -33.430  1.00  0.00     0.143 A 
HETATM   19  F   UNL     1     -10.915  -0.636 -32.725  1.00  0.00    -0.204 F 
HETATM   20  C   UNL     1     -12.832   0.209 -33.738  1.00  0.00     0.044 A 
HETATM   21  C   UNL     1     -13.480   1.155 -34.526  1.00  0.00     0.003 A 
HETATM   22  C   UNL     1     -12.768   2.245 -35.015  1.00  0.00     0.002 A 
HETATM   23  C   UNL     1     -11.411   2.389 -34.705  1.00  0.00     0.033 A 
ENDBRANCH  14  17
ENDBRANCH   9  13
BRANCH   4  24
HETATM   24  C   UNL     1      -2.647   4.642 -32.766  1.00  0.00     0.060 A 
HETATM   25  C   UNL     1      -2.541   5.676 -31.828  1.00  0.00     0.031 A 
HETATM   26  C   UNL     1      -1.797   6.823 -32.129  1.00  0.00     0.002 A 
HETATM   27  C   UNL     1      -1.166   6.947 -33.366  1.00  0.00     0.000 A 
HETATM   28  C   UNL     1      -1.288   5.934 -34.313  1.00  0.00     0.002 A 
HETATM   29  C   UNL     1      -2.033   4.790 -34.021  1.00  0.00     0.031 A 
ENDBRANCH   4  24
TORSDOF 3
ENDMDL
MODEL 4
REMARK VINA RESULT:      -9.2      2.653      3.891
REMARK  3 active torsions:
REMARK  status: ('A' for Active; 'I' for Inactive)
REMARK    1  A    between atoms: N_4  and  C_5 
REMARK    2  A    between atoms: C_15  and  C_16 
REMARK       I    between atoms: C_16  and  N_17 
REMARK    3  A    between atoms: N_17  and  C_18 
ROOT
HETATM    1  C   UNL     1      -7.633   4.050 -29.784  1.00  0.00     0.073 C 
HETATM    2  C   UNL     1      -6.751   3.377 -30.769  1.00  0.00     0.069 A 
HETATM    3  N   UNL     1      -7.152   2.254 -31.382  1.00  0.00    -0.170 NA
HETATM    4  N   UNL     1      -6.145   1.933 -32.251  1.00  0.00    -0.216 N 
HETATM    5  C   UNL     1      -5.067   2.785 -32.064  1.00  0.00     0.145 A 
HETATM    6  C   UNL     1      -5.448   3.739 -31.152  1.00  0.00     0.087 A 
HETATM    7  N   UNL     1      -3.818   2.738 -32.588  1.00  0.00    -0.349 N 
HETATM    8  C   UNL     1      -2.905   3.700 -32.186  1.00  0.00     0.111 A 
HETATM    9  C   UNL     1      -3.170   4.712 -31.329  1.00  0.00     0.098 A 
HETATM   10  C   UNL     1      -4.551   4.797 -30.735  1.00  0.00     0.205 A 
HETATM   11  O   UNL     1      -4.871   5.687 -29.952  1.00  0.00    -0.286 OA
HETATM   12  H   UNL     1      -3.433   1.926 -33.069  1.00  0.00     0.167 HD
ENDROOT
BRANCH   9  13
HETATM   13  C   UNL     1      -2.066   5.670 -31.004  1.00  0.00     0.261 C 
HETATM   14  N   UNL     1      -2.029   6.067 -29.684  1.00  0.00    -0.320 N 
HETATM   15  H   UNL     1      -2.803   5.752 -29.099  1.00  0.00     0.169 HD
HETATM   16  O   UNL     1      -1.318   6.049 -31.898  1.00  0.00    -0.267 OA
BRANCH  14  17
HETATM   17  C   UNL     1      -1.098   6.909 -29.033  1.00  0.00     0.073 A 
HETATM   18  C   UNL     1       0.195   6.561 -28.624  1.00  0.00     0.143 A 
HETATM   19  F   UNL     1       0.684   5.323 -28.764  1.00  0.00    -0.204 F 
HETATM   20  C   UNL     1       1.023   7.489 -27.988  1.00  0.00     0.044 A 
HETATM   21  C   UNL     1       0.571   8.781 -27.738  1.00  0.00     0.003 A 
HETATM   22  C   UNL     1      -0.718   9.143 -28.118  1.00  0.00     0.002 A 
HETATM   23  C   UNL     1      -1.545   8.212 -28.756  1.00  0.00     0.033 A 
ENDBRANCH  14  17
ENDBRANCH   9  13
BRANCH   4  24
HETATM   24  C   UNL     1      -6.319   0.861 -33.173  1.00  0.00     0.060 A 
HETATM   25  C   UNL     1      -6.936   1.049 -34.416  1.00  0.00     0.031 A 
HETATM   26  C   UNL     1      -7.084  -0.029 -35.296  1.00  0.00     0.002 A 
HETATM   27  C   UNL     1      -6.629  -1.297 -34.938  1.00  0.00     0.000 A 
HETATM   28  C   UNL     1      -6.038  -1.497 -33.693  1.00  0.00     0.002 A 
HETATM   29  C   UNL     1      -5.891  -0.426 -32.808  1.00  0.00     0.031 A 
ENDBRANCH   4  24
TORSDOF 3
ENDMDL
MODEL 5
REMARK VINA RESULT:      -9.2      3.962      8.801
REMARK  3 active torsions:
REMARK  status: ('A' for Active; 'I' for Inactive)
REMARK    1  A    between atoms: N_4  and  C_5 
REMARK    2  A    between atoms: C_15  and  C_16 
REMARK       I    between atoms: C_16  and  N_17 
REMARK    3  A    between atoms: N_17  and  C_18 
ROOT
HETATM    1  C   UNL     1      -3.741   0.046 -30.963  1.00  0.00     0.073 C 
HETATM    2  C   UNL     1      -3.962   1.395 -31.540  1.00  0.00     0.069 A 
HETATM    3  N   UNL     1      -2.934   2.240 -31.705  1.00  0.00    -0.170 NA
HETATM    4  N   UNL     1      -3.465   3.351 -32.301  1.00  0.00    -0.216 N 
HETATM    5  C   UNL     1      -4.846   3.238 -32.371  1.00  0.00     0.145 A 
HETATM    6  C   UNL     1      -5.180   1.981 -31.928  1.00  0.00     0.087 A 
HETATM    7  N   UNL     1      -5.778   4.152 -32.735  1.00  0.00    -0.349 N 
HETATM    8  C   UNL     1      -7.113   3.787 -32.663  1.00  0.00     0.111 A 
HETATM    9  C   UNL     1      -7.565   2.570 -32.285  1.00  0.00     0.098 A 
HETATM   10  C   UNL     1      -6.556   1.530 -31.881  1.00  0.00     0.205 A 
HETATM   11  O   UNL     1      -6.887   0.401 -31.528  1.00  0.00    -0.286 OA
HETATM   12  H   UNL     1      -5.588   5.148 -32.836  1.00  0.00     0.167 HD
ENDROOT
BRANCH   9  13
HETATM   13  C   UNL     1      -9.046   2.342 -32.266  1.00  0.00     0.261 C 
HETATM   14  N   UNL     1      -9.582   1.995 -33.488  1.00  0.00    -0.320 N 
HETATM   15  H   UNL     1      -8.945   2.026 -34.283  1.00  0.00     0.169 HD
HETATM   16  O   UNL     1      -9.664   2.503 -31.220  1.00  0.00    -0.267 OA
BRANCH  14  17
HETATM   17  C   UNL     1     -10.917   1.659 -33.811  1.00  0.00     0.073 A 
HETATM   18  C   UNL     1     -11.586   0.480 -33.463  1.00  0.00     0.143 A 
HETATM   19  F   UNL     1     -10.986  -0.521 -32.807  1.00  0.00    -0.204 F 
HETATM   20  C   UNL     1     -12.914   0.266 -33.844  1.00  0.00     0.044 A 
HETATM   21  C   UNL     1     -13.595   1.223 -34.590  1.00  0.00     0.003 A 
HETATM   22  C   UNL     1     -12.943   2.393 -34.963  1.00  0.00     0.002 A 
HETATM   23  C   UNL     1     -11.614   2.606 -34.580  1.00  0.00     0.033 A 
ENDBRANCH  14  17
ENDBRANCH   9  13
BRANCH   4  24
HETATM   24  C   UNL     1      -2.606   4.393 -32.750  1.00  0.00     0.060 A 
HETATM   25  C   UNL     1      -2.277   4.548 -34.103  1.00  0.00     0.031 A 
HETATM   26  C   UNL     1      -1.432   5.588 -34.506  1.00  0.00     0.002 A 
HETATM   27  C   UNL     1      -0.905   6.470 -33.564  1.00  0.00     0.000 A 
HETATM   28  C   UNL     1      -1.206   6.308 -32.214  1.00  0.00     0.002 A 
HETATM   29  C   UNL     1      -2.045   5.269 -31.805  1.00  0.00     0.031 A 
ENDBRANCH   4  24
TORSDOF 3
ENDMDL
MODEL 6
REMARK VINA RESULT:      -9.0      5.369      8.915
REMARK  3 active torsions:
REMARK  status: ('A' for Active; 'I' for Inactive)
REMARK    1  A    between atoms: N_4  and  C_5 
REMARK    2  A    between atoms: C_15  and  C_16 
REMARK       I    between atoms: C_16  and  N_17 
REMARK    3  A    between atoms: N_17  and  C_18 
ROOT
HETATM    1  C   UNL     1     -13.702   0.444 -33.476  1.00  0.00     0.073 C 
HETATM    2  C   UNL     1     -12.720   1.521 -33.759  1.00  0.00     0.069 A 
HETATM    3  N   UNL     1     -13.132   2.709 -34.222  1.00  0.00    -0.170 NA
HETATM    4  N   UNL     1     -12.002   3.475 -34.319  1.00  0.00    -0.216 N 
HETATM    5  C   UNL     1     -10.881   2.704 -34.048  1.00  0.00     0.145 A 
HETATM    6  C   UNL     1     -11.320   1.465 -33.649  1.00  0.00     0.087 A 
HETATM    7  N   UNL     1      -9.566   3.003 -34.177  1.00  0.00    -0.349 N 
HETATM    8  C   UNL     1      -8.640   2.015 -33.881  1.00  0.00     0.111 A 
HETATM    9  C   UNL     1      -8.944   0.774 -33.439  1.00  0.00     0.098 A 
HETATM   10  C   UNL     1     -10.396   0.412 -33.279  1.00  0.00     0.205 A 
HETATM   11  O   UNL     1     -10.754  -0.693 -32.881  1.00  0.00    -0.286 OA
HETATM   12  H   UNL     1      -9.213   3.811 -34.688  1.00  0.00     0.167 HD
ENDROOT
BRANCH   9  13
HETATM   13  C   UNL     1      -7.817  -0.174 -33.163  1.00  0.00     0.261 C 
HETATM   14  N   UNL     1      -7.571  -1.075 -34.177  1.00  0.00    -0.320 N 
HETATM   15  H   UNL     1      -8.233  -1.069 -34.953  1.00  0.00     0.169 HD
HETATM   16  O   UNL     1      -7.232  -0.111 -32.087  1.00  0.00    -0.267 OA
BRANCH  14  17
HETATM   17  C   UNL     1      -6.560  -2.059 -34.267  1.00  0.00     0.073 A 
HETATM   18  C   UNL     1      -5.185  -1.858 -34.096  1.00  0.00     0.143 A 
HETATM   19  F   UNL     1      -4.658  -0.647 -33.875  1.00  0.00    -0.204 F 
HETATM   20  C   UNL     1      -4.282  -2.918 -34.211  1.00  0.00     0.044 A 
HETATM   21  C   UNL     1      -4.736  -4.200 -34.510  1.00  0.00     0.003 A 
HETATM   22  C   UNL     1      -6.096  -4.418 -34.703  1.00  0.00     0.002 A 
HETATM   23  C   UNL     1      -6.998  -3.355 -34.586  1.00  0.00     0.033 A 
ENDBRANCH  14  17
ENDBRANCH   9  13
BRANCH   4  24
HETATM   24  C   UNL     1     -12.108   4.857 -34.647  1.00  0.00     0.060 A 
HETATM   25  C   UNL     1     -11.424   5.842 -33.923  1.00  0.00     0.031 A 
HETATM   26  C   UNL     1     -11.551   7.190 -34.279  1.00  0.00     0.002 A 
HETATM   27  C   UNL     1     -12.365   7.561 -35.348  1.00  0.00     0.000 A 
HETATM   28  C   UNL     1     -13.068   6.589 -36.057  1.00  0.00     0.002 A 
HETATM   29  C   UNL     1     -12.949   5.243 -35.703  1.00  0.00     0.031 A 
ENDBRANCH   4  24
TORSDOF 3
ENDMDL
MODEL 7
REMARK VINA RESULT:      -8.9      2.835      9.345
REMARK  3 active torsions:
REMARK  status: ('A' for Active; 'I' for Inactive)
REMARK    1  A    between atoms: N_4  and  C_5 
REMARK    2  A    between atoms: C_15  and  C_16 
REMARK       I    between atoms: C_16  and  N_17 
REMARK    3  A    between atoms: N_17  and  C_18 
ROOT
HETATM    1  C   UNL     1      -0.907   6.270 -34.449  1.00  0.00     0.073 C 
HETATM    2  C   UNL     1      -1.343   6.324 -33.031  1.00  0.00     0.069 A 
HETATM    3  N   UNL     1      -0.609   6.975 -32.120  1.00  0.00    -0.170 NA
HETATM    4  N   UNL     1      -1.311   6.880 -30.949  1.00  0.00    -0.216 N 
HETATM    5  C   UNL     1      -2.407   6.048 -31.119  1.00  0.00     0.145 A 
HETATM    6  C   UNL     1      -2.470   5.714 -32.450  1.00  0.00     0.087 A 
HETATM    7  N   UNL     1      -3.276   5.553 -30.204  1.00  0.00    -0.349 N 
HETATM    8  C   UNL     1      -4.265   4.688 -30.644  1.00  0.00     0.111 A 
HETATM    9  C   UNL     1      -4.456   4.318 -31.931  1.00  0.00     0.098 A 
HETATM   10  C   UNL     1      -3.512   4.856 -32.973  1.00  0.00     0.205 A 
HETATM   11  O   UNL     1      -3.621   4.569 -34.162  1.00  0.00    -0.286 OA
HETATM   12  H   UNL     1      -3.120   5.583 -29.198  1.00  0.00     0.167 HD
ENDROOT
BRANCH   9  13
HETATM   13  C   UNL     1      -5.579   3.374 -32.236  1.00  0.00     0.261 C 
HETATM   14  N   UNL     1      -5.218   2.294 -33.012  1.00  0.00    -0.320 N 
HETATM   15  H   UNL     1      -4.264   2.300 -33.375  1.00  0.00     0.169 HD
HETATM   16  O   UNL     1      -6.704   3.629 -31.822  1.00  0.00    -0.267 OA
BRANCH  14  17
HETATM   17  C   UNL     1      -6.005   1.198 -33.433  1.00  0.00     0.073 A 
HETATM   18  C   UNL     1      -6.161  -0.022 -32.764  1.00  0.00     0.143 A 
HETATM   19  F   UNL     1      -5.506  -0.309 -31.633  1.00  0.00    -0.204 F 
HETATM   20  C   UNL     1      -6.974  -1.032 -33.287  1.00  0.00     0.044 A 
HETATM   21  C   UNL     1      -7.637  -0.846 -34.496  1.00  0.00     0.003 A 
HETATM   22  C   UNL     1      -7.481   0.351 -35.187  1.00  0.00     0.002 A 
HETATM   23  C   UNL     1      -6.669   1.361 -34.661  1.00  0.00     0.033 A 
ENDBRANCH  14  17
ENDBRANCH   9  13
BRANCH   4  24
HETATM   24  C   UNL     1      -0.873   7.598 -29.800  1.00  0.00     0.060 A 
HETATM   25  C   UNL     1      -1.657   8.598 -29.211  1.00  0.00     0.031 A 
HETATM   26  C   UNL     1      -1.193   9.278 -28.079  1.00  0.00     0.002 A 
HETATM   27  C   UNL     1       0.054   8.973 -27.537  1.00  0.00     0.000 A 
HETATM   28  C   UNL     1       0.851   7.998 -28.132  1.00  0.00     0.002 A 
HETATM   29  C   UNL     1       0.396   7.319 -29.264  1.00  0.00     0.031 A 
ENDBRANCH   4  24
TORSDOF 3
ENDMDL
MODEL 8
REMARK VINA RESULT:      -8.8      3.888      8.895
REMARK  3 active torsions:
REMARK  status: ('A' for Active; 'I' for Inactive)
REMARK    1  A    between atoms: N_4  and  C_5 
REMARK    2  A    between atoms: C_15  and  C_16 
REMARK       I    between atoms: C_16  and  N_17 
REMARK    3  A    between atoms: N_17  and  C_18 
ROOT
HETATM    1  C   UNL     1      -1.989   5.181 -34.967  1.00  0.00     0.073 C 
HETATM    2  C   UNL     1      -2.186   5.322 -33.503  1.00  0.00     0.069 A 
HETATM    3  N   UNL     1      -1.151   5.618 -32.705  1.00  0.00    -0.170 NA
HETATM    4  N   UNL     1      -1.679   5.728 -31.447  1.00  0.00    -0.216 N 
HETATM    5  C   UNL     1      -3.016   5.359 -31.460  1.00  0.00     0.145 A 
HETATM    6  C   UNL     1      -3.370   5.135 -32.769  1.00  0.00     0.087 A 
HETATM    7  N   UNL     1      -3.878   5.170 -30.432  1.00  0.00    -0.349 N 
HETATM    8  C   UNL     1      -5.164   4.744 -30.727  1.00  0.00     0.111 A 
HETATM    9  C   UNL     1      -5.643   4.531 -31.973  1.00  0.00     0.098 A 
HETATM   10  C   UNL     1      -4.714   4.739 -33.138  1.00  0.00     0.205 A 
HETATM   11  O   UNL     1      -5.074   4.569 -34.300  1.00  0.00    -0.286 OA
HETATM   12  H   UNL     1      -3.592   5.093 -29.457  1.00  0.00     0.167 HD
ENDROOT
BRANCH   9  13
HETATM   13  C   UNL     1      -7.064   4.075 -32.115  1.00  0.00     0.261 C 
HETATM   14  N   UNL     1      -7.211   2.881 -32.789  1.00  0.00    -0.320 N 
HETATM   15  H   UNL     1      -6.364   2.490 -33.200  1.00  0.00     0.169 HD
HETATM   16  O   UNL     1      -7.965   4.777 -31.672  1.00  0.00    -0.267 OA
BRANCH  14  17
HETATM   17  C   UNL     1      -8.391   2.146 -33.048  1.00  0.00     0.073 A 
HETATM   18  C   UNL     1      -9.427   2.512 -33.915  1.00  0.00     0.143 A 
HETATM   19  F   UNL     1      -9.434   3.676 -34.575  1.00  0.00    -0.204 F 
HETATM   20  C   UNL     1     -10.547   1.693 -34.086  1.00  0.00     0.044 A 
HETATM   21  C   UNL     1     -10.657   0.497 -33.383  1.00  0.00     0.003 A 
HETATM   22  C   UNL     1      -9.648   0.123 -32.502  1.00  0.00     0.002 A 
HETATM   23  C   UNL     1      -8.527   0.943 -32.334  1.00  0.00     0.033 A 
ENDBRANCH  14  17
ENDBRANCH   9  13
BRANCH   4  24
HETATM   24  C   UNL     1      -0.863   6.182 -30.373  1.00  0.00     0.060 A 
HETATM   25  C   UNL     1      -0.857   7.522 -29.965  1.00  0.00     0.031 A 
HETATM   26  C   UNL     1      -0.043   7.929 -28.901  1.00  0.00     0.002 A 
HETATM   27  C   UNL     1       0.772   7.007 -28.248  1.00  0.00     0.000 A 
HETATM   28  C   UNL     1       0.791   5.678 -28.664  1.00  0.00     0.002 A 
HETATM   29  C   UNL     1      -0.015   5.267 -29.728  1.00  0.00     0.031 A 
ENDBRANCH   4  24
TORSDOF 3
ENDMDL
MODEL 9
REMARK VINA RESULT:      -8.8      2.682      8.451
REMARK  3 active torsions:
REMARK  status: ('A' for Active; 'I' for Inactive)
REMARK    1  A    between atoms: N_4  and  C_5 
REMARK    2  A    between atoms: C_15  and  C_16 
REMARK       I    between atoms: C_16  and  N_17 
REMARK    3  A    between atoms: N_17  and  C_18 
ROOT
HETATM    1  C   UNL     1      -8.063   5.140 -31.484  1.00  0.00     0.073 C 
HETATM    2  C   UNL     1      -6.620   4.901 -31.733  1.00  0.00     0.069 A 
HETATM    3  N   UNL     1      -5.780   5.932 -31.898  1.00  0.00    -0.170 NA
HETATM    4  N   UNL     1      -4.540   5.373 -32.048  1.00  0.00    -0.216 N 
HETATM    5  C   UNL     1      -4.647   3.992 -32.116  1.00  0.00     0.145 A 
HETATM    6  C   UNL     1      -5.960   3.668 -31.876  1.00  0.00     0.087 A 
HETATM    7  N   UNL     1      -3.710   3.059 -32.412  1.00  0.00    -0.349 N 
HETATM    8  C   UNL     1      -4.104   1.731 -32.462  1.00  0.00     0.111 A 
HETATM    9  C   UNL     1      -5.353   1.283 -32.204  1.00  0.00     0.098 A 
HETATM   10  C   UNL     1      -6.416   2.293 -31.865  1.00  0.00     0.205 A 
HETATM   11  O   UNL     1      -7.573   1.965 -31.616  1.00  0.00    -0.286 OA
HETATM   12  H   UNL     1      -2.803   3.274 -32.823  1.00  0.00     0.167 HD
ENDROOT
BRANCH   9  13
HETATM   13  C   UNL     1      -5.609  -0.191 -32.299  1.00  0.00     0.261 C 
HETATM   14  N   UNL     1      -5.340  -0.735 -33.537  1.00  0.00    -0.320 N 
HETATM   15  H   UNL     1      -5.095  -0.074 -34.275  1.00  0.00     0.169 HD
HETATM   16  O   UNL     1      -6.051  -0.786 -31.324  1.00  0.00    -0.267 OA
BRANCH  14  17
HETATM   17  C   UNL     1      -5.416  -2.084 -33.952  1.00  0.00     0.073 A 
HETATM   18  C   UNL     1      -4.432  -3.065 -33.783  1.00  0.00     0.143 A 
HETATM   19  F   UNL     1      -3.240  -2.798 -33.235  1.00  0.00    -0.204 F 
HETATM   20  C   UNL     1      -4.630  -4.371 -34.239  1.00  0.00     0.044 A 
HETATM   21  C   UNL     1      -5.812  -4.719 -34.884  1.00  0.00     0.003 A 
HETATM   22  C   UNL     1      -6.796  -3.756 -35.081  1.00  0.00     0.002 A 
HETATM   23  C   UNL     1      -6.597  -2.449 -34.622  1.00  0.00     0.033 A 
ENDBRANCH  14  17
ENDBRANCH   9  13
BRANCH   4  24
HETATM   24  C   UNL     1      -3.388   6.208 -32.099  1.00  0.00     0.060 A 
HETATM   25  C   UNL     1      -2.800   6.583 -33.314  1.00  0.00     0.031 A 
HETATM   26  C   UNL     1      -1.670   7.409 -33.322  1.00  0.00     0.002 A 
HETATM   27  C   UNL     1      -1.117   7.856 -32.123  1.00  0.00     0.000 A 
HETATM   28  C   UNL     1      -1.680   7.466 -30.910  1.00  0.00     0.002 A 
HETATM   29  C   UNL     1      -2.805   6.639 -30.896  1.00  0.00     0.031 A 
ENDBRANCH   4  24
TORSDOF 3
ENDMDL
MODEL 10
REMARK VINA RESULT:      -8.7      4.688      8.862
REMARK  3 active torsions:
REMARK  status: ('A' for Active; 'I' for Inactive)
REMARK    1  A    between atoms: N_4  and  C_5 
REMARK    2  A    between atoms: C_15  and  C_16 
REMARK       I    between atoms: C_16  and  N_17 
REMARK    3  A    between atoms: N_17  and  C_18 
ROOT
HETATM    1  C   UNL     1      -7.918   3.746 -29.984  1.00  0.00     0.073 C 
HETATM    2  C   UNL     1      -9.017   3.485 -30.947  1.00  0.00     0.069 A 
HETATM    3  N   UNL     1     -10.223   4.040 -30.767  1.00  0.00    -0.170 NA
HETATM    4  N   UNL     1     -10.971   3.648 -31.844  1.00  0.00    -0.216 N 
HETATM    5  C   UNL     1     -10.259   2.737 -32.610  1.00  0.00     0.145 A 
HETATM    6  C   UNL     1      -8.995   2.649 -32.078  1.00  0.00     0.087 A 
HETATM    7  N   UNL     1     -10.659   1.982 -33.662  1.00  0.00    -0.349 N 
HETATM    8  C   UNL     1      -9.745   1.101 -34.218  1.00  0.00     0.111 A 
HETATM    9  C   UNL     1      -8.463   0.955 -33.812  1.00  0.00     0.098 A 
HETATM   10  C   UNL     1      -7.985   1.783 -32.651  1.00  0.00     0.205 A 
HETATM   11  O   UNL     1      -6.835   1.710 -32.225  1.00  0.00    -0.286 OA
HETATM   12  H   UNL     1     -11.633   1.844 -33.925  1.00  0.00     0.167 HD
ENDROOT
BRANCH   9  13
HETATM   13  C   UNL     1      -7.605  -0.044 -34.529  1.00  0.00     0.261 C 
HETATM   14  N   UNL     1      -7.142  -1.069 -33.731  1.00  0.00    -0.320 N 
HETATM   15  H   UNL     1      -7.344  -0.989 -32.735  1.00  0.00     0.169 HD
HETATM   16  O   UNL     1      -7.355   0.124 -35.716  1.00  0.00    -0.267 OA
BRANCH  14  17
HETATM   17  C   UNL     1      -6.365  -2.194 -34.091  1.00  0.00     0.073 A 
HETATM   18  C   UNL     1      -4.969  -2.285 -34.067  1.00  0.00     0.143 A 
HETATM   19  F   UNL     1      -4.187  -1.248 -33.738  1.00  0.00    -0.204 F 
HETATM   20  C   UNL     1      -4.316  -3.460 -34.448  1.00  0.00     0.044 A 
HETATM   21  C   UNL     1      -5.047  -4.565 -34.873  1.00  0.00     0.003 A 
HETATM   22  C   UNL     1      -6.435  -4.491 -34.924  1.00  0.00     0.002 A 
HETATM   23  C   UNL     1      -7.087  -3.314 -34.540  1.00  0.00     0.033 A 
ENDBRANCH  14  17
ENDBRANCH   9  13
BRANCH   4  24
HETATM   24  C   UNL     1     -12.274   4.190 -32.037  1.00  0.00     0.060 A 
HETATM   25  C   UNL     1     -13.370   3.764 -31.277  1.00  0.00     0.031 A 
HETATM   26  C   UNL     1     -14.635   4.324 -31.494  1.00  0.00     0.002 A 
HETATM   27  C   UNL     1     -14.812   5.300 -32.473  1.00  0.00     0.000 A 
HETATM   28  C   UNL     1     -13.732   5.710 -33.251  1.00  0.00     0.002 A 
HETATM   29  C   UNL     1     -12.469   5.152 -33.042  1.00  0.00     0.031 A 
ENDBRANCH   4  24
TORSDOF 3
ENDMDL
