MODEL 1
REMARK VINA RESULT:      -7.5      0.000      0.000
REMARK  2 active torsions:
REMARK  status: ('A' for Active; 'I' for Inactive)
REMARK    1  A    between atoms: C_2  and  C_3 
REMARK       I    between atoms: C_3  and  N_4 
REMARK    2  A    between atoms: N_4  and  C_5 
ROOT
HETATM    1  C   UNL     1      -3.639   2.714 -31.760  1.00  0.00     0.174 A 
HETATM    2  S   UNL     1      -5.195   2.793 -32.436  1.00  0.00    -0.050 SA
HETATM    3  C   UNL     1      -5.077   1.147 -32.926  1.00  0.00     0.040 A 
HETATM    4  C   UNL     1      -3.830   0.648 -32.518  1.00  0.00     0.079 A 
HETATM    5  N   UNL     1      -3.027   1.558 -31.851  1.00  0.00    -0.223 NA
HETATM    6  C   UNL     1      -6.018   0.362 -33.620  1.00  0.00     0.061 A 
HETATM    7  C   UNL     1      -5.635  -0.939 -33.881  1.00  0.00     0.106 A 
HETATM    8  C   UNL     1      -4.422  -1.447 -33.491  1.00  0.00     0.107 A 
HETATM    9  O   UNL     1      -4.260  -2.748 -33.858  1.00  0.00    -0.323 OA
HETATM   10  C   UNL     1      -5.510  -3.000 -34.531  1.00  0.00     0.352 A 
HETATM   11  O   UNL     1      -6.391  -1.858 -34.544  1.00  0.00    -0.323 OA
HETATM   12  C   UNL     1      -3.489  -0.692 -32.806  1.00  0.00     0.073 A 
ENDROOT
BRANCH   1  13
HETATM   13  N   UNL     1      -3.026   3.778 -31.156  1.00  0.00    -0.301 N 
HETATM   14  C   UNL     1      -2.097   4.639 -31.693  1.00  0.00     0.264 C 
HETATM   15  O   UNL     1      -1.683   4.600 -32.847  1.00  0.00    -0.267 OA
HETATM   16  H   UNL     1      -3.302   3.906 -30.192  1.00  0.00     0.171 HD
BRANCH  14  17
HETATM   17  C   UNL     1      -1.602   5.656 -30.761  1.00  0.00     0.074 A 
HETATM   18  C   UNL     1      -2.340   6.684 -30.194  1.00  0.00     0.027 A 
HETATM   19  C   UNL     1      -1.562   7.514 -29.333  1.00  0.00     0.033 A 
HETATM   20  C   UNL     1      -0.264   7.080 -29.279  1.00  0.00     0.075 A 
HETATM   21  S   UNL     1       0.033   5.714 -30.230  1.00  0.00    -0.072 SA
HETATM   22 CL   UNL     1       1.013   7.780 -28.372  1.00  0.00    -0.076 Cl
ENDBRANCH  14  17
ENDBRANCH   1  13
TORSDOF 2
ENDMDL
MODEL 2
REMARK VINA RESULT:      -7.4      6.655      8.011
REMARK  2 active torsions:
REMARK  status: ('A' for Active; 'I' for Inactive)
REMARK    1  A    between atoms: C_2  and  C_3 
REMARK       I    between atoms: C_3  and  N_4 
REMARK    2  A    between atoms: N_4  and  C_5 
ROOT
HETATM    1  C   UNL     1      -7.731   0.329 -34.479  1.00  0.00     0.174 A 
HETATM    2  S   UNL     1      -6.339   0.702 -33.579  1.00  0.00    -0.050 SA
HETATM    3  C   UNL     1      -5.759  -0.906 -33.791  1.00  0.00     0.040 A 
HETATM    4  C   UNL     1      -6.692  -1.619 -34.559  1.00  0.00     0.079 A 
HETATM    5  N   UNL     1      -7.809  -0.895 -34.945  1.00  0.00    -0.223 NA
HETATM    6  C   UNL     1      -4.570  -1.486 -33.310  1.00  0.00     0.061 A 
HETATM    7  C   UNL     1      -4.377  -2.814 -33.639  1.00  0.00     0.106 A 
HETATM    8  C   UNL     1      -5.275  -3.529 -34.389  1.00  0.00     0.107 A 
HETATM    9  O   UNL     1      -4.879  -4.817 -34.586  1.00  0.00    -0.323 OA
HETATM   10  C   UNL     1      -3.629  -4.832 -33.867  1.00  0.00     0.352 A 
HETATM   11  O   UNL     1      -3.300  -3.561 -33.269  1.00  0.00    -0.323 OA
HETATM   12  C   UNL     1      -6.444  -2.974 -34.872  1.00  0.00     0.073 A 
ENDROOT
BRANCH   1  13
HETATM   13  N   UNL     1      -8.737   1.226 -34.717  1.00  0.00    -0.301 N 
HETATM   14  C   UNL     1      -9.954   1.323 -34.083  1.00  0.00     0.264 C 
HETATM   15  O   UNL     1     -10.325   0.612 -33.156  1.00  0.00    -0.267 OA
HETATM   16  H   UNL     1      -8.530   1.870 -35.468  1.00  0.00     0.171 HD
BRANCH  14  17
HETATM   17  C   UNL     1     -10.828   2.376 -34.608  1.00  0.00     0.074 A 
HETATM   18  C   UNL     1     -12.063   2.198 -35.212  1.00  0.00     0.027 A 
HETATM   19  C   UNL     1     -12.660   3.426 -35.624  1.00  0.00     0.033 A 
HETATM   20  C   UNL     1     -11.854   4.489 -35.314  1.00  0.00     0.075 A 
HETATM   21  S   UNL     1     -10.414   4.044 -34.548  1.00  0.00    -0.072 SA
HETATM   22 CL   UNL     1     -12.175   6.145 -35.628  1.00  0.00    -0.076 Cl
ENDBRANCH  14  17
ENDBRANCH   1  13
TORSDOF 2
ENDMDL
MODEL 3
REMARK VINA RESULT:      -7.3      6.661      9.364
REMARK  2 active torsions:
REMARK  status: ('A' for Active; 'I' for Inactive)
REMARK    1  A    between atoms: C_2  and  C_3 
REMARK       I    between atoms: C_3  and  N_4 
REMARK    2  A    between atoms: N_4  and  C_5 
ROOT
HETATM    1  C   UNL     1      -9.301   0.869 -32.422  1.00  0.00     0.174 A 
HETATM    2  S   UNL     1      -8.462   2.057 -31.545  1.00  0.00    -0.050 SA
HETATM    3  C   UNL     1      -7.000   1.161 -31.711  1.00  0.00     0.040 A 
HETATM    4  C   UNL     1      -7.271  -0.001 -32.449  1.00  0.00     0.079 A 
HETATM    5  N   UNL     1      -8.590  -0.147 -32.849  1.00  0.00    -0.223 NA
HETATM    6  C   UNL     1      -5.717   1.467 -31.221  1.00  0.00     0.061 A 
HETATM    7  C   UNL     1      -4.730   0.545 -31.511  1.00  0.00     0.106 A 
HETATM    8  C   UNL     1      -4.972  -0.597 -32.231  1.00  0.00     0.107 A 
HETATM    9  O   UNL     1      -3.855  -1.358 -32.391  1.00  0.00    -0.323 OA
HETATM   10  C   UNL     1      -2.881  -0.566 -31.682  1.00  0.00     0.352 A 
HETATM   11  O   UNL     1      -3.428   0.647 -31.126  1.00  0.00    -0.323 OA
HETATM   12  C   UNL     1      -6.225  -0.910 -32.722  1.00  0.00     0.073 A 
ENDROOT
BRANCH   1  13
HETATM   13  N   UNL     1     -10.644   0.931 -32.679  1.00  0.00    -0.301 N 
HETATM   14  C   UNL     1     -11.289   1.656 -33.655  1.00  0.00     0.264 C 
HETATM   15  O   UNL     1     -10.734   2.360 -34.492  1.00  0.00    -0.267 OA
HETATM   16  H   UNL     1     -11.200   0.375 -32.044  1.00  0.00     0.171 HD
BRANCH  14  17
HETATM   17  C   UNL     1     -12.749   1.534 -33.636  1.00  0.00     0.074 A 
HETATM   18  C   UNL     1     -13.513   0.652 -34.385  1.00  0.00     0.027 A 
HETATM   19  C   UNL     1     -14.912   0.791 -34.144  1.00  0.00     0.033 A 
HETATM   20  C   UNL     1     -15.154   1.772 -33.220  1.00  0.00     0.075 A 
HETATM   21  S   UNL     1     -13.750   2.519 -32.644  1.00  0.00    -0.072 SA
HETATM   22 CL   UNL     1     -16.687   2.275 -32.635  1.00  0.00    -0.076 Cl
ENDBRANCH  14  17
ENDBRANCH   1  13
TORSDOF 2
ENDMDL
MODEL 4
REMARK VINA RESULT:      -7.0      1.469      1.899
REMARK  2 active torsions:
REMARK  status: ('A' for Active; 'I' for Inactive)
REMARK    1  A    between atoms: C_2  and  C_3 
REMARK       I    between atoms: C_3  and  N_4 
REMARK    2  A    between atoms: N_4  and  C_5 
ROOT
HETATM    1  C   UNL     1      -3.482   3.571 -31.776  1.00  0.00     0.174 A 
HETATM    2  S   UNL     1      -4.725   4.317 -32.661  1.00  0.00    -0.050 SA
HETATM    3  C   UNL     1      -5.300   2.777 -33.172  1.00  0.00     0.040 A 
HETATM    4  C   UNL     1      -4.483   1.786 -32.606  1.00  0.00     0.079 A 
HETATM    5  N   UNL     1      -3.454   2.260 -31.809  1.00  0.00    -0.223 NA
HETATM    6  C   UNL     1      -6.389   2.474 -34.011  1.00  0.00     0.061 A 
HETATM    7  C   UNL     1      -6.606   1.131 -34.249  1.00  0.00     0.106 A 
HETATM    8  C   UNL     1      -5.821   0.146 -33.706  1.00  0.00     0.107 A 
HETATM    9  O   UNL     1      -6.219  -1.101 -34.080  1.00  0.00    -0.323 OA
HETATM   10  C   UNL     1      -7.342  -0.788 -34.928  1.00  0.00     0.352 A 
HETATM   11  O   UNL     1      -7.599   0.627 -35.035  1.00  0.00    -0.323 OA
HETATM   12  C   UNL     1      -4.751   0.425 -32.878  1.00  0.00     0.073 A 
ENDROOT
BRANCH   1  13
HETATM   13  N   UNL     1      -2.542   4.266 -31.064  1.00  0.00    -0.301 N 
HETATM   14  C   UNL     1      -1.459   4.965 -31.546  1.00  0.00     0.264 C 
HETATM   15  O   UNL     1      -1.178   5.100 -32.731  1.00  0.00    -0.267 OA
HETATM   16  H   UNL     1      -2.685   4.224 -30.064  1.00  0.00     0.171 HD
BRANCH  14  17
HETATM   17  C   UNL     1      -0.617   5.567 -30.509  1.00  0.00     0.074 A 
HETATM   18  C   UNL     1       0.313   4.911 -29.716  1.00  0.00     0.027 A 
HETATM   19  C   UNL     1       0.964   5.781 -28.792  1.00  0.00     0.033 A 
HETATM   20  C   UNL     1       0.503   7.064 -28.921  1.00  0.00     0.075 A 
HETATM   21  S   UNL     1      -0.681   7.241 -30.116  1.00  0.00    -0.072 SA
HETATM   22 CL   UNL     1       1.006   8.430 -28.012  1.00  0.00    -0.076 Cl
ENDBRANCH  14  17
ENDBRANCH   1  13
TORSDOF 2
ENDMDL
MODEL 5
REMARK VINA RESULT:      -7.0      4.044      8.528
REMARK  2 active torsions:
REMARK  status: ('A' for Active; 'I' for Inactive)
REMARK    1  A    between atoms: C_2  and  C_3 
REMARK       I    between atoms: C_3  and  N_4 
REMARK    2  A    between atoms: N_4  and  C_5 
ROOT
HETATM    1  C   UNL     1      -4.538   2.546 -32.337  1.00  0.00     0.174 A 
HETATM    2  S   UNL     1      -5.496   3.623 -31.439  1.00  0.00    -0.050 SA
HETATM    3  C   UNL     1      -4.132   4.644 -31.188  1.00  0.00     0.040 A 
HETATM    4  C   UNL     1      -3.024   4.073 -31.833  1.00  0.00     0.079 A 
HETATM    5  N   UNL     1      -3.278   2.878 -32.486  1.00  0.00    -0.223 NA
HETATM    6  C   UNL     1      -4.054   5.853 -30.473  1.00  0.00     0.061 A 
HETATM    7  C   UNL     1      -2.809   6.450 -30.440  1.00  0.00     0.106 A 
HETATM    8  C   UNL     1      -1.712   5.910 -31.064  1.00  0.00     0.107 A 
HETATM    9  O   UNL     1      -0.593   6.667 -30.896  1.00  0.00    -0.323 OA
HETATM   10  C   UNL     1      -1.110   7.744 -30.087  1.00  0.00     0.352 A 
HETATM   11  O   UNL     1      -2.518   7.616 -29.800  1.00  0.00    -0.323 OA
HETATM   12  C   UNL     1      -1.773   4.726 -31.773  1.00  0.00     0.073 A 
ENDROOT
BRANCH   1  13
HETATM   13  N   UNL     1      -5.017   1.385 -32.881  1.00  0.00    -0.301 N 
HETATM   14  C   UNL     1      -4.666   0.092 -32.567  1.00  0.00     0.264 C 
HETATM   15  O   UNL     1      -3.860  -0.229 -31.700  1.00  0.00    -0.267 OA
HETATM   16  H   UNL     1      -5.700   1.536 -33.611  1.00  0.00     0.171 HD
BRANCH  14  17
HETATM   17  C   UNL     1      -5.340  -0.932 -33.369  1.00  0.00     0.074 A 
HETATM   18  C   UNL     1      -6.649  -0.892 -33.826  1.00  0.00     0.027 A 
HETATM   19  C   UNL     1      -7.009  -2.051 -34.575  1.00  0.00     0.033 A 
HETATM   20  C   UNL     1      -5.958  -2.925 -34.658  1.00  0.00     0.075 A 
HETATM   21  S   UNL     1      -4.565  -2.385 -33.864  1.00  0.00    -0.072 SA
HETATM   22 CL   UNL     1      -5.946  -4.442 -35.460  1.00  0.00    -0.076 Cl
ENDBRANCH  14  17
ENDBRANCH   1  13
TORSDOF 2
ENDMDL
MODEL 6
REMARK VINA RESULT:      -6.9      6.898      9.181
REMARK  2 active torsions:
REMARK  status: ('A' for Active; 'I' for Inactive)
REMARK    1  A    between atoms: C_2  and  C_3 
REMARK       I    between atoms: C_3  and  N_4 
REMARK    2  A    between atoms: N_4  and  C_5 
ROOT
HETATM    1  C   UNL     1      -9.643   1.206 -32.756  1.00  0.00     0.174 A 
HETATM    2  S   UNL     1      -8.263   2.125 -32.387  1.00  0.00    -0.050 SA
HETATM    3  C   UNL     1      -7.251   0.832 -32.905  1.00  0.00     0.040 A 
HETATM    4  C   UNL     1      -8.065  -0.226 -33.338  1.00  0.00     0.079 A 
HETATM    5  N   UNL     1      -9.428   0.010 -33.248  1.00  0.00    -0.223 NA
HETATM    6  C   UNL     1      -5.845   0.763 -32.922  1.00  0.00     0.061 A 
HETATM    7  C   UNL     1      -5.309  -0.420 -33.392  1.00  0.00     0.106 A 
HETATM    8  C   UNL     1      -6.087  -1.466 -33.822  1.00  0.00     0.107 A 
HETATM    9  O   UNL     1      -5.345  -2.529 -34.238  1.00  0.00    -0.323 OA
HETATM   10  C   UNL     1      -4.009  -2.034 -34.015  1.00  0.00     0.352 A 
HETATM   11  O   UNL     1      -3.978  -0.693 -33.484  1.00  0.00    -0.323 OA
HETATM   12  C   UNL     1      -7.467  -1.413 -33.815  1.00  0.00     0.073 A 
ENDROOT
BRANCH   1  13
HETATM   13  N   UNL     1     -10.921   1.653 -32.554  1.00  0.00    -0.301 N 
HETATM   14  C   UNL     1     -11.819   2.107 -33.493  1.00  0.00     0.264 C 
HETATM   15  O   UNL     1     -11.612   2.156 -34.701  1.00  0.00    -0.267 OA
HETATM   16  H   UNL     1     -11.198   1.649 -31.582  1.00  0.00     0.171 HD
BRANCH  14  17
HETATM   17  C   UNL     1     -13.100   2.555 -32.939  1.00  0.00     0.074 A 
HETATM   18  C   UNL     1     -13.325   3.714 -32.213  1.00  0.00     0.027 A 
HETATM   19  C   UNL     1     -14.684   3.857 -31.807  1.00  0.00     0.033 A 
HETATM   20  C   UNL     1     -15.438   2.800 -32.243  1.00  0.00     0.075 A 
HETATM   21  S   UNL     1     -14.555   1.656 -33.119  1.00  0.00    -0.072 SA
HETATM   22 CL   UNL     1     -17.118   2.561 -31.980  1.00  0.00    -0.076 Cl
ENDBRANCH  14  17
ENDBRANCH   1  13
TORSDOF 2
ENDMDL
MODEL 7
REMARK VINA RESULT:      -6.9      4.523      5.504
REMARK  2 active torsions:
REMARK  status: ('A' for Active; 'I' for Inactive)
REMARK    1  A    between atoms: C_2  and  C_3 
REMARK       I    between atoms: C_3  and  N_4 
REMARK    2  A    between atoms: N_4  and  C_5 
ROOT
HETATM    1  C   UNL     1      -6.262   4.272 -33.622  1.00  0.00     0.174 A 
HETATM    2  S   UNL     1      -6.606   2.612 -33.519  1.00  0.00    -0.050 SA
HETATM    3  C   UNL     1      -8.247   2.915 -33.942  1.00  0.00     0.040 A 
HETATM    4  C   UNL     1      -8.409   4.295 -34.143  1.00  0.00     0.079 A 
HETATM    5  N   UNL     1      -7.262   5.051 -33.959  1.00  0.00    -0.223 NA
HETATM    6  C   UNL     1      -9.307   1.999 -34.082  1.00  0.00     0.061 A 
HETATM    7  C   UNL     1     -10.528   2.545 -34.429  1.00  0.00     0.106 A 
HETATM    8  C   UNL     1     -10.708   3.890 -34.631  1.00  0.00     0.107 A 
HETATM    9  O   UNL     1     -11.992   4.199 -34.961  1.00  0.00    -0.323 OA
HETATM   10  C   UNL     1     -12.602   2.893 -34.937  1.00  0.00     0.352 A 
HETATM   11  O   UNL     1     -11.678   1.837 -34.607  1.00  0.00    -0.323 OA
HETATM   12  C   UNL     1      -9.678   4.801 -34.501  1.00  0.00     0.073 A 
ENDROOT
BRANCH   1  13
HETATM   13  N   UNL     1      -5.027   4.803 -33.366  1.00  0.00    -0.301 N 
HETATM   14  C   UNL     1      -4.088   5.244 -34.271  1.00  0.00     0.264 C 
HETATM   15  O   UNL     1      -4.234   5.254 -35.489  1.00  0.00    -0.267 OA
HETATM   16  H   UNL     1      -4.805   4.845 -32.381  1.00  0.00     0.171 HD
BRANCH  14  17
HETATM   17  C   UNL     1      -2.842   5.721 -33.667  1.00  0.00     0.074 A 
HETATM   18  C   UNL     1      -2.127   6.851 -34.034  1.00  0.00     0.027 A 
HETATM   19  C   UNL     1      -0.946   7.036 -33.256  1.00  0.00     0.033 A 
HETATM   20  C   UNL     1      -0.812   6.038 -32.327  1.00  0.00     0.075 A 
HETATM   21  S   UNL     1      -2.062   4.900 -32.373  1.00  0.00    -0.072 SA
HETATM   22 CL   UNL     1       0.458   5.863 -31.186  1.00  0.00    -0.076 Cl
ENDBRANCH  14  17
ENDBRANCH   1  13
TORSDOF 2
ENDMDL
MODEL 8
REMARK VINA RESULT:      -6.7      1.918      2.003
REMARK  2 active torsions:
REMARK  status: ('A' for Active; 'I' for Inactive)
REMARK    1  A    between atoms: C_2  and  C_3 
REMARK       I    between atoms: C_3  and  N_4 
REMARK    2  A    between atoms: N_4  and  C_5 
ROOT
HETATM    1  C   UNL     1      -4.827   2.193 -32.657  1.00  0.00     0.174 A 
HETATM    2  S   UNL     1      -6.235   1.849 -33.542  1.00  0.00    -0.050 SA
HETATM    3  C   UNL     1      -5.742   0.207 -33.708  1.00  0.00     0.040 A 
HETATM    4  C   UNL     1      -4.513   0.042 -33.050  1.00  0.00     0.079 A 
HETATM    5  N   UNL     1      -4.010   1.187 -32.453  1.00  0.00    -0.223 NA
HETATM    6  C   UNL     1      -6.395  -0.849 -34.371  1.00  0.00     0.061 A 
HETATM    7  C   UNL     1      -5.747  -2.068 -34.339  1.00  0.00     0.106 A 
HETATM    8  C   UNL     1      -4.546  -2.252 -33.702  1.00  0.00     0.107 A 
HETATM    9  O   UNL     1      -4.095  -3.532 -33.803  1.00  0.00    -0.323 OA
HETATM   10  C   UNL     1      -5.147  -4.133 -34.584  1.00  0.00     0.352 A 
HETATM   11  O   UNL     1      -6.203  -3.211 -34.923  1.00  0.00    -0.323 OA
HETATM   12  C   UNL     1      -3.894  -1.227 -33.042  1.00  0.00     0.073 A 
ENDROOT
BRANCH   1  13
HETATM   13  N   UNL     1      -4.525   3.438 -32.175  1.00  0.00    -0.301 N 
HETATM   14  C   UNL     1      -3.477   4.255 -32.532  1.00  0.00     0.264 C 
HETATM   15  O   UNL     1      -2.638   3.993 -33.388  1.00  0.00    -0.267 OA
HETATM   16  H   UNL     1      -5.164   3.757 -31.460  1.00  0.00     0.171 HD
BRANCH  14  17
HETATM   17  C   UNL     1      -3.414   5.518 -31.792  1.00  0.00     0.074 A 
HETATM   18  C   UNL     1      -4.064   5.812 -30.603  1.00  0.00     0.027 A 
HETATM   19  C   UNL     1      -3.805   7.136 -30.143  1.00  0.00     0.033 A 
HETATM   20  C   UNL     1      -2.966   7.796 -31.002  1.00  0.00     0.075 A 
HETATM   21  S   UNL     1      -2.491   6.866 -32.331  1.00  0.00    -0.072 SA
HETATM   22 CL   UNL     1      -2.394   9.406 -30.841  1.00  0.00    -0.076 Cl
ENDBRANCH  14  17
ENDBRANCH   1  13
TORSDOF 2
ENDMDL
MODEL 9
REMARK VINA RESULT:      -6.6      5.227      6.668
REMARK  2 active torsions:
REMARK  status: ('A' for Active; 'I' for Inactive)
REMARK    1  A    between atoms: C_2  and  C_3 
REMARK       I    between atoms: C_3  and  N_4 
REMARK    2  A    between atoms: N_4  and  C_5 
ROOT
HETATM    1  C   UNL     1      -0.464   7.324 -29.913  1.00  0.00     0.174 A 
HETATM    2  S   UNL     1       0.503   6.551 -31.075  1.00  0.00    -0.050 SA
HETATM    3  C   UNL     1      -0.881   6.282 -32.064  1.00  0.00     0.040 A 
HETATM    4  C   UNL     1      -2.002   6.825 -31.417  1.00  0.00     0.079 A 
HETATM    5  N   UNL     1      -1.742   7.418 -30.193  1.00  0.00    -0.223 NA
HETATM    6  C   UNL     1      -0.963   5.638 -33.313  1.00  0.00     0.061 A 
HETATM    7  C   UNL     1      -2.226   5.569 -33.868  1.00  0.00     0.106 A 
HETATM    8  C   UNL     1      -3.335   6.093 -33.254  1.00  0.00     0.107 A 
HETATM    9  O   UNL     1      -4.470   5.905 -33.983  1.00  0.00    -0.323 OA
HETATM   10  C   UNL     1      -3.948   5.195 -35.124  1.00  0.00     0.352 A 
HETATM   11  O   UNL     1      -2.523   4.984 -35.062  1.00  0.00    -0.323 OA
HETATM   12  C   UNL     1      -3.271   6.731 -32.031  1.00  0.00     0.073 A 
ENDROOT
BRANCH   1  13
HETATM   13  N   UNL     1       0.026   7.824 -28.737  1.00  0.00    -0.301 N 
HETATM   14  C   UNL     1       0.179   7.171 -27.535  1.00  0.00     0.264 C 
HETATM   15  O   UNL     1      -0.086   5.990 -27.336  1.00  0.00    -0.267 OA
HETATM   16  H   UNL     1       0.283   8.800 -28.792  1.00  0.00     0.171 HD
BRANCH  14  17
HETATM   17  C   UNL     1       0.698   8.009 -26.451  1.00  0.00     0.074 A 
HETATM   18  C   UNL     1       2.019   8.106 -26.043  1.00  0.00     0.027 A 
HETATM   19  C   UNL     1       2.197   9.004 -24.950  1.00  0.00     0.033 A 
HETATM   20  C   UNL     1       1.002   9.557 -24.573  1.00  0.00     0.075 A 
HETATM   21  S   UNL     1      -0.311   9.023 -25.495  1.00  0.00    -0.072 SA
HETATM   22 CL   UNL     1       0.749  10.685 -23.305  1.00  0.00    -0.076 Cl
ENDBRANCH  14  17
ENDBRANCH   1  13
TORSDOF 2
ENDMDL
MODEL 10
REMARK VINA RESULT:      -6.6      5.888      8.916
REMARK  2 active torsions:
REMARK  status: ('A' for Active; 'I' for Inactive)
REMARK    1  A    between atoms: C_2  and  C_3 
REMARK       I    between atoms: C_3  and  N_4 
REMARK    2  A    between atoms: N_4  and  C_5 
ROOT
HETATM    1  C   UNL     1      -7.771   0.841 -32.413  1.00  0.00     0.174 A 
HETATM    2  S   UNL     1      -9.377   1.222 -32.814  1.00  0.00    -0.050 SA
HETATM    3  C   UNL     1      -9.283   2.659 -31.870  1.00  0.00     0.040 A 
HETATM    4  C   UNL     1      -7.996   2.743 -31.314  1.00  0.00     0.079 A 
HETATM    5  N   UNL     1      -7.148   1.698 -31.640  1.00  0.00    -0.223 NA
HETATM    6  C   UNL     1     -10.273   3.632 -31.640  1.00  0.00     0.061 A 
HETATM    7  C   UNL     1      -9.902   4.683 -30.824  1.00  0.00     0.106 A 
HETATM    8  C   UNL     1      -8.651   4.786 -30.271  1.00  0.00     0.107 A 
HETATM    9  O   UNL     1      -8.512   5.901 -29.502  1.00  0.00    -0.323 OA
HETATM   10  C   UNL     1      -9.824   6.486 -29.628  1.00  0.00     0.352 A 
HETATM   11  O   UNL     1     -10.710   5.722 -30.472  1.00  0.00    -0.323 OA
HETATM   12  C   UNL     1      -7.666   3.842 -30.490  1.00  0.00     0.073 A 
ENDROOT
BRANCH   1  13
HETATM   13  N   UNL     1      -7.135  -0.291 -32.847  1.00  0.00    -0.301 N 
HETATM   14  C   UNL     1      -6.776  -0.622 -34.134  1.00  0.00     0.264 C 
HETATM   15  O   UNL     1      -6.953   0.085 -35.119  1.00  0.00    -0.267 OA
HETATM   16  H   UNL     1      -6.936  -0.948 -32.105  1.00  0.00     0.171 HD
BRANCH  14  17
HETATM   17  C   UNL     1      -6.141  -1.936 -34.266  1.00  0.00     0.074 A 
HETATM   18  C   UNL     1      -6.719  -3.083 -34.789  1.00  0.00     0.027 A 
HETATM   19  C   UNL     1      -5.839  -4.205 -34.769  1.00  0.00     0.033 A 
HETATM   20  C   UNL     1      -4.626  -3.864 -34.232  1.00  0.00     0.075 A 
HETATM   21  S   UNL     1      -4.527  -2.243 -33.760  1.00  0.00    -0.072 SA
HETATM   22 CL   UNL     1      -3.274  -4.899 -34.014  1.00  0.00    -0.076 Cl
ENDBRANCH  14  17
ENDBRANCH   1  13
TORSDOF 2
ENDMDL
