MODEL 1
REMARK VINA RESULT:      -9.4      0.000      0.000
REMARK  5 active torsions:
REMARK  status: ('A' for Active; 'I' for Inactive)
REMARK    1  A    between atoms: O_2  and  C_3 
REMARK    2  A    between atoms: C_4  and  O_5 
REMARK    3  A    between atoms: C_6  and  C_7 
REMARK    4  A    between atoms: N_8  and  N_9 
REMARK       I    between atoms: N_9  and  C_10 
REMARK    5  A    between atoms: C_10  and  C_11 
ROOT
HETATM    1  N   UNL     1      -4.260   2.448 -32.690  1.00  0.00    -0.242 N 
HETATM    2  C   UNL     1      -5.433   2.036 -32.076  1.00  0.00     0.292 C 
HETATM    3  O   UNL     1      -5.965   2.600 -31.122  1.00  0.00    -0.264 OA
HETATM    4  H   UNL     1      -3.912   1.891 -33.468  1.00  0.00     0.192 HD
ENDROOT
BRANCH   2   5
HETATM    5  C   UNL     1      -6.000   0.820 -32.685  1.00  0.00     0.154 A 
HETATM    6  N   UNL     1      -7.308   0.718 -33.018  1.00  0.00    -0.168 NA
HETATM    7  N   UNL     1      -7.419  -0.519 -33.552  1.00  0.00    -0.276 N 
HETATM    8  H   UNL     1      -8.329  -0.825 -33.874  1.00  0.00     0.189 HD
HETATM    9  C   UNL     1      -6.245  -1.207 -33.581  1.00  0.00     0.069 A 
HETATM   10  C   UNL     1      -5.307  -0.371 -33.016  1.00  0.00     0.007 A 
HETATM   11  C   UNL     1      -5.959  -2.543 -34.077  1.00  0.00    -0.001 A 
HETATM   12  C   UNL     1      -3.879  -0.768 -32.897  1.00  0.00     0.048 C 
HETATM   13  C   UNL     1      -3.731  -2.307 -32.851  1.00  0.00     0.044 C 
HETATM   14  C   UNL     1      -4.682  -3.073 -33.764  1.00  0.00    -0.045 A 
HETATM   15  C   UNL     1      -4.334  -4.351 -34.219  1.00  0.00     0.008 A 
HETATM   16  C   UNL     1      -5.232  -5.084 -34.994  1.00  0.00     0.001 A 
HETATM   17  C   UNL     1      -6.483  -4.555 -35.310  1.00  0.00     0.001 A 
HETATM   18  C   UNL     1      -6.851  -3.288 -34.852  1.00  0.00     0.014 A 
ENDBRANCH   2   5
BRANCH   1  19
HETATM   19  N   UNL     1      -3.603   3.553 -32.247  1.00  0.00    -0.183 NA
HETATM   20  C   UNL     1      -2.556   3.907 -32.919  1.00  0.00     0.153 C 
BRANCH  20  21
HETATM   21  C   UNL     1      -1.773   5.095 -32.515  1.00  0.00     0.019 A 
HETATM   22  C   UNL     1      -1.062   5.108 -31.316  1.00  0.00     0.110 A 
HETATM   23  C   UNL     1      -0.326   6.240 -30.929  1.00  0.00     0.102 A 
HETATM   24  C   UNL     1      -0.304   7.360 -31.763  1.00  0.00     0.040 A 
HETATM   25  C   UNL     1      -1.014   7.351 -32.967  1.00  0.00     0.004 A 
HETATM   26  C   UNL     1      -1.747   6.224 -33.342  1.00  0.00     0.016 A 
BRANCH  22  27
HETATM   27  O   UNL     1      -1.073   4.014 -30.487  1.00  0.00    -0.357 OA
HETATM   28  H   UNL     1      -0.142   3.896 -30.208  1.00  0.00     0.218 HD
ENDBRANCH  22  27
BRANCH  23  29
HETATM   29  O   UNL     1       0.324   6.124 -29.725  1.00  0.00    -0.353 OA
HETATM   30  C   UNL     1       0.489   7.323 -28.974  1.00  0.00     0.210 C 
ENDBRANCH  23  29
ENDBRANCH  20  21
ENDBRANCH   1  19
TORSDOF 5
ENDMDL
MODEL 2
REMARK VINA RESULT:      -9.1      2.392      2.942
REMARK  5 active torsions:
REMARK  status: ('A' for Active; 'I' for Inactive)
REMARK    1  A    between atoms: O_2  and  C_3 
REMARK    2  A    between atoms: C_4  and  O_5 
REMARK    3  A    between atoms: C_6  and  C_7 
REMARK    4  A    between atoms: N_8  and  N_9 
REMARK       I    between atoms: N_9  and  C_10 
REMARK    5  A    between atoms: C_10  and  C_11 
ROOT
HETATM    1  N   UNL     1      -3.193   2.846 -31.922  1.00  0.00    -0.242 N 
HETATM    2  C   UNL     1      -3.953   1.913 -31.234  1.00  0.00     0.292 C 
HETATM    3  O   UNL     1      -4.836   2.182 -30.423  1.00  0.00    -0.264 OA
HETATM    4  H   UNL     1      -2.482   2.498 -32.562  1.00  0.00     0.192 HD
ENDROOT
BRANCH   2   5
HETATM    5  C   UNL     1      -3.591   0.524 -31.567  1.00  0.00     0.154 A 
HETATM    6  N   UNL     1      -2.473  -0.069 -31.085  1.00  0.00    -0.168 NA
HETATM    7  N   UNL     1      -2.513  -1.319 -31.600  1.00  0.00    -0.276 N 
HETATM    8  H   UNL     1      -1.759  -1.956 -31.375  1.00  0.00     0.189 HD
HETATM    9  C   UNL     1      -3.603  -1.552 -32.381  1.00  0.00     0.069 A 
HETATM   10  C   UNL     1      -4.316  -0.374 -32.390  1.00  0.00     0.007 A 
HETATM   11  C   UNL     1      -3.998  -2.755 -33.095  1.00  0.00    -0.001 A 
HETATM   12  C   UNL     1      -5.603  -0.246 -33.124  1.00  0.00     0.048 C 
HETATM   13  C   UNL     1      -5.677  -1.250 -34.297  1.00  0.00     0.044 C 
HETATM   14  C   UNL     1      -5.072  -2.621 -34.011  1.00  0.00    -0.045 A 
HETATM   15  C   UNL     1      -5.513  -3.741 -34.726  1.00  0.00     0.008 A 
HETATM   16  C   UNL     1      -4.913  -4.983 -34.519  1.00  0.00     0.001 A 
HETATM   17  C   UNL     1      -3.864  -5.113 -33.609  1.00  0.00     0.001 A 
HETATM   18  C   UNL     1      -3.403  -4.002 -32.898  1.00  0.00     0.014 A 
ENDBRANCH   2   5
BRANCH   1  19
HETATM   19  N   UNL     1      -3.395   4.176 -31.726  1.00  0.00    -0.183 NA
HETATM   20  C   UNL     1      -2.344   4.884 -31.459  1.00  0.00     0.153 C 
BRANCH  20  21
HETATM   21  C   UNL     1      -2.461   6.340 -31.228  1.00  0.00     0.019 A 
HETATM   22  C   UNL     1      -3.279   6.840 -30.216  1.00  0.00     0.110 A 
HETATM   23  C   UNL     1      -3.395   8.224 -30.005  1.00  0.00     0.102 A 
HETATM   24  C   UNL     1      -2.675   9.103 -30.815  1.00  0.00     0.040 A 
HETATM   25  C   UNL     1      -1.852   8.606 -31.829  1.00  0.00     0.004 A 
HETATM   26  C   UNL     1      -1.745   7.230 -32.037  1.00  0.00     0.016 A 
BRANCH  22  27
HETATM   27  O   UNL     1      -3.993   5.987 -29.411  1.00  0.00    -0.357 OA
HETATM   28  H   UNL     1      -3.970   5.125 -29.872  1.00  0.00     0.218 HD
ENDBRANCH  22  27
BRANCH  23  29
HETATM   29  O   UNL     1      -4.237   8.583 -28.981  1.00  0.00    -0.353 OA
HETATM   30  C   UNL     1      -3.635   9.213 -27.855  1.00  0.00     0.210 C 
ENDBRANCH  23  29
ENDBRANCH  20  21
ENDBRANCH   1  19
TORSDOF 5
ENDMDL
MODEL 3
REMARK VINA RESULT:      -9.1      2.344      9.892
REMARK  5 active torsions:
REMARK  status: ('A' for Active; 'I' for Inactive)
REMARK    1  A    between atoms: O_2  and  C_3 
REMARK    2  A    between atoms: C_4  and  O_5 
REMARK    3  A    between atoms: C_6  and  C_7 
REMARK    4  A    between atoms: N_8  and  N_9 
REMARK       I    between atoms: N_9  and  C_10 
REMARK    5  A    between atoms: C_10  and  C_11 
ROOT
HETATM    1  N   UNL     1      -3.257   2.853 -31.583  1.00  0.00    -0.242 N 
HETATM    2  C   UNL     1      -2.734   3.977 -32.203  1.00  0.00     0.292 C 
HETATM    3  O   UNL     1      -2.343   4.023 -33.368  1.00  0.00    -0.264 OA
HETATM    4  H   UNL     1      -3.538   2.937 -30.608  1.00  0.00     0.192 HD
ENDROOT
BRANCH   2   5
HETATM    5  C   UNL     1      -2.680   5.148 -31.311  1.00  0.00     0.154 A 
HETATM    6  N   UNL     1      -3.781   5.875 -31.002  1.00  0.00    -0.168 NA
HETATM    7  N   UNL     1      -3.322   6.829 -30.161  1.00  0.00    -0.276 N 
HETATM    8  H   UNL     1      -3.980   7.508 -29.797  1.00  0.00     0.189 HD
HETATM    9  C   UNL     1      -1.986   6.744 -29.916  1.00  0.00     0.069 A 
HETATM   10  C   UNL     1      -1.538   5.671 -30.654  1.00  0.00     0.007 A 
HETATM   11  C   UNL     1      -1.137   7.571 -29.075  1.00  0.00    -0.001 A 
HETATM   12  C   UNL     1      -0.115   5.240 -30.622  1.00  0.00     0.048 C 
HETATM   13  C   UNL     1       0.815   6.419 -30.253  1.00  0.00     0.044 C 
HETATM   14  C   UNL     1       0.261   7.371 -29.198  1.00  0.00    -0.045 A 
HETATM   15  C   UNL     1       1.139   8.126 -28.410  1.00  0.00     0.008 A 
HETATM   16  C   UNL     1       0.636   9.050 -27.495  1.00  0.00     0.001 A 
HETATM   17  C   UNL     1      -0.741   9.237 -27.368  1.00  0.00     0.001 A 
HETATM   18  C   UNL     1      -1.629   8.501 -28.157  1.00  0.00     0.014 A 
ENDBRANCH   2   5
BRANCH   1  19
HETATM   19  N   UNL     1      -3.370   1.682 -32.265  1.00  0.00    -0.183 NA
HETATM   20  C   UNL     1      -4.503   1.065 -32.162  1.00  0.00     0.153 C 
BRANCH  20  21
HETATM   21  C   UNL     1      -4.724  -0.217 -32.867  1.00  0.00     0.019 A 
HETATM   22  C   UNL     1      -3.962  -1.343 -32.557  1.00  0.00     0.110 A 
HETATM   23  C   UNL     1      -4.168  -2.557 -33.233  1.00  0.00     0.102 A 
HETATM   24  C   UNL     1      -5.152  -2.633 -34.221  1.00  0.00     0.040 A 
HETATM   25  C   UNL     1      -5.919  -1.507 -34.533  1.00  0.00     0.004 A 
HETATM   26  C   UNL     1      -5.706  -0.303 -33.860  1.00  0.00     0.016 A 
BRANCH  22  27
HETATM   27  O   UNL     1      -2.992  -1.284 -31.588  1.00  0.00    -0.357 OA
HETATM   28  H   UNL     1      -2.260  -0.775 -31.991  1.00  0.00     0.218 HD
ENDBRANCH  22  27
BRANCH  23  29
HETATM   29  O   UNL     1      -3.349  -3.585 -32.836  1.00  0.00    -0.353 OA
HETATM   30  C   UNL     1      -3.487  -4.815 -33.540  1.00  0.00     0.210 C 
ENDBRANCH  23  29
ENDBRANCH  20  21
ENDBRANCH   1  19
TORSDOF 5
ENDMDL
MODEL 4
REMARK VINA RESULT:      -8.8      2.614     10.394
REMARK  5 active torsions:
REMARK  status: ('A' for Active; 'I' for Inactive)
REMARK    1  A    between atoms: O_2  and  C_3 
REMARK    2  A    between atoms: C_4  and  O_5 
REMARK    3  A    between atoms: C_6  and  C_7 
REMARK    4  A    between atoms: N_8  and  N_9 
REMARK       I    between atoms: N_9  and  C_10 
REMARK    5  A    between atoms: C_10  and  C_11 
ROOT
HETATM    1  N   UNL     1      -2.785   3.687 -31.216  1.00  0.00    -0.242 N 
HETATM    2  C   UNL     1      -1.827   4.520 -31.774  1.00  0.00     0.292 C 
HETATM    3  O   UNL     1      -1.682   4.721 -32.978  1.00  0.00    -0.264 OA
HETATM    4  H   UNL     1      -2.799   3.594 -30.202  1.00  0.00     0.192 HD
ENDROOT
BRANCH   2   5
HETATM    5  C   UNL     1      -0.966   5.157 -30.763  1.00  0.00     0.154 A 
HETATM    6  N   UNL     1       0.162   4.569 -30.297  1.00  0.00    -0.168 NA
HETATM    7  N   UNL     1       0.662   5.465 -29.416  1.00  0.00    -0.276 N 
HETATM    8  H   UNL     1       1.519   5.233 -28.928  1.00  0.00     0.189 HD
HETATM    9  C   UNL     1      -0.087   6.595 -29.303  1.00  0.00     0.069 A 
HETATM   10  C   UNL     1      -1.156   6.423 -30.154  1.00  0.00     0.007 A 
HETATM   11  C   UNL     1       0.122   7.774 -28.478  1.00  0.00    -0.001 A 
HETATM   12  C   UNL     1      -2.193   7.475 -30.328  1.00  0.00     0.048 C 
HETATM   13  C   UNL     1      -2.288   8.375 -29.075  1.00  0.00     0.044 C 
HETATM   14  C   UNL     1      -0.954   8.695 -28.408  1.00  0.00    -0.045 A 
HETATM   15  C   UNL     1      -0.819   9.858 -27.640  1.00  0.00     0.008 A 
HETATM   16  C   UNL     1       0.376  10.117 -26.970  1.00  0.00     0.001 A 
HETATM   17  C   UNL     1       1.437   9.214 -27.050  1.00  0.00     0.001 A 
HETATM   18  C   UNL     1       1.313   8.043 -27.800  1.00  0.00     0.014 A 
ENDBRANCH   2   5
BRANCH   1  19
HETATM   19  N   UNL     1      -3.659   3.015 -32.012  1.00  0.00    -0.183 NA
HETATM   20  C   UNL     1      -3.652   1.725 -31.912  1.00  0.00     0.153 C 
BRANCH  20  21
HETATM   21  C   UNL     1      -4.565   0.905 -32.736  1.00  0.00     0.019 A 
HETATM   22  C   UNL     1      -4.276  -0.432 -33.010  1.00  0.00     0.110 A 
HETATM   23  C   UNL     1      -5.140  -1.207 -33.800  1.00  0.00     0.102 A 
HETATM   24  C   UNL     1      -6.305  -0.629 -34.309  1.00  0.00     0.040 A 
HETATM   25  C   UNL     1      -6.601   0.709 -34.035  1.00  0.00     0.004 A 
HETATM   26  C   UNL     1      -5.734   1.474 -33.253  1.00  0.00     0.016 A 
BRANCH  22  27
HETATM   27  O   UNL     1      -3.134  -1.013 -32.517  1.00  0.00    -0.357 OA
HETATM   28  H   UNL     1      -3.397  -1.924 -32.275  1.00  0.00     0.218 HD
ENDBRANCH  22  27
BRANCH  23  29
HETATM   29  O   UNL     1      -4.736  -2.504 -33.998  1.00  0.00    -0.353 OA
HETATM   30  C   UNL     1      -5.386  -3.220 -35.043  1.00  0.00     0.210 C 
ENDBRANCH  23  29
ENDBRANCH  20  21
ENDBRANCH   1  19
TORSDOF 5
ENDMDL
MODEL 5
REMARK VINA RESULT:      -8.4      3.671      4.208
REMARK  5 active torsions:
REMARK  status: ('A' for Active; 'I' for Inactive)
REMARK    1  A    between atoms: O_2  and  C_3 
REMARK    2  A    between atoms: C_4  and  O_5 
REMARK    3  A    between atoms: C_6  and  C_7 
REMARK    4  A    between atoms: N_8  and  N_9 
REMARK       I    between atoms: N_9  and  C_10 
REMARK    5  A    between atoms: C_10  and  C_11 
ROOT
HETATM    1  N   UNL     1      -5.826   2.336 -31.185  1.00  0.00    -0.242 N 
HETATM    2  C   UNL     1      -5.126   2.292 -32.380  1.00  0.00     0.292 C 
HETATM    3  O   UNL     1      -4.908   3.259 -33.107  1.00  0.00    -0.264 OA
HETATM    4  H   UNL     1      -5.950   1.463 -30.676  1.00  0.00     0.192 HD
ENDROOT
BRANCH   2   5
HETATM    5  C   UNL     1      -4.656   0.936 -32.716  1.00  0.00     0.154 A 
HETATM    6  N   UNL     1      -3.383   0.533 -32.490  1.00  0.00    -0.168 NA
HETATM    7  N   UNL     1      -3.363  -0.751 -32.911  1.00  0.00    -0.276 N 
HETATM    8  H   UNL     1      -2.493  -1.266 -32.843  1.00  0.00     0.189 HD
HETATM    9  C   UNL     1      -4.560  -1.187 -33.388  1.00  0.00     0.069 A 
HETATM   10  C   UNL     1      -5.417  -0.115 -33.286  1.00  0.00     0.007 A 
HETATM   11  C   UNL     1      -4.935  -2.488 -33.918  1.00  0.00    -0.001 A 
HETATM   12  C   UNL     1      -6.845  -0.215 -33.689  1.00  0.00     0.048 C 
HETATM   13  C   UNL     1      -7.047  -1.319 -34.752  1.00  0.00     0.044 C 
HETATM   14  C   UNL     1      -6.202  -2.572 -34.548  1.00  0.00    -0.045 A 
HETATM   15  C   UNL     1      -6.633  -3.797 -35.072  1.00  0.00     0.008 A 
HETATM   16  C   UNL     1      -5.828  -4.930 -34.951  1.00  0.00     0.001 A 
HETATM   17  C   UNL     1      -4.587  -4.847 -34.320  1.00  0.00     0.001 A 
HETATM   18  C   UNL     1      -4.137  -3.629 -33.805  1.00  0.00     0.014 A 
ENDBRANCH   2   5
BRANCH   1  19
HETATM   19  N   UNL     1      -6.336   3.512 -30.730  1.00  0.00    -0.183 NA
HETATM   20  C   UNL     1      -5.555   4.227 -29.986  1.00  0.00     0.153 C 
BRANCH  20  21
HETATM   21  C   UNL     1      -6.018   5.522 -29.443  1.00  0.00     0.019 A 
HETATM   22  C   UNL     1      -5.609   5.956 -28.182  1.00  0.00     0.110 A 
HETATM   23  C   UNL     1      -6.056   7.182 -27.664  1.00  0.00     0.102 A 
HETATM   24  C   UNL     1      -6.915   7.976 -28.427  1.00  0.00     0.040 A 
HETATM   25  C   UNL     1      -7.327   7.546 -29.692  1.00  0.00     0.004 A 
HETATM   26  C   UNL     1      -6.881   6.323 -30.198  1.00  0.00     0.016 A 
BRANCH  22  27
HETATM   27  O   UNL     1      -4.764   5.188 -27.421  1.00  0.00    -0.357 OA
HETATM   28  H   UNL     1      -5.209   5.104 -26.553  1.00  0.00     0.218 HD
ENDBRANCH  22  27
BRANCH  23  29
HETATM   29  O   UNL     1      -5.583   7.488 -26.412  1.00  0.00    -0.353 OA
HETATM   30  C   UNL     1      -4.704   8.604 -26.320  1.00  0.00     0.210 C 
ENDBRANCH  23  29
ENDBRANCH  20  21
ENDBRANCH   1  19
TORSDOF 5
ENDMDL
MODEL 6
REMARK VINA RESULT:      -8.2      2.558      4.016
REMARK  5 active torsions:
REMARK  status: ('A' for Active; 'I' for Inactive)
REMARK    1  A    between atoms: O_2  and  C_3 
REMARK    2  A    between atoms: C_4  and  O_5 
REMARK    3  A    between atoms: C_6  and  C_7 
REMARK    4  A    between atoms: N_8  and  N_9 
REMARK       I    between atoms: N_9  and  C_10 
REMARK    5  A    between atoms: C_10  and  C_11 
ROOT
HETATM    1  N   UNL     1      -3.340   5.688 -31.140  1.00  0.00    -0.242 N 
HETATM    2  C   UNL     1      -3.049   4.411 -31.596  1.00  0.00     0.292 C 
HETATM    3  O   UNL     1      -1.977   3.832 -31.436  1.00  0.00    -0.264 OA
HETATM    4  H   UNL     1      -4.263   6.065 -31.344  1.00  0.00     0.192 HD
ENDROOT
BRANCH   2   5
HETATM    5  C   UNL     1      -4.174   3.794 -32.319  1.00  0.00     0.154 A 
HETATM    6  N   UNL     1      -5.187   4.524 -32.844  1.00  0.00    -0.168 NA
HETATM    7  N   UNL     1      -5.989   3.606 -33.428  1.00  0.00    -0.276 N 
HETATM    8  H   UNL     1      -6.832   3.927 -33.889  1.00  0.00     0.189 HD
HETATM    9  C   UNL     1      -5.536   2.329 -33.305  1.00  0.00     0.069 A 
HETATM   10  C   UNL     1      -4.367   2.414 -32.582  1.00  0.00     0.007 A 
HETATM   11  C   UNL     1      -6.107   1.085 -33.795  1.00  0.00    -0.001 A 
HETATM   12  C   UNL     1      -3.555   1.209 -32.266  1.00  0.00     0.048 C 
HETATM   13  C   UNL     1      -4.431  -0.064 -32.247  1.00  0.00     0.044 C 
HETATM   14  C   UNL     1      -5.520  -0.112 -33.315  1.00  0.00    -0.045 A 
HETATM   15  C   UNL     1      -6.013  -1.347 -33.753  1.00  0.00     0.008 A 
HETATM   16  C   UNL     1      -7.058  -1.395 -34.675  1.00  0.00     0.001 A 
HETATM   17  C   UNL     1      -7.626  -0.214 -35.154  1.00  0.00     0.001 A 
HETATM   18  C   UNL     1      -7.155   1.026 -34.716  1.00  0.00     0.014 A 
ENDBRANCH   2   5
BRANCH   1  19
HETATM   19  N   UNL     1      -2.406   6.403 -30.457  1.00  0.00    -0.183 NA
HETATM   20  C   UNL     1      -2.832   7.080 -29.439  1.00  0.00     0.153 C 
BRANCH  20  21
HETATM   21  C   UNL     1      -1.894   7.890 -28.633  1.00  0.00     0.019 A 
HETATM   22  C   UNL     1      -0.845   7.288 -27.937  1.00  0.00     0.110 A 
HETATM   23  C   UNL     1       0.040   8.057 -27.166  1.00  0.00     0.102 A 
HETATM   24  C   UNL     1      -0.132   9.442 -27.102  1.00  0.00     0.040 A 
HETATM   25  C   UNL     1      -1.180  10.050 -27.799  1.00  0.00     0.004 A 
HETATM   26  C   UNL     1      -2.059   9.277 -28.561  1.00  0.00     0.016 A 
BRANCH  22  27
HETATM   27  O   UNL     1      -0.664   5.928 -27.991  1.00  0.00    -0.357 OA
HETATM   28  H   UNL     1      -0.718   5.702 -28.941  1.00  0.00     0.218 HD
ENDBRANCH  22  27
BRANCH  23  29
HETATM   29  O   UNL     1       1.023   7.342 -26.528  1.00  0.00    -0.353 OA
HETATM   30  C   UNL     1       2.033   8.098 -25.868  1.00  0.00     0.210 C 
ENDBRANCH  23  29
ENDBRANCH  20  21
ENDBRANCH   1  19
TORSDOF 5
ENDMDL
MODEL 7
REMARK VINA RESULT:      -8.2      3.641      4.941
REMARK  5 active torsions:
REMARK  status: ('A' for Active; 'I' for Inactive)
REMARK    1  A    between atoms: O_2  and  C_3 
REMARK    2  A    between atoms: C_4  and  O_5 
REMARK    3  A    between atoms: C_6  and  C_7 
REMARK    4  A    between atoms: N_8  and  N_9 
REMARK       I    between atoms: N_9  and  C_10 
REMARK    5  A    between atoms: C_10  and  C_11 
ROOT
HETATM    1  N   UNL     1      -5.581   2.479 -33.107  1.00  0.00    -0.242 N 
HETATM    2  C   UNL     1      -6.362   2.179 -32.001  1.00  0.00     0.292 C 
HETATM    3  O   UNL     1      -6.055   2.415 -30.835  1.00  0.00    -0.264 OA
HETATM    4  H   UNL     1      -5.940   2.224 -34.024  1.00  0.00     0.192 HD
ENDROOT
BRANCH   2   5
HETATM    5  C   UNL     1      -7.632   1.525 -32.361  1.00  0.00     0.154 A 
HETATM    6  N   UNL     1      -7.876   0.219 -32.095  1.00  0.00    -0.168 NA
HETATM    7  N   UNL     1      -9.130   0.016 -32.556  1.00  0.00    -0.276 N 
HETATM    8  H   UNL     1      -9.531  -0.910 -32.468  1.00  0.00     0.189 HD
HETATM    9  C   UNL     1      -9.699   1.127 -33.097  1.00  0.00     0.069 A 
HETATM   10  C   UNL     1      -8.750   2.120 -32.996  1.00  0.00     0.007 A 
HETATM   11  C   UNL     1     -11.016   1.309 -33.684  1.00  0.00    -0.001 A 
HETATM   12  C   UNL     1      -9.019   3.507 -33.463  1.00  0.00     0.048 C 
HETATM   13  C   UNL     1     -10.099   3.523 -34.569  1.00  0.00     0.044 C 
HETATM   14  C   UNL     1     -11.239   2.530 -34.370  1.00  0.00    -0.045 A 
HETATM   15  C   UNL     1     -12.489   2.777 -34.951  1.00  0.00     0.008 A 
HETATM   16  C   UNL     1     -13.513   1.837 -34.833  1.00  0.00     0.001 A 
HETATM   17  C   UNL     1     -13.293   0.642 -34.148  1.00  0.00     0.001 A 
HETATM   18  C   UNL     1     -12.048   0.374 -33.574  1.00  0.00     0.014 A 
ENDBRANCH   2   5
BRANCH   1  19
HETATM   19  N   UNL     1      -4.371   3.080 -32.951  1.00  0.00    -0.183 NA
HETATM   20  C   UNL     1      -4.365   4.374 -32.978  1.00  0.00     0.153 C 
BRANCH  20  21
HETATM   21  C   UNL     1      -3.098   5.120 -32.818  1.00  0.00     0.019 A 
HETATM   22  C   UNL     1      -2.110   4.672 -31.942  1.00  0.00     0.110 A 
HETATM   23  C   UNL     1      -0.912   5.386 -31.784  1.00  0.00     0.102 A 
HETATM   24  C   UNL     1      -0.709   6.555 -32.521  1.00  0.00     0.040 A 
HETATM   25  C   UNL     1      -1.696   7.007 -33.401  1.00  0.00     0.004 A 
HETATM   26  C   UNL     1      -2.887   6.294 -33.549  1.00  0.00     0.016 A 
BRANCH  22  27
HETATM   27  O   UNL     1      -2.295   3.524 -31.212  1.00  0.00    -0.357 OA
HETATM   28  H   UNL     1      -2.661   2.875 -31.846  1.00  0.00     0.218 HD
ENDBRANCH  22  27
BRANCH  23  29
HETATM   29  O   UNL     1      -0.026   4.840 -30.888  1.00  0.00    -0.353 OA
HETATM   30  C   UNL     1       0.161   5.548 -29.667  1.00  0.00     0.210 C 
ENDBRANCH  23  29
ENDBRANCH  20  21
ENDBRANCH   1  19
TORSDOF 5
ENDMDL
MODEL 8
REMARK VINA RESULT:      -8.2      4.513      6.999
REMARK  5 active torsions:
REMARK  status: ('A' for Active; 'I' for Inactive)
REMARK    1  A    between atoms: O_2  and  C_3 
REMARK    2  A    between atoms: C_4  and  O_5 
REMARK    3  A    between atoms: C_6  and  C_7 
REMARK    4  A    between atoms: N_8  and  N_9 
REMARK       I    between atoms: N_9  and  C_10 
REMARK    5  A    between atoms: C_10  and  C_11 
ROOT
HETATM    1  N   UNL     1      -7.472   2.102 -33.702  1.00  0.00    -0.242 N 
HETATM    2  C   UNL     1      -6.532   2.068 -32.684  1.00  0.00     0.292 C 
HETATM    3  O   UNL     1      -6.430   2.905 -31.790  1.00  0.00    -0.264 OA
HETATM    4  H   UNL     1      -7.450   1.354 -34.393  1.00  0.00     0.192 HD
ENDROOT
BRANCH   2   5
HETATM    5  C   UNL     1      -5.632   0.905 -32.777  1.00  0.00     0.154 A 
HETATM    6  N   UNL     1      -4.358   0.935 -32.319  1.00  0.00    -0.168 NA
HETATM    7  N   UNL     1      -3.886  -0.306 -32.570  1.00  0.00    -0.276 N 
HETATM    8  H   UNL     1      -2.930  -0.519 -32.312  1.00  0.00     0.189 HD
HETATM    9  C   UNL     1      -4.797  -1.127 -33.161  1.00  0.00     0.069 A 
HETATM   10  C   UNL     1      -5.936  -0.369 -33.319  1.00  0.00     0.007 A 
HETATM   11  C   UNL     1      -4.672  -2.515 -33.574  1.00  0.00    -0.001 A 
HETATM   12  C   UNL     1      -7.176  -0.938 -33.912  1.00  0.00     0.048 C 
HETATM   13  C   UNL     1      -6.851  -2.124 -34.848  1.00  0.00     0.044 C 
HETATM   14  C   UNL     1      -5.725  -3.034 -34.369  1.00  0.00    -0.045 A 
HETATM   15  C   UNL     1      -5.675  -4.367 -34.795  1.00  0.00     0.008 A 
HETATM   16  C   UNL     1      -4.608  -5.182 -34.418  1.00  0.00     0.001 A 
HETATM   17  C   UNL     1      -3.579  -4.670 -33.627  1.00  0.00     0.001 A 
HETATM   18  C   UNL     1      -3.607  -3.339 -33.205  1.00  0.00     0.014 A 
ENDBRANCH   2   5
BRANCH   1  19
HETATM   19  N   UNL     1      -8.377   3.115 -33.768  1.00  0.00    -0.183 NA
HETATM   20  C   UNL     1      -9.409   2.915 -34.524  1.00  0.00     0.153 C 
BRANCH  20  21
HETATM   21  C   UNL     1     -10.449   3.958 -34.661  1.00  0.00     0.019 A 
HETATM   22  C   UNL     1     -10.100   5.293 -34.861  1.00  0.00     0.110 A 
HETATM   23  C   UNL     1     -11.089   6.283 -34.983  1.00  0.00     0.102 A 
HETATM   24  C   UNL     1     -12.435   5.919 -34.910  1.00  0.00     0.040 A 
HETATM   25  C   UNL     1     -12.789   4.582 -34.711  1.00  0.00     0.004 A 
HETATM   26  C   UNL     1     -11.801   3.604 -34.586  1.00  0.00     0.016 A 
BRANCH  22  27
HETATM   27  O   UNL     1      -8.781   5.666 -34.937  1.00  0.00    -0.357 OA
HETATM   28  H   UNL     1      -8.659   5.985 -35.854  1.00  0.00     0.218 HD
ENDBRANCH  22  27
BRANCH  23  29
HETATM   29  O   UNL     1     -10.612   7.557 -35.172  1.00  0.00    -0.353 OA
HETATM   30  C   UNL     1     -11.414   8.424 -35.966  1.00  0.00     0.210 C 
ENDBRANCH  23  29
ENDBRANCH  20  21
ENDBRANCH   1  19
TORSDOF 5
ENDMDL
MODEL 9
REMARK VINA RESULT:      -8.1      4.597      7.600
REMARK  5 active torsions:
REMARK  status: ('A' for Active; 'I' for Inactive)
REMARK    1  A    between atoms: O_2  and  C_3 
REMARK    2  A    between atoms: C_4  and  O_5 
REMARK    3  A    between atoms: C_6  and  C_7 
REMARK    4  A    between atoms: N_8  and  N_9 
REMARK       I    between atoms: N_9  and  C_10 
REMARK    5  A    between atoms: C_10  and  C_11 
ROOT
HETATM    1  N   UNL     1      -7.629   1.861 -34.051  1.00  0.00    -0.242 N 
HETATM    2  C   UNL     1      -6.632   1.985 -33.095  1.00  0.00     0.292 C 
HETATM    3  O   UNL     1      -6.511   2.931 -32.321  1.00  0.00    -0.264 OA
HETATM    4  H   UNL     1      -7.619   1.033 -34.643  1.00  0.00     0.192 HD
ENDROOT
BRANCH   2   5
HETATM    5  C   UNL     1      -5.697   0.846 -33.097  1.00  0.00     0.154 A 
HETATM    6  N   UNL     1      -4.428   0.950 -32.636  1.00  0.00    -0.168 NA
HETATM    7  N   UNL     1      -3.916  -0.292 -32.791  1.00  0.00    -0.276 N 
HETATM    8  H   UNL     1      -2.956  -0.455 -32.514  1.00  0.00     0.189 HD
HETATM    9  C   UNL     1      -4.798  -1.182 -33.322  1.00  0.00     0.069 A 
HETATM   10  C   UNL     1      -5.959  -0.474 -33.542  1.00  0.00     0.007 A 
HETATM   11  C   UNL     1      -4.628  -2.593 -33.629  1.00  0.00    -0.001 A 
HETATM   12  C   UNL     1      -7.177  -1.123 -34.095  1.00  0.00     0.048 C 
HETATM   13  C   UNL     1      -6.810  -2.367 -34.938  1.00  0.00     0.044 C 
HETATM   14  C   UNL     1      -5.660  -3.202 -34.387  1.00  0.00    -0.045 A 
HETATM   15  C   UNL     1      -5.567  -4.562 -34.711  1.00  0.00     0.008 A 
HETATM   16  C   UNL     1      -4.478  -5.312 -34.269  1.00  0.00     0.001 A 
HETATM   17  C   UNL     1      -3.471  -4.712 -33.514  1.00  0.00     0.001 A 
HETATM   18  C   UNL     1      -3.541  -3.354 -33.195  1.00  0.00     0.014 A 
ENDBRANCH   2   5
BRANCH   1  19
HETATM   19  N   UNL     1      -8.573   2.831 -34.188  1.00  0.00    -0.183 NA
HETATM   20  C   UNL     1      -9.807   2.441 -34.148  1.00  0.00     0.153 C 
BRANCH  20  21
HETATM   21  C   UNL     1     -10.906   3.420 -34.288  1.00  0.00     0.019 A 
HETATM   22  C   UNL     1     -12.070   3.302 -33.529  1.00  0.00     0.110 A 
HETATM   23  C   UNL     1     -13.116   4.228 -33.670  1.00  0.00     0.102 A 
HETATM   24  C   UNL     1     -12.982   5.282 -34.577  1.00  0.00     0.040 A 
HETATM   25  C   UNL     1     -11.816   5.405 -35.338  1.00  0.00     0.004 A 
HETATM   26  C   UNL     1     -10.782   4.478 -35.196  1.00  0.00     0.016 A 
BRANCH  22  27
HETATM   27  O   UNL     1     -12.217   2.273 -32.633  1.00  0.00    -0.357 OA
HETATM   28  H   UNL     1     -12.751   2.645 -31.903  1.00  0.00     0.218 HD
ENDBRANCH  22  27
BRANCH  23  29
HETATM   29  O   UNL     1     -14.207   3.995 -32.869  1.00  0.00    -0.353 OA
HETATM   30  C   UNL     1     -14.380   4.872 -31.761  1.00  0.00     0.210 C 
ENDBRANCH  23  29
ENDBRANCH  20  21
ENDBRANCH   1  19
TORSDOF 5
ENDMDL
MODEL 10
REMARK VINA RESULT:      -8.1      2.442     10.169
REMARK  5 active torsions:
REMARK  status: ('A' for Active; 'I' for Inactive)
REMARK    1  A    between atoms: O_2  and  C_3 
REMARK    2  A    between atoms: C_4  and  O_5 
REMARK    3  A    between atoms: C_6  and  C_7 
REMARK    4  A    between atoms: N_8  and  N_9 
REMARK       I    between atoms: N_9  and  C_10 
REMARK    5  A    between atoms: C_10  and  C_11 
ROOT
HETATM    1  N   UNL     1      -3.803   4.164 -30.828  1.00  0.00    -0.242 N 
HETATM    2  C   UNL     1      -3.232   5.187 -31.569  1.00  0.00     0.292 C 
HETATM    3  O   UNL     1      -3.006   5.144 -32.776  1.00  0.00    -0.264 OA
HETATM    4  H   UNL     1      -3.931   4.315 -29.830  1.00  0.00     0.192 HD
ENDROOT
BRANCH   2   5
HETATM    5  C   UNL     1      -2.903   6.368 -30.751  1.00  0.00     0.154 A 
HETATM    6  N   UNL     1      -3.785   7.373 -30.541  1.00  0.00    -0.168 NA
HETATM    7  N   UNL     1      -3.119   8.237 -29.742  1.00  0.00    -0.276 N 
HETATM    8  H   UNL     1      -3.590   9.086 -29.453  1.00  0.00     0.189 HD
HETATM    9  C   UNL     1      -1.859   7.829 -29.429  1.00  0.00     0.069 A 
HETATM   10  C   UNL     1      -1.684   6.626 -30.075  1.00  0.00     0.007 A 
HETATM   11  C   UNL     1      -0.850   8.470 -28.602  1.00  0.00    -0.001 A 
HETATM   12  C   UNL     1      -0.423   5.848 -29.948  1.00  0.00     0.048 C 
HETATM   13  C   UNL     1       0.770   6.772 -29.611  1.00  0.00     0.044 C 
HETATM   14  C   UNL     1       0.451   7.909 -28.645  1.00  0.00    -0.045 A 
HETATM   15  C   UNL     1       1.471   8.469 -27.867  1.00  0.00     0.008 A 
HETATM   16  C   UNL     1       1.199   9.557 -27.037  1.00  0.00     0.001 A 
HETATM   17  C   UNL     1      -0.085  10.099 -26.988  1.00  0.00     0.001 A 
HETATM   18  C   UNL     1      -1.110   9.561 -27.769  1.00  0.00     0.014 A 
ENDBRANCH   2   5
BRANCH   1  19
HETATM   19  N   UNL     1      -4.162   2.998 -31.430  1.00  0.00    -0.183 NA
HETATM   20  C   UNL     1      -3.369   1.990 -31.249  1.00  0.00     0.153 C 
BRANCH  20  21
HETATM   21  C   UNL     1      -3.673   0.680 -31.863  1.00  0.00     0.019 A 
HETATM   22  C   UNL     1      -4.686   0.552 -32.813  1.00  0.00     0.110 A 
HETATM   23  C   UNL     1      -4.978  -0.694 -33.389  1.00  0.00     0.102 A 
HETATM   24  C   UNL     1      -4.238  -1.816 -33.006  1.00  0.00     0.040 A 
HETATM   25  C   UNL     1      -3.221  -1.693 -32.056  1.00  0.00     0.004 A 
HETATM   26  C   UNL     1      -2.940  -0.450 -31.484  1.00  0.00     0.016 A 
BRANCH  22  27
HETATM   27  O   UNL     1      -5.420   1.646 -33.199  1.00  0.00    -0.357 OA
HETATM   28  H   UNL     1      -6.051   1.306 -33.866  1.00  0.00     0.218 HD
ENDBRANCH  22  27
BRANCH  23  29
HETATM   29  O   UNL     1      -6.000  -0.683 -34.306  1.00  0.00    -0.353 OA
HETATM   30  C   UNL     1      -6.755  -1.883 -34.430  1.00  0.00     0.210 C 
ENDBRANCH  23  29
ENDBRANCH  20  21
ENDBRANCH   1  19
TORSDOF 5
ENDMDL
