MODEL 1
REMARK VINA RESULT:      -8.2      0.000      0.000
REMARK  2 active torsions:
REMARK  status: ('A' for Active; 'I' for Inactive)
REMARK    1  A    between atoms: C_11  and  N_12 
REMARK       I    between atoms: N_12  and  C_13 
REMARK    2  A    between atoms: C_13  and  C_14 
ROOT
HETATM    1  N   UNL     1      -6.165   2.168 -33.540  1.00  0.00    -0.351 N 
HETATM    2  C   UNL     1      -5.630   3.442 -33.662  1.00  0.00     0.273 C 
HETATM    3  O   UNL     1      -5.992   4.241 -34.519  1.00  0.00    -0.266 OA
HETATM    4  H   UNL     1      -5.578   1.589 -32.935  1.00  0.00     0.163 HD
ENDROOT
BRANCH   1   5
HETATM    5  C   UNL     1      -7.017   1.571 -34.547  1.00  0.00     0.089 C 
HETATM    6  C   UNL     1      -8.512   1.568 -34.201  1.00  0.00     0.063 C 
HETATM    7  C   UNL     1      -8.921   0.587 -33.097  1.00  0.00     0.121 C 
HETATM    8  N   UNL     1      -8.352  -0.783 -33.402  1.00  0.00    -0.059 N 
HETATM    9  C   UNL     1      -8.526   1.026 -31.683  1.00  0.00     0.046 C 
HETATM   10  C   UNL     1     -10.457   0.422 -33.113  1.00  0.00     0.046 C 
HETATM   11  C   UNL     1      -6.918  -0.933 -33.863  1.00  0.00     0.121 C 
HETATM   12  H   UNL     1      -8.950  -1.197 -34.132  1.00  0.00     0.279 HD
HETATM   13  H   UNL     1      -8.503  -1.390 -32.582  1.00  0.00     0.279 HD
HETATM   14  C   UNL     1      -5.974  -0.954 -32.654  1.00  0.00     0.046 C 
HETATM   15  C   UNL     1      -6.831  -2.319 -34.536  1.00  0.00     0.046 C 
HETATM   16  C   UNL     1      -6.572   0.148 -34.902  1.00  0.00     0.063 C 
ENDBRANCH   1   5
BRANCH   2  17
HETATM   17  C   UNL     1      -4.604   3.725 -32.650  1.00  0.00     0.157 A 
HETATM   18  N   UNL     1      -4.809   3.402 -31.353  1.00  0.00    -0.168 NA
HETATM   19  N   UNL     1      -3.679   3.816 -30.742  1.00  0.00    -0.277 N 
HETATM   20  H   UNL     1      -3.588   3.682 -29.741  1.00  0.00     0.189 HD
HETATM   21  C   UNL     1      -2.761   4.387 -31.579  1.00  0.00     0.063 A 
HETATM   22  C   UNL     1      -3.333   4.336 -32.845  1.00  0.00     0.028 A 
HETATM   23  C   UNL     1      -1.497   4.931 -31.334  1.00  0.00     0.032 A 
HETATM   24  C   UNL     1      -2.609   4.850 -33.939  1.00  0.00     0.016 A 
HETATM   25  C   UNL     1      -1.340   5.396 -33.717  1.00  0.00     0.001 A 
HETATM   26  C   UNL     1      -0.796   5.437 -32.434  1.00  0.00     0.002 A 
ENDBRANCH   2  17
TORSDOF 2
ENDMDL
MODEL 2
REMARK VINA RESULT:      -8.1      2.451      6.528
REMARK  2 active torsions:
REMARK  status: ('A' for Active; 'I' for Inactive)
REMARK    1  A    between atoms: C_11  and  N_12 
REMARK       I    between atoms: N_12  and  C_13 
REMARK    2  A    between atoms: C_13  and  C_14 
ROOT
HETATM    1  N   UNL     1      -6.141   1.323 -33.633  1.00  0.00    -0.351 N 
HETATM    2  C   UNL     1      -6.433   0.175 -34.356  1.00  0.00     0.273 C 
HETATM    3  O   UNL     1      -7.374   0.097 -35.136  1.00  0.00    -0.266 OA
HETATM    4  H   UNL     1      -5.482   1.114 -32.880  1.00  0.00     0.163 HD
ENDROOT
BRANCH   1   5
HETATM    5  C   UNL     1      -7.047   2.449 -33.542  1.00  0.00     0.089 C 
HETATM    6  C   UNL     1      -6.414   3.807 -33.872  1.00  0.00     0.063 C 
HETATM    7  C   UNL     1      -5.443   4.345 -32.816  1.00  0.00     0.121 C 
HETATM    8  N   UNL     1      -6.095   4.280 -31.450  1.00  0.00    -0.059 N 
HETATM    9  C   UNL     1      -4.083   3.641 -32.791  1.00  0.00     0.046 C 
HETATM   10  C   UNL     1      -5.180   5.842 -33.089  1.00  0.00     0.046 C 
HETATM   11  C   UNL     1      -6.853   3.041 -31.021  1.00  0.00     0.121 C 
HETATM   12  H   UNL     1      -6.753   5.071 -31.396  1.00  0.00     0.279 HD
HETATM   13  H   UNL     1      -5.384   4.497 -30.736  1.00  0.00     0.279 HD
HETATM   14  C   UNL     1      -5.882   1.994 -30.463  1.00  0.00     0.046 C 
HETATM   15  C   UNL     1      -7.766   3.485 -29.858  1.00  0.00     0.046 C 
HETATM   16  C   UNL     1      -7.731   2.523 -32.173  1.00  0.00     0.063 C 
ENDBRANCH   1   5
BRANCH   2  17
HETATM   17  C   UNL     1      -5.487  -0.917 -34.090  1.00  0.00     0.157 A 
HETATM   18  N   UNL     1      -4.285  -0.665 -33.523  1.00  0.00    -0.168 NA
HETATM   19  N   UNL     1      -3.708  -1.882 -33.452  1.00  0.00    -0.277 N 
HETATM   20  H   UNL     1      -2.778  -1.958 -33.054  1.00  0.00     0.189 HD
HETATM   21  C   UNL     1      -4.476  -2.901 -33.943  1.00  0.00     0.063 A 
HETATM   22  C   UNL     1      -5.658  -2.304 -34.364  1.00  0.00     0.028 A 
HETATM   23  C   UNL     1      -4.235  -4.275 -34.047  1.00  0.00     0.032 A 
HETATM   24  C   UNL     1      -6.669  -3.114 -34.918  1.00  0.00     0.016 A 
HETATM   25  C   UNL     1      -6.450  -4.492 -35.028  1.00  0.00     0.001 A 
HETATM   26  C   UNL     1      -5.251  -5.060 -34.601  1.00  0.00     0.002 A 
ENDBRANCH   2  17
TORSDOF 2
ENDMDL
MODEL 3
REMARK VINA RESULT:      -8.1      2.651      6.700
REMARK  2 active torsions:
REMARK  status: ('A' for Active; 'I' for Inactive)
REMARK    1  A    between atoms: C_11  and  N_12 
REMARK       I    between atoms: N_12  and  C_13 
REMARK    2  A    between atoms: C_13  and  C_14 
ROOT
HETATM    1  N   UNL     1      -4.915   1.002 -32.342  1.00  0.00    -0.351 N 
HETATM    2  C   UNL     1      -4.253  -0.037 -32.979  1.00  0.00     0.273 C 
HETATM    3  O   UNL     1      -3.040  -0.198 -32.915  1.00  0.00    -0.266 OA
HETATM    4  H   UNL     1      -5.866   1.098 -32.706  1.00  0.00     0.163 HD
ENDROOT
BRANCH   1   5
HETATM    5  C   UNL     1      -4.226   2.128 -31.746  1.00  0.00     0.089 C 
HETATM    6  C   UNL     1      -4.914   2.719 -30.509  1.00  0.00     0.063 C 
HETATM    7  C   UNL     1      -6.202   3.499 -30.793  1.00  0.00     0.121 C 
HETATM    8  N   UNL     1      -5.951   4.502 -31.901  1.00  0.00    -0.059 N 
HETATM    9  C   UNL     1      -7.411   2.623 -31.131  1.00  0.00     0.046 C 
HETATM   10  C   UNL     1      -6.573   4.331 -29.546  1.00  0.00     0.046 C 
HETATM   11  C   UNL     1      -5.186   4.096 -33.143  1.00  0.00     0.121 C 
HETATM   12  H   UNL     1      -5.444   5.292 -31.478  1.00  0.00     0.279 HD
HETATM   13  H   UNL     1      -6.855   4.908 -32.186  1.00  0.00     0.279 HD
HETATM   14  C   UNL     1      -6.128   3.419 -34.146  1.00  0.00     0.046 C 
HETATM   15  C   UNL     1      -4.698   5.410 -33.788  1.00  0.00     0.046 C 
HETATM   16  C   UNL     1      -3.963   3.242 -32.766  1.00  0.00     0.063 C 
ENDBRANCH   1   5
BRANCH   2  17
HETATM   17  C   UNL     1      -5.165  -0.920 -33.719  1.00  0.00     0.157 A 
HETATM   18  N   UNL     1      -6.307  -0.433 -34.259  1.00  0.00    -0.168 NA
HETATM   19  N   UNL     1      -6.871  -1.517 -34.833  1.00  0.00    -0.277 N 
HETATM   20  H   UNL     1      -7.757  -1.407 -35.314  1.00  0.00     0.189 HD
HETATM   21  C   UNL     1      -6.152  -2.670 -34.690  1.00  0.00     0.063 A 
HETATM   22  C   UNL     1      -5.018  -2.314 -33.969  1.00  0.00     0.028 A 
HETATM   23  C   UNL     1      -6.398  -3.975 -35.129  1.00  0.00     0.032 A 
HETATM   24  C   UNL     1      -4.064  -3.305 -33.667  1.00  0.00     0.016 A 
HETATM   25  C   UNL     1      -4.289  -4.617 -34.100  1.00  0.00     0.001 A 
HETATM   26  C   UNL     1      -5.438  -4.944 -34.817  1.00  0.00     0.002 A 
ENDBRANCH   2  17
TORSDOF 2
ENDMDL
MODEL 4
REMARK VINA RESULT:      -8.1      3.820      5.861
REMARK  2 active torsions:
REMARK  status: ('A' for Active; 'I' for Inactive)
REMARK    1  A    between atoms: C_11  and  N_12 
REMARK       I    between atoms: N_12  and  C_13 
REMARK    2  A    between atoms: C_13  and  C_14 
ROOT
HETATM    1  N   UNL     1      -6.682   1.325 -33.764  1.00  0.00    -0.351 N 
HETATM    2  C   UNL     1      -6.515   0.304 -34.689  1.00  0.00     0.273 C 
HETATM    3  O   UNL     1      -7.073   0.290 -35.780  1.00  0.00    -0.266 OA
HETATM    4  H   UNL     1      -6.330   1.040 -32.848  1.00  0.00     0.163 HD
ENDROOT
BRANCH   1   5
HETATM    5  C   UNL     1      -7.707   2.341 -33.888  1.00  0.00     0.089 C 
HETATM    6  C   UNL     1      -7.842   3.266 -32.672  1.00  0.00     0.063 C 
HETATM    7  C   UNL     1      -8.460   2.618 -31.428  1.00  0.00     0.121 C 
HETATM    8  N   UNL     1      -9.742   1.908 -31.813  1.00  0.00    -0.059 N 
HETATM    9  C   UNL     1      -7.524   1.662 -30.682  1.00  0.00     0.046 C 
HETATM   10  C   UNL     1      -8.871   3.726 -30.434  1.00  0.00     0.046 C 
HETATM   11  C   UNL     1      -9.796   1.043 -33.054  1.00  0.00     0.121 C 
HETATM   12  H   UNL     1     -10.464   2.635 -31.919  1.00  0.00     0.279 HD
HETATM   13  H   UNL     1     -10.063   1.352 -31.006  1.00  0.00     0.279 HD
HETATM   14  C   UNL     1      -9.265  -0.362 -32.743  1.00  0.00     0.046 C 
HETATM   15  C   UNL     1     -11.293   0.899 -33.405  1.00  0.00     0.046 C 
HETATM   16  C   UNL     1      -9.074   1.735 -34.223  1.00  0.00     0.063 C 
ENDBRANCH   1   5
BRANCH   2  17
HETATM   17  C   UNL     1      -5.591  -0.738 -34.221  1.00  0.00     0.157 A 
HETATM   18  N   UNL     1      -4.509  -0.414 -33.477  1.00  0.00    -0.168 NA
HETATM   19  N   UNL     1      -3.912  -1.604 -33.254  1.00  0.00    -0.277 N 
HETATM   20  H   UNL     1      -3.059  -1.626 -32.706  1.00  0.00     0.189 HD
HETATM   21  C   UNL     1      -4.554  -2.672 -33.817  1.00  0.00     0.063 A 
HETATM   22  C   UNL     1      -5.669  -2.140 -34.454  1.00  0.00     0.028 A 
HETATM   23  C   UNL     1      -4.255  -4.038 -33.815  1.00  0.00     0.032 A 
HETATM   24  C   UNL     1      -6.547  -3.011 -35.128  1.00  0.00     0.016 A 
HETATM   25  C   UNL     1      -6.268  -4.383 -35.136  1.00  0.00     0.001 A 
HETATM   26  C   UNL     1      -5.139  -4.885 -34.491  1.00  0.00     0.002 A 
ENDBRANCH   2  17
TORSDOF 2
ENDMDL
MODEL 5
REMARK VINA RESULT:      -7.9      3.426      6.270
REMARK  2 active torsions:
REMARK  status: ('A' for Active; 'I' for Inactive)
REMARK    1  A    between atoms: C_11  and  N_12 
REMARK       I    between atoms: N_12  and  C_13 
REMARK    2  A    between atoms: C_13  and  C_14 
ROOT
HETATM    1  N   UNL     1      -7.785   0.773 -33.510  1.00  0.00    -0.351 N 
HETATM    2  C   UNL     1      -7.406  -0.069 -34.545  1.00  0.00     0.273 C 
HETATM    3  O   UNL     1      -8.016  -0.143 -35.605  1.00  0.00    -0.266 OA
HETATM    4  H   UNL     1      -7.302   0.518 -32.646  1.00  0.00     0.163 HD
ENDROOT
BRANCH   1   5
HETATM    5  C   UNL     1      -9.059   1.462 -33.479  1.00  0.00     0.089 C 
HETATM    6  C   UNL     1      -9.096   2.775 -34.271  1.00  0.00     0.063 C 
HETATM    7  C   UNL     1      -8.314   3.935 -33.643  1.00  0.00     0.121 C 
HETATM    8  N   UNL     1      -8.706   4.077 -32.186  1.00  0.00    -0.059 N 
HETATM    9  C   UNL     1      -6.793   3.818 -33.777  1.00  0.00     0.046 C 
HETATM   10  C   UNL     1      -8.735   5.254 -34.326  1.00  0.00     0.046 C 
HETATM   11  C   UNL     1      -8.820   2.854 -31.300  1.00  0.00     0.121 C 
HETATM   12  H   UNL     1      -9.621   4.549 -32.169  1.00  0.00     0.279 HD
HETATM   13  H   UNL     1      -8.067   4.752 -31.740  1.00  0.00     0.279 HD
HETATM   14  C   UNL     1      -7.440   2.466 -30.756  1.00  0.00     0.046 C 
HETATM   15  C   UNL     1      -9.683   3.284 -30.094  1.00  0.00     0.046 C 
HETATM   16  C   UNL     1      -9.537   1.715 -32.046  1.00  0.00     0.063 C 
ENDBRANCH   1   5
BRANCH   2  17
HETATM   17  C   UNL     1      -6.198  -0.843 -34.233  1.00  0.00     0.157 A 
HETATM   18  N   UNL     1      -5.098  -0.231 -33.736  1.00  0.00    -0.168 NA
HETATM   19  N   UNL     1      -4.214  -1.240 -33.592  1.00  0.00    -0.277 N 
HETATM   20  H   UNL     1      -3.291  -1.031 -33.227  1.00  0.00     0.189 HD
HETATM   21  C   UNL     1      -4.688  -2.465 -33.970  1.00  0.00     0.063 A 
HETATM   22  C   UNL     1      -5.994  -2.243 -34.389  1.00  0.00     0.028 A 
HETATM   23  C   UNL     1      -4.088  -3.728 -33.974  1.00  0.00     0.032 A 
HETATM   24  C   UNL     1      -6.760  -3.338 -34.837  1.00  0.00     0.016 A 
HETATM   25  C   UNL     1      -6.181  -4.612 -34.846  1.00  0.00     0.001 A 
HETATM   26  C   UNL     1      -4.866  -4.801 -34.424  1.00  0.00     0.002 A 
ENDBRANCH   2  17
TORSDOF 2
ENDMDL
MODEL 6
REMARK VINA RESULT:      -7.8      2.223      6.882
REMARK  2 active torsions:
REMARK  status: ('A' for Active; 'I' for Inactive)
REMARK    1  A    between atoms: C_11  and  N_12 
REMARK       I    between atoms: N_12  and  C_13 
REMARK    2  A    between atoms: C_13  and  C_14 
ROOT
HETATM    1  N   UNL     1      -3.971   3.364 -32.025  1.00  0.00    -0.351 N 
HETATM    2  C   UNL     1      -3.902   1.979 -31.967  1.00  0.00     0.273 C 
HETATM    3  O   UNL     1      -3.031   1.377 -31.350  1.00  0.00    -0.266 OA
HETATM    4  H   UNL     1      -4.610   3.660 -32.765  1.00  0.00     0.163 HD
ENDROOT
BRANCH   1   5
HETATM    5  C   UNL     1      -2.897   4.226 -31.575  1.00  0.00     0.089 C 
HETATM    6  C   UNL     1      -3.358   5.536 -30.925  1.00  0.00     0.063 C 
HETATM    7  C   UNL     1      -3.949   6.569 -31.891  1.00  0.00     0.121 C 
HETATM    8  N   UNL     1      -3.010   6.756 -33.066  1.00  0.00    -0.059 N 
HETATM    9  C   UNL     1      -5.360   6.238 -32.385  1.00  0.00     0.046 C 
HETATM   10  C   UNL     1      -4.020   7.939 -31.183  1.00  0.00     0.046 C 
HETATM   11  C   UNL     1      -2.385   5.556 -33.746  1.00  0.00     0.121 C 
HETATM   12  H   UNL     1      -2.238   7.353 -32.736  1.00  0.00     0.279 HD
HETATM   13  H   UNL     1      -3.485   7.330 -33.777  1.00  0.00     0.279 HD
HETATM   14  C   UNL     1      -3.353   4.972 -34.781  1.00  0.00     0.046 C 
HETATM   15  C   UNL     1      -1.161   6.096 -34.517  1.00  0.00     0.046 C 
HETATM   16  C   UNL     1      -1.904   4.535 -32.700  1.00  0.00     0.063 C 
ENDBRANCH   1   5
BRANCH   2  17
HETATM   17  C   UNL     1      -4.990   1.327 -32.709  1.00  0.00     0.157 A 
HETATM   18  N   UNL     1      -6.162   1.970 -32.919  1.00  0.00    -0.168 NA
HETATM   19  N   UNL     1      -6.895   1.070 -33.607  1.00  0.00    -0.277 N 
HETATM   20  H   UNL     1      -7.837   1.322 -33.888  1.00  0.00     0.189 HD
HETATM   21  C   UNL     1      -6.256  -0.114 -33.848  1.00  0.00     0.063 A 
HETATM   22  C   UNL     1      -4.996   0.022 -33.279  1.00  0.00     0.028 A 
HETATM   23  C   UNL     1      -6.673  -1.273 -34.511  1.00  0.00     0.032 A 
HETATM   24  C   UNL     1      -4.086  -1.049 -33.374  1.00  0.00     0.016 A 
HETATM   25  C   UNL     1      -4.482  -2.217 -34.037  1.00  0.00     0.001 A 
HETATM   26  C   UNL     1      -5.755  -2.325 -34.593  1.00  0.00     0.002 A 
ENDBRANCH   2  17
TORSDOF 2
ENDMDL
MODEL 7
REMARK VINA RESULT:      -7.8      2.874      5.988
REMARK  2 active torsions:
REMARK  status: ('A' for Active; 'I' for Inactive)
REMARK    1  A    between atoms: C_11  and  N_12 
REMARK       I    between atoms: N_12  and  C_13 
REMARK    2  A    between atoms: C_13  and  C_14 
ROOT
HETATM    1  N   UNL     1      -4.875   0.808 -31.487  1.00  0.00    -0.351 N 
HETATM    2  C   UNL     1      -3.690   0.087 -31.474  1.00  0.00     0.273 C 
HETATM    3  O   UNL     1      -2.670   0.485 -30.925  1.00  0.00    -0.266 OA
HETATM    4  H   UNL     1      -5.520   0.426 -32.182  1.00  0.00     0.163 HD
ENDROOT
BRANCH   1   5
HETATM    5  C   UNL     1      -4.960   2.193 -31.072  1.00  0.00     0.089 C 
HETATM    6  C   UNL     1      -6.219   2.546 -30.270  1.00  0.00     0.063 C 
HETATM    7  C   UNL     1      -7.518   2.581 -31.083  1.00  0.00     0.121 C 
HETATM    8  N   UNL     1      -7.314   3.429 -32.322  1.00  0.00    -0.059 N 
HETATM    9  C   UNL     1      -8.064   1.202 -31.464  1.00  0.00     0.046 C 
HETATM   10  C   UNL     1      -8.610   3.295 -30.256  1.00  0.00     0.046 C 
HETATM   11  C   UNL     1      -6.063   3.273 -33.160  1.00  0.00     0.121 C 
HETATM   12  H   UNL     1      -7.356   4.413 -32.020  1.00  0.00     0.279 HD
HETATM   13  H   UNL     1      -8.138   3.319 -32.932  1.00  0.00     0.279 HD
HETATM   14  C   UNL     1      -6.227   2.107 -34.142  1.00  0.00     0.046 C 
HETATM   15  C   UNL     1      -5.950   4.565 -33.997  1.00  0.00     0.046 C 
HETATM   16  C   UNL     1      -4.823   3.155 -32.257  1.00  0.00     0.063 C 
ENDBRANCH   1   5
BRANCH   2  17
HETATM   17  C   UNL     1      -3.803  -1.200 -32.174  1.00  0.00     0.157 A 
HETATM   18  N   UNL     1      -2.932  -2.202 -31.916  1.00  0.00    -0.168 NA
HETATM   19  N   UNL     1      -3.337  -3.192 -32.739  1.00  0.00    -0.277 N 
HETATM   20  H   UNL     1      -2.830  -4.070 -32.732  1.00  0.00     0.189 HD
HETATM   21  C   UNL     1      -4.422  -2.877 -33.509  1.00  0.00     0.063 A 
HETATM   22  C   UNL     1      -4.761  -1.576 -33.158  1.00  0.00     0.028 A 
HETATM   23  C   UNL     1      -5.123  -3.616 -34.467  1.00  0.00     0.032 A 
HETATM   24  C   UNL     1      -5.864  -0.967 -33.786  1.00  0.00     0.016 A 
HETATM   25  C   UNL     1      -6.583  -1.690 -34.746  1.00  0.00     0.001 A 
HETATM   26  C   UNL     1      -6.214  -2.992 -35.080  1.00  0.00     0.002 A 
ENDBRANCH   2  17
TORSDOF 2
ENDMDL
MODEL 8
REMARK VINA RESULT:      -7.7      3.343      5.701
REMARK  2 active torsions:
REMARK  status: ('A' for Active; 'I' for Inactive)
REMARK    1  A    between atoms: C_11  and  N_12 
REMARK       I    between atoms: N_12  and  C_13 
REMARK    2  A    between atoms: C_13  and  C_14 
ROOT
HETATM    1  N   UNL     1      -6.836   1.225 -31.549  1.00  0.00    -0.351 N 
HETATM    2  C   UNL     1      -5.907   0.512 -30.804  1.00  0.00     0.273 C 
HETATM    3  O   UNL     1      -5.787   0.633 -29.590  1.00  0.00    -0.266 OA
HETATM    4  H   UNL     1      -6.620   1.162 -32.546  1.00  0.00     0.163 HD
ENDROOT
BRANCH   1   5
HETATM    5  C   UNL     1      -7.580   2.347 -31.015  1.00  0.00     0.089 C 
HETATM    6  C   UNL     1      -9.083   2.323 -31.324  1.00  0.00     0.063 C 
HETATM    7  C   UNL     1      -9.451   2.614 -32.783  1.00  0.00     0.121 C 
HETATM    8  N   UNL     1      -8.743   3.873 -33.241  1.00  0.00    -0.059 N 
HETATM    9  C   UNL     1      -9.164   1.461 -33.749  1.00  0.00     0.046 C 
HETATM   10  C   UNL     1     -10.961   2.921 -32.870  1.00  0.00     0.046 C 
HETATM   11  C   UNL     1      -7.281   4.092 -32.915  1.00  0.00     0.121 C 
HETATM   12  H   UNL     1      -9.264   4.668 -32.843  1.00  0.00     0.279 HD
HETATM   13  H   UNL     1      -8.875   3.971 -34.258  1.00  0.00     0.279 HD
HETATM   14  C   UNL     1      -6.397   3.378 -33.944  1.00  0.00     0.046 C 
HETATM   15  C   UNL     1      -7.034   5.608 -33.072  1.00  0.00     0.046 C 
HETATM   16  C   UNL     1      -6.988   3.689 -31.459  1.00  0.00     0.063 C 
ENDBRANCH   1   5
BRANCH   2  17
HETATM   17  C   UNL     1      -5.104  -0.402 -31.626  1.00  0.00     0.157 A 
HETATM   18  N   UNL     1      -3.802  -0.628 -31.334  1.00  0.00    -0.168 NA
HETATM   19  N   UNL     1      -3.409  -1.491 -32.294  1.00  0.00    -0.277 N 
HETATM   20  H   UNL     1      -2.448  -1.818 -32.291  1.00  0.00     0.189 HD
HETATM   21  C   UNL     1      -4.388  -1.830 -33.185  1.00  0.00     0.063 A 
HETATM   22  C   UNL     1      -5.521  -1.139 -32.771  1.00  0.00     0.028 A 
HETATM   23  C   UNL     1      -4.373  -2.675 -34.299  1.00  0.00     0.032 A 
HETATM   24  C   UNL     1      -6.716  -1.295 -33.499  1.00  0.00     0.016 A 
HETATM   25  C   UNL     1      -6.725  -2.139 -34.616  1.00  0.00     0.001 A 
HETATM   26  C   UNL     1      -5.571  -2.814 -35.008  1.00  0.00     0.002 A 
ENDBRANCH   2  17
TORSDOF 2
ENDMDL
MODEL 9
REMARK VINA RESULT:      -7.6      1.591      3.062
REMARK  2 active torsions:
REMARK  status: ('A' for Active; 'I' for Inactive)
REMARK    1  A    between atoms: C_11  and  N_12 
REMARK       I    between atoms: N_12  and  C_13 
REMARK    2  A    between atoms: C_13  and  C_14 
ROOT
HETATM    1  N   UNL     1      -5.148   1.421 -32.687  1.00  0.00    -0.351 N 
HETATM    2  C   UNL     1      -4.574   2.498 -32.028  1.00  0.00     0.273 C 
HETATM    3  O   UNL     1      -4.305   2.486 -30.833  1.00  0.00    -0.266 OA
HETATM    4  H   UNL     1      -5.505   1.708 -33.601  1.00  0.00     0.163 HD
ENDROOT
BRANCH   1   5
HETATM    5  C   UNL     1      -5.706   0.279 -31.992  1.00  0.00     0.089 C 
HETATM    6  C   UNL     1      -5.755  -1.013 -32.819  1.00  0.00     0.063 C 
HETATM    7  C   UNL     1      -6.801  -1.027 -33.940  1.00  0.00     0.121 C 
HETATM    8  N   UNL     1      -8.143  -0.595 -33.384  1.00  0.00    -0.059 N 
HETATM    9  C   UNL     1      -6.432  -0.178 -35.160  1.00  0.00     0.046 C 
HETATM   10  C   UNL     1      -6.993  -2.478 -34.431  1.00  0.00     0.046 C 
HETATM   11  C   UNL     1      -8.240   0.601 -32.460  1.00  0.00     0.121 C 
HETATM   12  H   UNL     1      -8.527  -1.404 -32.874  1.00  0.00     0.279 HD
HETATM   13  H   UNL     1      -8.795  -0.461 -34.170  1.00  0.00     0.279 HD
HETATM   14  C   UNL     1      -8.309   1.896 -33.277  1.00  0.00     0.046 C 
HETATM   15  C   UNL     1      -9.587   0.455 -31.719  1.00  0.00     0.046 C 
HETATM   16  C   UNL     1      -7.099   0.577 -31.428  1.00  0.00     0.063 C 
ENDBRANCH   1   5
BRANCH   2  17
HETATM   17  C   UNL     1      -4.316   3.636 -32.921  1.00  0.00     0.157 A 
HETATM   18  N   UNL     1      -5.248   4.030 -33.820  1.00  0.00    -0.168 NA
HETATM   19  N   UNL     1      -4.659   5.068 -34.450  1.00  0.00    -0.277 N 
HETATM   20  H   UNL     1      -5.169   5.544 -35.185  1.00  0.00     0.189 HD
HETATM   21  C   UNL     1      -3.401   5.360 -34.002  1.00  0.00     0.063 A 
HETATM   22  C   UNL     1      -3.145   4.442 -32.990  1.00  0.00     0.028 A 
HETATM   23  C   UNL     1      -2.483   6.340 -34.394  1.00  0.00     0.032 A 
HETATM   24  C   UNL     1      -1.909   4.498 -32.318  1.00  0.00     0.016 A 
HETATM   25  C   UNL     1      -0.977   5.473 -32.692  1.00  0.00     0.001 A 
HETATM   26  C   UNL     1      -1.261   6.376 -33.715  1.00  0.00     0.002 A 
ENDBRANCH   2  17
TORSDOF 2
ENDMDL
MODEL 10
REMARK VINA RESULT:      -7.6      2.653      6.315
REMARK  2 active torsions:
REMARK  status: ('A' for Active; 'I' for Inactive)
REMARK    1  A    between atoms: C_11  and  N_12 
REMARK       I    between atoms: N_12  and  C_13 
REMARK    2  A    between atoms: C_13  and  C_14 
ROOT
HETATM    1  N   UNL     1      -5.590   1.780 -31.533  1.00  0.00    -0.351 N 
HETATM    2  C   UNL     1      -5.442   0.583 -30.847  1.00  0.00     0.273 C 
HETATM    3  O   UNL     1      -5.832   0.418 -29.697  1.00  0.00    -0.266 OA
HETATM    4  H   UNL     1      -5.001   1.790 -32.368  1.00  0.00     0.163 HD
ENDROOT
BRANCH   1   5
HETATM    5  C   UNL     1      -5.993   3.013 -30.888  1.00  0.00     0.089 C 
HETATM    6  C   UNL     1      -7.019   3.840 -31.674  1.00  0.00     0.063 C 
HETATM    7  C   UNL     1      -6.474   4.530 -32.930  1.00  0.00     0.121 C 
HETATM    8  N   UNL     1      -5.206   5.282 -32.581  1.00  0.00    -0.059 N 
HETATM    9  C   UNL     1      -6.226   3.587 -34.112  1.00  0.00     0.046 C 
HETATM   10  C   UNL     1      -7.486   5.598 -33.398  1.00  0.00     0.046 C 
HETATM   11  C   UNL     1      -4.143   4.636 -31.717  1.00  0.00     0.121 C 
HETATM   12  H   UNL     1      -5.496   6.149 -32.106  1.00  0.00     0.279 HD
HETATM   13  H   UNL     1      -4.769   5.610 -33.455  1.00  0.00     0.279 HD
HETATM   14  C   UNL     1      -3.229   3.755 -32.576  1.00  0.00     0.046 C 
HETATM   15  C   UNL     1      -3.281   5.793 -31.169  1.00  0.00     0.046 C 
HETATM   16  C   UNL     1      -4.790   3.893 -30.535  1.00  0.00     0.063 C 
ENDBRANCH   1   5
BRANCH   2  17
HETATM   17  C   UNL     1      -4.784  -0.454 -31.653  1.00  0.00     0.157 A 
HETATM   18  N   UNL     1      -3.513  -0.833 -31.383  1.00  0.00    -0.168 NA
HETATM   19  N   UNL     1      -3.259  -1.771 -32.319  1.00  0.00    -0.277 N 
HETATM   20  H   UNL     1      -2.348  -2.217 -32.326  1.00  0.00     0.189 HD
HETATM   21  C   UNL     1      -4.298  -2.012 -33.174  1.00  0.00     0.063 A 
HETATM   22  C   UNL     1      -5.322  -1.169 -32.760  1.00  0.00     0.028 A 
HETATM   23  C   UNL     1      -4.421  -2.890 -34.255  1.00  0.00     0.032 A 
HETATM   24  C   UNL     1      -6.548  -1.197 -33.453  1.00  0.00     0.016 A 
HETATM   25  C   UNL     1      -6.694  -2.070 -34.537  1.00  0.00     0.001 A 
HETATM   26  C   UNL     1      -5.646  -2.900 -34.931  1.00  0.00     0.002 A 
ENDBRANCH   2  17
TORSDOF 2
ENDMDL
