MODEL 1
REMARK VINA RESULT:      -9.6      0.000      0.000
REMARK  6 active torsions:
REMARK  status: ('A' for Active; 'I' for Inactive)
REMARK    1  A    between atoms: C_5  and  N_6 
REMARK       I    between atoms: N_6  and  C_7 
REMARK    2  A    between atoms: C_7  and  C_8 
REMARK    3  A    between atoms: C_8  and  S_9 
REMARK    4  A    between atoms: S_9  and  C_10 
REMARK    5  A    between atoms: N_15  and  C_17 
REMARK    6  A    between atoms: C_17  and  C_18 
ROOT
HETATM    1  C   UNL     1      -7.387   4.182 -30.608  1.00  0.00     0.169 A 
HETATM    2  N   UNL     1      -7.455   2.901 -30.499  1.00  0.00    -0.228 NA
HETATM    3  C   UNL     1      -7.440   2.158 -31.647  1.00  0.00     0.052 A 
HETATM    4  C   UNL     1      -7.302   2.692 -32.870  1.00  0.00     0.060 A 
HETATM    5  C   UNL     1      -7.192   1.899 -34.122  1.00  0.00     0.281 C 
HETATM    6  N   UNL     1      -6.908   0.429 -33.835  1.00  0.00    -0.063 N 
HETATM    7  H   UNL     1      -5.957   0.396 -33.446  1.00  0.00     0.280 HD
HETATM    8  C   UNL     1      -7.840  -0.091 -32.764  1.00  0.00     0.241 C 
HETATM    9  C   UNL     1      -7.593   0.668 -31.457  1.00  0.00     0.088 C 
HETATM   10  C   UNL     1      -7.216   4.160 -32.976  1.00  0.00     0.257 A 
HETATM   11  O   UNL     1      -7.100   4.700 -34.068  1.00  0.00    -0.267 OA
HETATM   12  N   UNL     1      -7.276   4.834 -31.795  1.00  0.00    -0.302 N 
HETATM   13  H   UNL     1      -7.216   5.842 -31.809  1.00  0.00     0.171 HD
ENDROOT
BRANCH   1  14
HETATM   14  S   UNL     1      -7.430   5.247 -29.241  1.00  0.00    -0.083 SA
BRANCH  14  15
HETATM   15  C   UNL     1      -5.644   5.441 -28.905  1.00  0.00     0.185 C 
BRANCH  15  16
HETATM   16  C   UNL     1      -4.942   6.201 -30.026  1.00  0.00     0.231 C 
HETATM   17  N   UNL     1      -3.714   5.645 -30.356  1.00  0.00    -0.326 N 
HETATM   18  H   UNL     1      -3.590   4.691 -30.035  1.00  0.00     0.169 HD
HETATM   19  O   UNL     1      -5.468   7.179 -30.549  1.00  0.00    -0.272 OA
BRANCH  17  20
HETATM   20  C   UNL     1      -2.864   6.044 -31.413  1.00  0.00     0.041 C 
HETATM   21  C   UNL     1      -2.721   5.387 -32.654  1.00  0.00    -0.029 C 
HETATM   22  C   UNL     1      -1.714   5.833 -33.552  1.00  0.00    -0.054 C 
HETATM   23  C   UNL     1      -3.642   4.279 -33.098  1.00  0.00     0.051 C 
HETATM   24  C   UNL     1      -1.459   5.145 -34.868  1.00  0.00     0.049 C 
HETATM   25  C   UNL     1      -0.969   6.984 -33.255  1.00  0.00     0.007 C 
HETATM   26  C   UNL     1      -1.190   7.684 -32.077  1.00  0.00     0.003 C 
HETATM   27  C   UNL     1      -2.131   7.216 -31.164  1.00  0.00     0.030 C 
ENDBRANCH  17  20
ENDBRANCH  15  16
ENDBRANCH  14  15
ENDBRANCH   1  14
BRANCH   6  28
HETATM   28  C   UNL     1      -6.880  -0.429 -35.076  1.00  0.00     0.273 C 
BRANCH  28  29
HETATM   29  C   UNL     1      -6.362  -1.817 -34.797  1.00  0.00    -0.030 A 
HETATM   30  C   UNL     1      -5.110  -1.995 -34.181  1.00  0.00     0.048 A 
HETATM   31  C   UNL     1      -4.628  -3.279 -34.043  1.00  0.00     0.105 A 
HETATM   32  C   UNL     1      -5.345  -4.372 -34.459  1.00  0.00     0.105 A 
HETATM   33  O   UNL     1      -3.422  -3.616 -33.517  1.00  0.00    -0.323 OA
HETATM   34  O   UNL     1      -4.683  -5.538 -34.243  1.00  0.00    -0.323 OA
HETATM   35  C   UNL     1      -6.591  -4.243 -35.032  1.00  0.00     0.040 A 
HETATM   36  C   UNL     1      -3.454  -5.055 -33.660  1.00  0.00     0.352 A 
HETATM   37  C   UNL     1      -7.101  -2.952 -35.206  1.00  0.00     0.012 A 
ENDBRANCH  28  29
ENDBRANCH   6  28
TORSDOF 6
ENDMDL
MODEL 2
REMARK VINA RESULT:      -9.5      3.488      4.937
REMARK  6 active torsions:
REMARK  status: ('A' for Active; 'I' for Inactive)
REMARK    1  A    between atoms: C_5  and  N_6 
REMARK       I    between atoms: N_6  and  C_7 
REMARK    2  A    between atoms: C_7  and  C_8 
REMARK    3  A    between atoms: C_8  and  S_9 
REMARK    4  A    between atoms: S_9  and  C_10 
REMARK    5  A    between atoms: N_15  and  C_17 
REMARK    6  A    between atoms: C_17  and  C_18 
ROOT
HETATM    1  C   UNL     1      -2.664   6.035 -32.415  1.00  0.00     0.169 A 
HETATM    2  N   UNL     1      -3.130   5.185 -31.568  1.00  0.00    -0.228 NA
HETATM    3  C   UNL     1      -4.088   4.310 -31.999  1.00  0.00     0.052 A 
HETATM    4  C   UNL     1      -4.524   4.257 -33.267  1.00  0.00     0.060 A 
HETATM    5  C   UNL     1      -5.496   3.256 -33.777  1.00  0.00     0.281 C 
HETATM    6  N   UNL     1      -5.677   2.098 -32.800  1.00  0.00    -0.063 N 
HETATM    7  H   UNL     1      -4.786   1.587 -32.798  1.00  0.00     0.280 HD
HETATM    8  C   UNL     1      -5.889   2.618 -31.396  1.00  0.00     0.241 C 
HETATM    9  C   UNL     1      -4.644   3.386 -30.941  1.00  0.00     0.088 C 
HETATM   10  C   UNL     1      -3.972   5.231 -34.226  1.00  0.00     0.257 A 
HETATM   11  O   UNL     1      -4.342   5.233 -35.393  1.00  0.00    -0.267 OA
HETATM   12  N   UNL     1      -3.053   6.095 -33.717  1.00  0.00    -0.302 N 
HETATM   13  H   UNL     1      -2.638   6.780 -34.332  1.00  0.00     0.171 HD
ENDROOT
BRANCH   1  14
HETATM   14  S   UNL     1      -1.473   7.224 -32.000  1.00  0.00    -0.083 SA
BRANCH  14  15
HETATM   15  C   UNL     1      -0.094   6.151 -31.466  1.00  0.00     0.185 C 
BRANCH  15  16
HETATM   16  C   UNL     1       0.182   6.293 -29.973  1.00  0.00     0.231 C 
HETATM   17  N   UNL     1       0.103   7.609 -29.542  1.00  0.00    -0.326 N 
HETATM   18  H   UNL     1      -0.392   8.226 -30.177  1.00  0.00     0.169 HD
HETATM   19  O   UNL     1       0.424   5.309 -29.280  1.00  0.00    -0.272 OA
BRANCH  17  20
HETATM   20  C   UNL     1       0.203   8.069 -28.208  1.00  0.00     0.041 C 
HETATM   21  C   UNL     1      -0.856   8.156 -27.280  1.00  0.00    -0.029 C 
HETATM   22  C   UNL     1      -0.617   8.778 -26.026  1.00  0.00    -0.054 C 
HETATM   23  C   UNL     1      -2.213   7.549 -27.535  1.00  0.00     0.051 C 
HETATM   24  C   UNL     1      -1.712   8.964 -25.006  1.00  0.00     0.049 C 
HETATM   25  C   UNL     1       0.682   9.179 -25.677  1.00  0.00     0.007 C 
HETATM   26  C   UNL     1       1.738   8.993 -26.558  1.00  0.00     0.003 C 
HETATM   27  C   UNL     1       1.499   8.442 -27.814  1.00  0.00     0.030 C 
ENDBRANCH  17  20
ENDBRANCH  15  16
ENDBRANCH  14  15
ENDBRANCH   1  14
BRANCH   6  28
HETATM   28  C   UNL     1      -6.726   1.105 -33.238  1.00  0.00     0.273 C 
BRANCH  28  29
HETATM   29  C   UNL     1      -6.124  -0.216 -33.645  1.00  0.00    -0.030 A 
HETATM   30  C   UNL     1      -6.930  -1.211 -34.227  1.00  0.00     0.048 A 
HETATM   31  C   UNL     1      -6.362  -2.441 -34.486  1.00  0.00     0.105 A 
HETATM   32  C   UNL     1      -5.042  -2.701 -34.219  1.00  0.00     0.105 A 
HETATM   33  O   UNL     1      -7.013  -3.518 -34.997  1.00  0.00    -0.323 OA
HETATM   34  O   UNL     1      -4.692  -3.975 -34.535  1.00  0.00    -0.323 OA
HETATM   35  C   UNL     1      -4.210  -1.742 -33.685  1.00  0.00     0.040 A 
HETATM   36  C   UNL     1      -5.949  -4.497 -35.013  1.00  0.00     0.352 A 
HETATM   37  C   UNL     1      -4.759  -0.489 -33.391  1.00  0.00     0.012 A 
ENDBRANCH  28  29
ENDBRANCH   6  28
TORSDOF 6
ENDMDL
MODEL 3
REMARK VINA RESULT:      -9.5      2.839      8.626
REMARK  6 active torsions:
REMARK  status: ('A' for Active; 'I' for Inactive)
REMARK    1  A    between atoms: C_5  and  N_6 
REMARK       I    between atoms: N_6  and  C_7 
REMARK    2  A    between atoms: C_7  and  C_8 
REMARK    3  A    between atoms: C_8  and  S_9 
REMARK    4  A    between atoms: S_9  and  C_10 
REMARK    5  A    between atoms: N_15  and  C_17 
REMARK    6  A    between atoms: C_17  and  C_18 
ROOT
HETATM    1  C   UNL     1      -7.057   4.856 -33.497  1.00  0.00     0.169 A 
HETATM    2  N   UNL     1      -6.040   4.663 -34.261  1.00  0.00    -0.228 NA
HETATM    3  C   UNL     1      -4.875   5.310 -33.954  1.00  0.00     0.052 A 
HETATM    4  C   UNL     1      -4.726   6.087 -32.870  1.00  0.00     0.060 A 
HETATM    5  C   UNL     1      -3.446   6.726 -32.468  1.00  0.00     0.281 C 
HETATM    6  N   UNL     1      -2.259   6.129 -33.216  1.00  0.00    -0.063 N 
HETATM    7  H   UNL     1      -2.164   5.165 -32.873  1.00  0.00     0.280 HD
HETATM    8  C   UNL     1      -2.555   6.042 -34.697  1.00  0.00     0.241 C 
HETATM    9  C   UNL     1      -3.739   5.098 -34.927  1.00  0.00     0.088 C 
HETATM   10  C   UNL     1      -5.899   6.290 -32.000  1.00  0.00     0.257 A 
HETATM   11  O   UNL     1      -5.821   6.997 -31.005  1.00  0.00    -0.267 OA
HETATM   12  N   UNL     1      -7.032   5.646 -32.391  1.00  0.00    -0.302 N 
HETATM   13  H   UNL     1      -7.865   5.745 -31.828  1.00  0.00     0.171 HD
ENDROOT
BRANCH   1  14
HETATM   14  S   UNL     1      -8.604   4.129 -33.786  1.00  0.00    -0.083 SA
BRANCH  14  15
HETATM   15  C   UNL     1      -8.853   3.227 -32.216  1.00  0.00     0.185 C 
BRANCH  15  16
HETATM   16  C   UNL     1      -8.222   1.839 -32.261  1.00  0.00     0.231 C 
HETATM   17  N   UNL     1      -7.088   1.797 -33.060  1.00  0.00    -0.326 N 
HETATM   18  H   UNL     1      -6.684   2.706 -33.256  1.00  0.00     0.169 HD
HETATM   19  O   UNL     1      -8.702   0.907 -31.622  1.00  0.00    -0.272 OA
BRANCH  17  20
HETATM   20  C   UNL     1      -6.217   0.696 -33.233  1.00  0.00     0.041 C 
HETATM   21  C   UNL     1      -6.412  -0.384 -34.119  1.00  0.00    -0.029 C 
HETATM   22  C   UNL     1      -5.514  -1.483 -34.065  1.00  0.00    -0.054 C 
HETATM   23  C   UNL     1      -7.491  -0.388 -35.172  1.00  0.00     0.051 C 
HETATM   24  C   UNL     1      -5.692  -2.702 -34.935  1.00  0.00     0.049 C 
HETATM   25  C   UNL     1      -4.385  -1.427 -33.234  1.00  0.00     0.007 C 
HETATM   26  C   UNL     1      -4.145  -0.312 -32.443  1.00  0.00     0.003 C 
HETATM   27  C   UNL     1      -5.055   0.741 -32.443  1.00  0.00     0.030 C 
ENDBRANCH  17  20
ENDBRANCH  15  16
ENDBRANCH  14  15
ENDBRANCH   1  14
BRANCH   6  28
HETATM   28  C   UNL     1      -0.950   6.813 -32.905  1.00  0.00     0.273 C 
BRANCH  28  29
HETATM   29  C   UNL     1      -0.495   6.555 -31.491  1.00  0.00    -0.030 A 
HETATM   30  C   UNL     1      -0.601   7.565 -30.518  1.00  0.00     0.048 A 
HETATM   31  C   UNL     1      -0.075   7.323 -29.267  1.00  0.00     0.105 A 
HETATM   32  C   UNL     1       0.514   6.126 -28.946  1.00  0.00     0.105 A 
HETATM   33  O   UNL     1      -0.053   8.208 -28.236  1.00  0.00    -0.323 OA
HETATM   34  O   UNL     1       0.978   6.104 -27.670  1.00  0.00    -0.323 OA
HETATM   35  C   UNL     1       0.605   5.099 -29.859  1.00  0.00     0.040 A 
HETATM   36  C   UNL     1       0.631   7.432 -27.225  1.00  0.00     0.352 A 
HETATM   37  C   UNL     1       0.099   5.318 -31.145  1.00  0.00     0.012 A 
ENDBRANCH  28  29
ENDBRANCH   6  28
TORSDOF 6
ENDMDL
MODEL 4
REMARK VINA RESULT:      -9.4      2.665      8.988
REMARK  6 active torsions:
REMARK  status: ('A' for Active; 'I' for Inactive)
REMARK    1  A    between atoms: C_5  and  N_6 
REMARK       I    between atoms: N_6  and  C_7 
REMARK    2  A    between atoms: C_7  and  C_8 
REMARK    3  A    between atoms: C_8  and  S_9 
REMARK    4  A    between atoms: S_9  and  C_10 
REMARK    5  A    between atoms: N_15  and  C_17 
REMARK    6  A    between atoms: C_17  and  C_18 
ROOT
HETATM    1  C   UNL     1      -6.740   3.223 -33.337  1.00  0.00     0.169 A 
HETATM    2  N   UNL     1      -6.042   3.873 -34.202  1.00  0.00    -0.228 NA
HETATM    3  C   UNL     1      -4.821   4.351 -33.812  1.00  0.00     0.052 A 
HETATM    4  C   UNL     1      -4.294   4.128 -32.598  1.00  0.00     0.060 A 
HETATM    5  C   UNL     1      -2.934   4.559 -32.185  1.00  0.00     0.281 C 
HETATM    6  N   UNL     1      -2.084   4.969 -33.382  1.00  0.00    -0.063 N 
HETATM    7  H   UNL     1      -1.911   4.107 -33.915  1.00  0.00     0.280 HD
HETATM    8  C   UNL     1      -2.859   5.898 -34.289  1.00  0.00     0.241 C 
HETATM    9  C   UNL     1      -4.082   5.164 -34.849  1.00  0.00     0.088 C 
HETATM   10  C   UNL     1      -5.102   3.374 -31.624  1.00  0.00     0.257 A 
HETATM   11  O   UNL     1      -4.675   3.151 -30.500  1.00  0.00    -0.267 OA
HETATM   12  N   UNL     1      -6.321   2.965 -32.070  1.00  0.00    -0.302 N 
HETATM   13  H   UNL     1      -6.915   2.438 -31.445  1.00  0.00     0.171 HD
ENDROOT
BRANCH   1  14
HETATM   14  S   UNL     1      -8.317   2.592 -33.682  1.00  0.00    -0.083 SA
BRANCH  14  15
HETATM   15  C   UNL     1      -7.881   1.089 -34.626  1.00  0.00     0.185 C 
BRANCH  15  16
HETATM   16  C   UNL     1      -7.173   0.061 -33.748  1.00  0.00     0.231 C 
HETATM   17  N   UNL     1      -5.938  -0.312 -34.258  1.00  0.00    -0.326 N 
HETATM   18  H   UNL     1      -5.561   0.332 -34.946  1.00  0.00     0.169 HD
HETATM   19  O   UNL     1      -7.687  -0.339 -32.707  1.00  0.00    -0.272 OA
BRANCH  17  20
HETATM   20  C   UNL     1      -4.991  -1.161 -33.641  1.00  0.00     0.041 C 
HETATM   21  C   UNL     1      -4.739  -2.507 -33.981  1.00  0.00    -0.029 C 
HETATM   22  C   UNL     1      -3.858  -3.265 -33.165  1.00  0.00    -0.054 C 
HETATM   23  C   UNL     1      -5.310  -3.153 -35.218  1.00  0.00     0.051 C 
HETATM   24  C   UNL     1      -3.587  -4.725 -33.427  1.00  0.00     0.049 C 
HETATM   25  C   UNL     1      -3.157  -2.642 -32.121  1.00  0.00     0.007 C 
HETATM   26  C   UNL     1      -3.333  -1.291 -31.861  1.00  0.00     0.003 C 
HETATM   27  C   UNL     1      -4.244  -0.557 -32.615  1.00  0.00     0.030 C 
ENDBRANCH  17  20
ENDBRANCH  15  16
ENDBRANCH  14  15
ENDBRANCH   1  14
BRANCH   6  28
HETATM   28  C   UNL     1      -0.725   5.501 -32.998  1.00  0.00     0.273 C 
BRANCH  28  29
HETATM   29  C   UNL     1      -0.694   6.017 -31.582  1.00  0.00    -0.030 A 
HETATM   30  C   UNL     1      -1.260   7.267 -31.272  1.00  0.00     0.048 A 
HETATM   31  C   UNL     1      -1.116   7.747 -29.988  1.00  0.00     0.105 A 
HETATM   32  C   UNL     1      -0.468   7.031 -29.014  1.00  0.00     0.105 A 
HETATM   33  O   UNL     1      -1.558   8.952 -29.543  1.00  0.00    -0.323 OA
HETATM   34  O   UNL     1      -0.425   7.693 -27.828  1.00  0.00    -0.323 OA
HETATM   35  C   UNL     1       0.067   5.788 -29.267  1.00  0.00     0.040 A 
HETATM   36  C   UNL     1      -1.104   8.919 -28.170  1.00  0.00     0.352 A 
HETATM   37  C   UNL     1      -0.044   5.278 -30.565  1.00  0.00     0.012 A 
ENDBRANCH  28  29
ENDBRANCH   6  28
TORSDOF 6
ENDMDL
MODEL 5
REMARK VINA RESULT:      -9.4      2.670      8.206
REMARK  6 active torsions:
REMARK  status: ('A' for Active; 'I' for Inactive)
REMARK    1  A    between atoms: C_5  and  N_6 
REMARK       I    between atoms: N_6  and  C_7 
REMARK    2  A    between atoms: C_7  and  C_8 
REMARK    3  A    between atoms: C_8  and  S_9 
REMARK    4  A    between atoms: S_9  and  C_10 
REMARK    5  A    between atoms: N_15  and  C_17 
REMARK    6  A    between atoms: C_17  and  C_18 
ROOT
HETATM    1  C   UNL     1      -8.427   4.019 -32.195  1.00  0.00     0.169 A 
HETATM    2  N   UNL     1      -7.561   3.659 -33.077  1.00  0.00    -0.228 NA
HETATM    3  C   UNL     1      -6.460   4.451 -33.256  1.00  0.00     0.052 A 
HETATM    4  C   UNL     1      -6.212   5.547 -32.522  1.00  0.00     0.060 A 
HETATM    5  C   UNL     1      -4.980   6.369 -32.637  1.00  0.00     0.281 C 
HETATM    6  N   UNL     1      -3.890   5.646 -33.421  1.00  0.00    -0.063 N 
HETATM    7  H   UNL     1      -3.597   4.855 -32.834  1.00  0.00     0.280 HD
HETATM    8  C   UNL     1      -4.455   5.061 -34.696  1.00  0.00     0.241 C 
HETATM    9  C   UNL     1      -5.518   4.013 -34.352  1.00  0.00     0.088 C 
HETATM   10  C   UNL     1      -7.209   5.939 -31.510  1.00  0.00     0.257 A 
HETATM   11  O   UNL     1      -7.038   6.935 -30.821  1.00  0.00    -0.267 OA
HETATM   12  N   UNL     1      -8.296   5.125 -31.416  1.00  0.00    -0.302 N 
HETATM   13  H   UNL     1      -9.008   5.344 -30.734  1.00  0.00     0.171 HD
ENDROOT
BRANCH   1  14
HETATM   14  S   UNL     1      -9.883   3.132 -31.888  1.00  0.00    -0.083 SA
BRANCH  14  15
HETATM   15  C   UNL     1      -9.961   2.079 -33.379  1.00  0.00     0.185 C 
BRANCH  15  16
HETATM   16  C   UNL     1      -9.193   0.775 -33.186  1.00  0.00     0.231 C 
HETATM   17  N   UNL     1      -7.961   0.785 -33.825  1.00  0.00    -0.326 N 
HETATM   18  H   UNL     1      -7.627   1.711 -34.070  1.00  0.00     0.169 HD
HETATM   19  O   UNL     1      -9.661  -0.138 -32.511  1.00  0.00    -0.272 OA
BRANCH  17  20
HETATM   20  C   UNL     1      -6.967  -0.220 -33.759  1.00  0.00     0.041 C 
HETATM   21  C   UNL     1      -5.922  -0.289 -32.814  1.00  0.00    -0.029 C 
HETATM   22  C   UNL     1      -4.919  -1.283 -32.976  1.00  0.00    -0.054 C 
HETATM   23  C   UNL     1      -5.865   0.599 -31.598  1.00  0.00     0.051 C 
HETATM   24  C   UNL     1      -3.738  -1.382 -32.045  1.00  0.00     0.049 C 
HETATM   25  C   UNL     1      -5.046  -2.250 -33.985  1.00  0.00     0.007 C 
HETATM   26  C   UNL     1      -6.135  -2.235 -34.845  1.00  0.00     0.003 C 
HETATM   27  C   UNL     1      -7.088  -1.226 -34.732  1.00  0.00     0.030 C 
ENDBRANCH  17  20
ENDBRANCH  15  16
ENDBRANCH  14  15
ENDBRANCH   1  14
BRANCH   6  28
HETATM   28  C   UNL     1      -2.654   6.483 -33.640  1.00  0.00     0.273 C 
BRANCH  28  29
HETATM   29  C   UNL     1      -1.750   6.490 -32.433  1.00  0.00    -0.030 A 
HETATM   30  C   UNL     1      -1.015   5.341 -32.092  1.00  0.00     0.048 A 
HETATM   31  C   UNL     1      -0.285   5.357 -30.922  1.00  0.00     0.105 A 
HETATM   32  C   UNL     1      -0.237   6.463 -30.112  1.00  0.00     0.105 A 
HETATM   33  O   UNL     1       0.435   4.317 -30.428  1.00  0.00    -0.323 OA
HETATM   34  O   UNL     1       0.525   6.261 -29.006  1.00  0.00    -0.323 OA
HETATM   35  C   UNL     1      -0.912   7.621 -30.429  1.00  0.00     0.040 A 
HETATM   36  C   UNL     1       0.938   4.892 -29.200  1.00  0.00     0.352 A 
HETATM   37  C   UNL     1      -1.679   7.632 -31.600  1.00  0.00     0.012 A 
ENDBRANCH  28  29
ENDBRANCH   6  28
TORSDOF 6
ENDMDL
MODEL 6
REMARK VINA RESULT:      -9.3      1.759      2.750
REMARK  6 active torsions:
REMARK  status: ('A' for Active; 'I' for Inactive)
REMARK    1  A    between atoms: C_5  and  N_6 
REMARK       I    between atoms: N_6  and  C_7 
REMARK    2  A    between atoms: C_7  and  C_8 
REMARK    3  A    between atoms: C_8  and  S_9 
REMARK    4  A    between atoms: S_9  and  C_10 
REMARK    5  A    between atoms: N_15  and  C_17 
REMARK    6  A    between atoms: C_17  and  C_18 
ROOT
HETATM    1  C   UNL     1      -6.496   5.350 -31.146  1.00  0.00     0.169 A 
HETATM    2  N   UNL     1      -7.079   4.265 -30.773  1.00  0.00    -0.228 NA
HETATM    3  C   UNL     1      -7.301   3.299 -31.716  1.00  0.00     0.052 A 
HETATM    4  C   UNL     1      -6.893   3.403 -32.990  1.00  0.00     0.060 A 
HETATM    5  C   UNL     1      -7.042   2.330 -34.007  1.00  0.00     0.281 C 
HETATM    6  N   UNL     1      -7.389   0.991 -33.367  1.00  0.00    -0.063 N 
HETATM    7  H   UNL     1      -6.556   0.706 -32.837  1.00  0.00     0.280 HD
HETATM    8  C   UNL     1      -8.510   1.158 -32.365  1.00  0.00     0.241 C 
HETATM    9  C   UNL     1      -8.051   2.081 -31.232  1.00  0.00     0.088 C 
HETATM   10  C   UNL     1      -6.217   4.648 -33.398  1.00  0.00     0.257 A 
HETATM   11  O   UNL     1      -5.834   4.800 -34.550  1.00  0.00    -0.267 OA
HETATM   12  N   UNL     1      -6.067   5.579 -32.416  1.00  0.00    -0.302 N 
HETATM   13  H   UNL     1      -5.606   6.449 -32.639  1.00  0.00     0.171 HD
ENDROOT
BRANCH   1  14
HETATM   14  S   UNL     1      -6.183   6.670 -30.068  1.00  0.00    -0.083 SA
BRANCH  14  15
HETATM   15  C   UNL     1      -5.614   7.944 -31.248  1.00  0.00     0.185 C 
BRANCH  15  16
HETATM   16  C   UNL     1      -4.127   8.241 -31.080  1.00  0.00     0.231 C 
HETATM   17  N   UNL     1      -3.418   7.146 -30.606  1.00  0.00    -0.326 N 
HETATM   18  H   UNL     1      -3.900   6.260 -30.713  1.00  0.00     0.169 HD
HETATM   19  O   UNL     1      -3.668   9.343 -31.366  1.00  0.00    -0.272 OA
BRANCH  17  20
HETATM   20  C   UNL     1      -2.017   7.056 -30.438  1.00  0.00     0.041 C 
HETATM   21  C   UNL     1      -1.280   7.556 -29.344  1.00  0.00    -0.029 C 
HETATM   22  C   UNL     1       0.139   7.513 -29.398  1.00  0.00    -0.054 C 
HETATM   23  C   UNL     1      -1.936   8.066 -28.086  1.00  0.00     0.051 C 
HETATM   24  C   UNL     1       0.997   8.083 -28.297  1.00  0.00     0.049 C 
HETATM   25  C   UNL     1       0.781   6.868 -30.466  1.00  0.00     0.007 C 
HETATM   26  C   UNL     1       0.043   6.286 -31.487  1.00  0.00     0.003 C 
HETATM   27  C   UNL     1      -1.346   6.381 -31.472  1.00  0.00     0.030 C 
ENDBRANCH  17  20
ENDBRANCH  15  16
ENDBRANCH  14  15
ENDBRANCH   1  14
BRANCH   6  28
HETATM   28  C   UNL     1      -7.640  -0.107 -34.371  1.00  0.00     0.273 C 
BRANCH  28  29
HETATM   29  C   UNL     1      -6.569  -1.167 -34.337  1.00  0.00    -0.030 A 
HETATM   30  C   UNL     1      -6.873  -2.492 -34.698  1.00  0.00     0.048 A 
HETATM   31  C   UNL     1      -5.891  -3.449 -34.549  1.00  0.00     0.105 A 
HETATM   32  C   UNL     1      -4.637  -3.137 -34.091  1.00  0.00     0.105 A 
HETATM   33  O   UNL     1      -6.039  -4.775 -34.805  1.00  0.00    -0.323 OA
HETATM   34  O   UNL     1      -3.832  -4.228 -34.006  1.00  0.00    -0.323 OA
HETATM   35  C   UNL     1      -4.288  -1.846 -33.762  1.00  0.00     0.040 A 
HETATM   36  C   UNL     1      -4.728  -5.270 -34.444  1.00  0.00     0.352 A 
HETATM   37  C   UNL     1      -5.266  -0.853 -33.883  1.00  0.00     0.012 A 
ENDBRANCH  28  29
ENDBRANCH   6  28
TORSDOF 6
ENDMDL
MODEL 7
REMARK VINA RESULT:      -9.2      2.879      9.921
REMARK  6 active torsions:
REMARK  status: ('A' for Active; 'I' for Inactive)
REMARK    1  A    between atoms: C_5  and  N_6 
REMARK       I    between atoms: N_6  and  C_7 
REMARK    2  A    between atoms: C_7  and  C_8 
REMARK    3  A    between atoms: C_8  and  S_9 
REMARK    4  A    between atoms: S_9  and  C_10 
REMARK    5  A    between atoms: N_15  and  C_17 
REMARK    6  A    between atoms: C_17  and  C_18 
ROOT
HETATM    1  C   UNL     1      -5.871   3.651 -32.386  1.00  0.00     0.169 A 
HETATM    2  N   UNL     1      -4.826   3.668 -33.137  1.00  0.00    -0.228 NA
HETATM    3  C   UNL     1      -3.759   4.421 -32.733  1.00  0.00     0.052 A 
HETATM    4  C   UNL     1      -3.726   5.093 -31.572  1.00  0.00     0.060 A 
HETATM    5  C   UNL     1      -2.545   5.842 -31.071  1.00  0.00     0.281 C 
HETATM    6  N   UNL     1      -1.280   5.481 -31.842  1.00  0.00    -0.063 N 
HETATM    7  H   UNL     1      -1.068   4.506 -31.597  1.00  0.00     0.280 HD
HETATM    8  C   UNL     1      -1.541   5.513 -33.332  1.00  0.00     0.241 C 
HETATM    9  C   UNL     1      -2.591   4.457 -33.690  1.00  0.00     0.088 C 
HETATM   10  C   UNL     1      -4.928   5.054 -30.719  1.00  0.00     0.257 A 
HETATM   11  O   UNL     1      -4.957   5.657 -29.655  1.00  0.00    -0.267 OA
HETATM   12  N   UNL     1      -5.964   4.317 -31.205  1.00  0.00    -0.302 N 
HETATM   13  H   UNL     1      -6.811   4.251 -30.658  1.00  0.00     0.171 HD
ENDROOT
BRANCH   1  14
HETATM   14  S   UNL     1      -7.308   2.769 -32.791  1.00  0.00    -0.083 SA
BRANCH  14  15
HETATM   15  C   UNL     1      -6.683   1.703 -34.137  1.00  0.00     0.185 C 
BRANCH  15  16
HETATM   16  C   UNL     1      -6.735   0.227 -33.753  1.00  0.00     0.231 C 
HETATM   17  N   UNL     1      -6.040  -0.578 -34.644  1.00  0.00    -0.326 N 
HETATM   18  H   UNL     1      -5.379  -0.077 -35.229  1.00  0.00     0.169 HD
HETATM   19  O   UNL     1      -7.329  -0.141 -32.743  1.00  0.00    -0.272 OA
BRANCH  17  20
HETATM   20  C   UNL     1      -5.807  -1.967 -34.523  1.00  0.00     0.041 C 
HETATM   21  C   UNL     1      -4.691  -2.569 -33.904  1.00  0.00    -0.029 C 
HETATM   22  C   UNL     1      -4.535  -3.978 -33.997  1.00  0.00    -0.054 C 
HETATM   23  C   UNL     1      -3.694  -1.788 -33.086  1.00  0.00     0.051 C 
HETATM   24  C   UNL     1      -3.339  -4.688 -33.416  1.00  0.00     0.049 C 
HETATM   25  C   UNL     1      -5.544  -4.759 -34.582  1.00  0.00     0.007 C 
HETATM   26  C   UNL     1      -6.689  -4.165 -35.094  1.00  0.00     0.003 C 
HETATM   27  C   UNL     1      -6.818  -2.779 -35.064  1.00  0.00     0.030 C 
ENDBRANCH  17  20
ENDBRANCH  15  16
ENDBRANCH  14  15
ENDBRANCH   1  14
BRANCH   6  28
HETATM   28  C   UNL     1      -0.074   6.288 -31.426  1.00  0.00     0.273 C 
BRANCH  28  29
HETATM   29  C   UNL     1      -0.115   6.662 -29.966  1.00  0.00    -0.030 A 
HETATM   30  C   UNL     1      -0.535   7.946 -29.576  1.00  0.00     0.048 A 
HETATM   31  C   UNL     1      -0.454   8.280 -28.241  1.00  0.00     0.105 A 
HETATM   32  C   UNL     1      -0.009   7.392 -27.296  1.00  0.00     0.105 A 
HETATM   33  O   UNL     1      -0.772   9.490 -27.711  1.00  0.00    -0.323 OA
HETATM   34  O   UNL     1       0.005   7.928 -26.048  1.00  0.00    -0.323 OA
HETATM   35  C   UNL     1       0.375   6.112 -27.631  1.00  0.00     0.040 A 
HETATM   36  C   UNL     1      -0.464   9.266 -26.315  1.00  0.00     0.352 A 
HETATM   37  C   UNL     1       0.325   5.746 -28.981  1.00  0.00     0.012 A 
ENDBRANCH  28  29
ENDBRANCH   6  28
TORSDOF 6
ENDMDL
MODEL 8
REMARK VINA RESULT:      -9.0      2.252      2.890
REMARK  6 active torsions:
REMARK  status: ('A' for Active; 'I' for Inactive)
REMARK    1  A    between atoms: C_5  and  N_6 
REMARK       I    between atoms: N_6  and  C_7 
REMARK    2  A    between atoms: C_7  and  C_8 
REMARK    3  A    between atoms: C_8  and  S_9 
REMARK    4  A    between atoms: S_9  and  C_10 
REMARK    5  A    between atoms: N_15  and  C_17 
REMARK    6  A    between atoms: C_17  and  C_18 
ROOT
HETATM    1  C   UNL     1      -5.902   6.106 -31.338  1.00  0.00     0.169 A 
HETATM    2  N   UNL     1      -6.517   5.029 -30.995  1.00  0.00    -0.228 NA
HETATM    3  C   UNL     1      -6.644   4.039 -31.930  1.00  0.00     0.052 A 
HETATM    4  C   UNL     1      -6.114   4.112 -33.160  1.00  0.00     0.060 A 
HETATM    5  C   UNL     1      -6.162   3.012 -34.159  1.00  0.00     0.281 C 
HETATM    6  N   UNL     1      -6.567   1.688 -33.520  1.00  0.00    -0.063 N 
HETATM    7  H   UNL     1      -5.789   1.420 -32.905  1.00  0.00     0.280 HD
HETATM    8  C   UNL     1      -7.781   1.876 -32.637  1.00  0.00     0.241 C 
HETATM    9  C   UNL     1      -7.435   2.829 -31.489  1.00  0.00     0.088 C 
HETATM   10  C   UNL     1      -5.405   5.349 -33.533  1.00  0.00     0.257 A 
HETATM   11  O   UNL     1      -4.911   5.473 -34.645  1.00  0.00    -0.267 OA
HETATM   12  N   UNL     1      -5.352   6.304 -32.565  1.00  0.00    -0.302 N 
HETATM   13  H   UNL     1      -4.873   7.171 -32.765  1.00  0.00     0.171 HD
ENDROOT
BRANCH   1  14
HETATM   14  S   UNL     1      -5.697   7.455 -30.269  1.00  0.00    -0.083 SA
BRANCH  14  15
HETATM   15  C   UNL     1      -4.785   8.611 -31.351  1.00  0.00     0.185 C 
BRANCH  15  16
HETATM   16  C   UNL     1      -3.286   8.576 -31.072  1.00  0.00     0.231 C 
HETATM   17  N   UNL     1      -2.964   7.746 -30.008  1.00  0.00    -0.326 N 
HETATM   18  H   UNL     1      -3.690   7.082 -29.763  1.00  0.00     0.169 HD
HETATM   19  O   UNL     1      -2.501   9.220 -31.762  1.00  0.00    -0.272 OA
BRANCH  17  20
HETATM   20  C   UNL     1      -1.664   7.414 -29.559  1.00  0.00     0.041 C 
HETATM   21  C   UNL     1      -0.938   6.256 -29.910  1.00  0.00    -0.029 C 
HETATM   22  C   UNL     1       0.297   6.000 -29.256  1.00  0.00    -0.054 C 
HETATM   23  C   UNL     1      -1.381   5.318 -31.004  1.00  0.00     0.051 C 
HETATM   24  C   UNL     1       1.101   4.754 -29.531  1.00  0.00     0.049 C 
HETATM   25  C   UNL     1       0.835   6.950 -28.375  1.00  0.00     0.007 C 
HETATM   26  C   UNL     1       0.161   8.135 -28.117  1.00  0.00     0.003 C 
HETATM   27  C   UNL     1      -1.079   8.364 -28.705  1.00  0.00     0.030 C 
ENDBRANCH  17  20
ENDBRANCH  15  16
ENDBRANCH  14  15
ENDBRANCH   1  14
BRANCH   6  28
HETATM   28  C   UNL     1      -6.718   0.564 -34.516  1.00  0.00     0.273 C 
BRANCH  28  29
HETATM   29  C   UNL     1      -5.941  -0.663 -34.112  1.00  0.00    -0.030 A 
HETATM   30  C   UNL     1      -5.078  -0.620 -33.002  1.00  0.00     0.048 A 
HETATM   31  C   UNL     1      -4.307  -1.732 -32.733  1.00  0.00     0.105 A 
HETATM   32  C   UNL     1      -4.385  -2.870 -33.494  1.00  0.00     0.105 A 
HETATM   33  O   UNL     1      -3.392  -1.833 -31.733  1.00  0.00    -0.323 OA
HETATM   34  O   UNL     1      -3.531  -3.837 -33.066  1.00  0.00    -0.323 OA
HETATM   35  C   UNL     1      -5.244  -2.966 -34.565  1.00  0.00     0.040 A 
HETATM   36  C   UNL     1      -2.891  -3.171 -31.958  1.00  0.00     0.352 A 
HETATM   37  C   UNL     1      -6.027  -1.849 -34.879  1.00  0.00     0.012 A 
ENDBRANCH  28  29
ENDBRANCH   6  28
TORSDOF 6
ENDMDL
MODEL 9
REMARK VINA RESULT:      -9.0      2.889      9.004
REMARK  6 active torsions:
REMARK  status: ('A' for Active; 'I' for Inactive)
REMARK    1  A    between atoms: C_5  and  N_6 
REMARK       I    between atoms: N_6  and  C_7 
REMARK    2  A    between atoms: C_7  and  C_8 
REMARK    3  A    between atoms: C_8  and  S_9 
REMARK    4  A    between atoms: S_9  and  C_10 
REMARK    5  A    between atoms: N_15  and  C_17 
REMARK    6  A    between atoms: C_17  and  C_18 
ROOT
HETATM    1  C   UNL     1      -7.474   3.799 -30.926  1.00  0.00     0.169 A 
HETATM    2  N   UNL     1      -6.407   3.223 -31.358  1.00  0.00    -0.228 NA
HETATM    3  C   UNL     1      -5.289   3.991 -31.529  1.00  0.00     0.052 A 
HETATM    4  C   UNL     1      -5.233   5.294 -31.217  1.00  0.00     0.060 A 
HETATM    5  C   UNL     1      -4.004   6.125 -31.309  1.00  0.00     0.281 C 
HETATM    6  N   UNL     1      -2.753   5.266 -31.462  1.00  0.00    -0.063 N 
HETATM    7  H   UNL     1      -2.641   4.769 -30.570  1.00  0.00     0.280 HD
HETATM    8  C   UNL     1      -2.960   4.214 -32.528  1.00  0.00     0.241 C 
HETATM    9  C   UNL     1      -4.091   3.272 -32.105  1.00  0.00     0.088 C 
HETATM   10  C   UNL     1      -6.461   5.936 -30.713  1.00  0.00     0.257 A 
HETATM   11  O   UNL     1      -6.468   7.124 -30.424  1.00  0.00    -0.267 OA
HETATM   12  N   UNL     1      -7.543   5.118 -30.607  1.00  0.00    -0.302 N 
HETATM   13  H   UNL     1      -8.411   5.505 -30.261  1.00  0.00     0.171 HD
ENDROOT
BRANCH   1  14
HETATM   14  S   UNL     1      -8.972   2.957 -30.695  1.00  0.00    -0.083 SA
BRANCH  14  15
HETATM   15  C   UNL     1      -9.280   2.343 -32.388  1.00  0.00     0.185 C 
BRANCH  15  16
HETATM   16  C   UNL     1      -8.735   0.931 -32.580  1.00  0.00     0.231 C 
HETATM   17  N   UNL     1      -7.489   0.922 -33.190  1.00  0.00    -0.326 N 
HETATM   18  H   UNL     1      -7.003   1.812 -33.157  1.00  0.00     0.169 HD
HETATM   19  O   UNL     1      -9.370  -0.047 -32.197  1.00  0.00    -0.272 OA
BRANCH  17  20
HETATM   20  C   UNL     1      -6.668  -0.207 -33.418  1.00  0.00     0.041 C 
HETATM   21  C   UNL     1      -5.608  -0.641 -32.593  1.00  0.00    -0.029 C 
HETATM   22  C   UNL     1      -4.787  -1.710 -33.041  1.00  0.00    -0.054 C 
HETATM   23  C   UNL     1      -5.357  -0.066 -31.222  1.00  0.00     0.051 C 
HETATM   24  C   UNL     1      -3.599  -2.189 -32.246  1.00  0.00     0.049 C 
HETATM   25  C   UNL     1      -5.111  -2.397 -34.221  1.00  0.00     0.007 C 
HETATM   26  C   UNL     1      -6.219  -2.029 -34.971  1.00  0.00     0.003 C 
HETATM   27  C   UNL     1      -6.990  -0.942 -34.572  1.00  0.00     0.030 C 
ENDBRANCH  17  20
ENDBRANCH  15  16
ENDBRANCH  14  15
ENDBRANCH   1  14
BRANCH   6  28
HETATM   28  C   UNL     1      -1.492   6.074 -31.651  1.00  0.00     0.273 C 
BRANCH  28  29
HETATM   29  C   UNL     1      -0.779   6.330 -30.348  1.00  0.00    -0.030 A 
HETATM   30  C   UNL     1      -0.857   7.594 -29.735  1.00  0.00     0.048 A 
HETATM   31  C   UNL     1      -0.104   7.816 -28.602  1.00  0.00     0.105 A 
HETATM   32  C   UNL     1       0.685   6.839 -28.052  1.00  0.00     0.105 A 
HETATM   33  O   UNL     1      -0.029   8.991 -27.923  1.00  0.00    -0.323 OA
HETATM   34  O   UNL     1       1.352   7.272 -26.951  1.00  0.00    -0.323 OA
HETATM   35  C   UNL     1       0.760   5.577 -28.599  1.00  0.00     0.040 A 
HETATM   36  C   UNL     1       0.910   8.643 -26.880  1.00  0.00     0.352 A 
HETATM   37  C   UNL     1       0.023   5.323 -29.761  1.00  0.00     0.012 A 
ENDBRANCH  28  29
ENDBRANCH   6  28
TORSDOF 6
ENDMDL
MODEL 10
REMARK VINA RESULT:      -9.0      3.990     10.807
REMARK  6 active torsions:
REMARK  status: ('A' for Active; 'I' for Inactive)
REMARK    1  A    between atoms: C_5  and  N_6 
REMARK       I    between atoms: N_6  and  C_7 
REMARK    2  A    between atoms: C_7  and  C_8 
REMARK    3  A    between atoms: C_8  and  S_9 
REMARK    4  A    between atoms: S_9  and  C_10 
REMARK    5  A    between atoms: N_15  and  C_17 
REMARK    6  A    between atoms: C_17  and  C_18 
ROOT
HETATM    1  C   UNL     1      -5.594   4.306 -29.776  1.00  0.00     0.169 A 
HETATM    2  N   UNL     1      -4.833   4.957 -30.585  1.00  0.00    -0.228 NA
HETATM    3  C   UNL     1      -4.237   6.099 -30.126  1.00  0.00     0.052 A 
HETATM    4  C   UNL     1      -4.361   6.542 -28.866  1.00  0.00     0.060 A 
HETATM    5  C   UNL     1      -3.651   7.728 -28.322  1.00  0.00     0.281 C 
HETATM    6  N   UNL     1      -2.516   8.175 -29.238  1.00  0.00    -0.063 N 
HETATM    7  H   UNL     1      -1.808   7.431 -29.196  1.00  0.00     0.280 HD
HETATM    8  C   UNL     1      -2.991   8.248 -30.672  1.00  0.00     0.241 C 
HETATM    9  C   UNL     1      -3.413   6.853 -31.144  1.00  0.00     0.088 C 
HETATM   10  C   UNL     1      -5.228   5.779 -27.950  1.00  0.00     0.257 A 
HETATM   11  O   UNL     1      -5.385   6.144 -26.793  1.00  0.00    -0.267 OA
HETATM   12  N   UNL     1      -5.818   4.677 -28.487  1.00  0.00    -0.302 N 
HETATM   13  H   UNL     1      -6.418   4.114 -27.902  1.00  0.00     0.171 HD
ENDROOT
BRANCH   1  14
HETATM   14  S   UNL     1      -6.439   2.863 -30.231  1.00  0.00    -0.083 SA
BRANCH  14  15
HETATM   15  C   UNL     1      -5.178   2.045 -31.271  1.00  0.00     0.185 C 
BRANCH  15  16
HETATM   16  C   UNL     1      -5.577   0.614 -31.614  1.00  0.00     0.231 C 
HETATM   17  N   UNL     1      -5.037   0.186 -32.818  1.00  0.00    -0.326 N 
HETATM   18  H   UNL     1      -4.253   0.742 -33.143  1.00  0.00     0.169 HD
HETATM   19  O   UNL     1      -6.287  -0.041 -30.855  1.00  0.00    -0.272 OA
BRANCH  17  20
HETATM   20  C   UNL     1      -5.127  -1.113 -33.370  1.00  0.00     0.041 C 
HETATM   21  C   UNL     1      -4.245  -2.184 -33.116  1.00  0.00    -0.029 C 
HETATM   22  C   UNL     1      -4.390  -3.382 -33.866  1.00  0.00    -0.054 C 
HETATM   23  C   UNL     1      -3.200  -2.138 -32.031  1.00  0.00     0.051 C 
HETATM   24  C   UNL     1      -3.449  -4.548 -33.697  1.00  0.00     0.049 C 
HETATM   25  C   UNL     1      -5.473  -3.532 -34.746  1.00  0.00     0.007 C 
HETATM   26  C   UNL     1      -6.396  -2.510 -34.910  1.00  0.00     0.003 C 
HETATM   27  C   UNL     1      -6.223  -1.309 -34.227  1.00  0.00     0.030 C 
ENDBRANCH  17  20
ENDBRANCH  15  16
ENDBRANCH  14  15
ENDBRANCH   1  14
BRANCH   6  28
HETATM   28  C   UNL     1      -1.828   9.433 -28.769  1.00  0.00     0.273 C 
BRANCH  28  29
HETATM   29  C   UNL     1      -0.668   9.139 -27.851  1.00  0.00    -0.030 A 
HETATM   30  C   UNL     1      -0.622   9.705 -26.564  1.00  0.00     0.048 A 
HETATM   31  C   UNL     1       0.506   9.496 -25.800  1.00  0.00     0.105 A 
HETATM   32  C   UNL     1       1.556   8.736 -26.249  1.00  0.00     0.105 A 
HETATM   33  O   UNL     1       0.727  10.012 -24.563  1.00  0.00    -0.323 OA
HETATM   34  O   UNL     1       2.570   8.672 -25.347  1.00  0.00    -0.323 OA
HETATM   35  C   UNL     1       1.535   8.134 -27.487  1.00  0.00     0.040 A 
HETATM   36  C   UNL     1       2.049   9.496 -24.284  1.00  0.00     0.352 A 
HETATM   37  C   UNL     1       0.413   8.342 -28.297  1.00  0.00     0.012 A 
ENDBRANCH  28  29
ENDBRANCH   6  28
TORSDOF 6
ENDMDL
