MODEL 1
REMARK VINA RESULT:     -10.0      0.000      0.000
REMARK  6 active torsions:
REMARK  status: ('A' for Active; 'I' for Inactive)
REMARK    1  A    between atoms: C_8  and  C_9 
REMARK       I    between atoms: C_9  and  N_10 
REMARK    2  A    between atoms: N_10  and  N_11 
REMARK       I    between atoms: N_11  and  C_12 
REMARK    3  A    between atoms: C_12  and  C_13 
REMARK    4  A    between atoms: C_13  and  C_14 
REMARK    5  A    between atoms: C_14  and  N_15 
REMARK    6  A    between atoms: C_28  and  O_29 
ROOT
HETATM    1  N   UNL     1      -4.744   3.786 -32.896  1.00  0.00    -0.267 N 
HETATM    2  C   UNL     1      -4.705   4.864 -33.755  1.00  0.00     0.237 C 
HETATM    3  O   UNL     1      -4.931   4.754 -34.958  1.00  0.00    -0.272 OA
HETATM    4  H   UNL     1      -4.717   3.866 -31.879  1.00  0.00     0.190 HD
ENDROOT
BRANCH   1   5
HETATM    5  N   UNL     1      -5.145   2.553 -33.422  1.00  0.00    -0.263 N 
HETATM    6  C   UNL     1      -4.865   1.411 -32.702  1.00  0.00     0.272 C 
HETATM    7  O   UNL     1      -4.232   1.437 -31.644  1.00  0.00    -0.266 OA
HETATM    8  H   UNL     1      -5.828   2.604 -34.175  1.00  0.00     0.190 HD
BRANCH   6   9
HETATM    9  C   UNL     1      -5.387   0.115 -33.224  1.00  0.00     0.067 A 
HETATM   10  C   UNL     1      -4.560  -1.010 -33.373  1.00  0.00     0.032 A 
HETATM   11  C   UNL     1      -5.068  -2.222 -33.877  1.00  0.00    -0.025 A 
HETATM   12  C   UNL     1      -4.244  -3.348 -34.039  1.00  0.00     0.012 A 
HETATM   13  C   UNL     1      -6.435  -2.313 -34.225  1.00  0.00    -0.023 A 
HETATM   14  C   UNL     1      -4.759  -4.544 -34.539  1.00  0.00     0.001 A 
HETATM   15  C   UNL     1      -6.106  -4.633 -34.882  1.00  0.00     0.001 A 
HETATM   16  C   UNL     1      -6.939  -3.524 -34.726  1.00  0.00     0.012 A 
HETATM   17  C   UNL     1      -7.261  -1.192 -34.058  1.00  0.00     0.049 A 
HETATM   18  C   UNL     1      -6.744   0.003 -33.559  1.00  0.00     0.082 A 
BRANCH  18  19
HETATM   19  O   UNL     1      -7.642   1.030 -33.423  1.00  0.00    -0.360 OA
HETATM   20  H   UNL     1      -7.404   1.731 -34.069  1.00  0.00     0.217 HD
ENDBRANCH  18  19
ENDBRANCH   6   9
ENDBRANCH   1   5
BRANCH   2  21
HETATM   21  C   UNL     1      -4.351   6.165 -33.077  1.00  0.00     0.125 C 
BRANCH  21  22
HETATM   22  C   UNL     1      -2.931   6.587 -33.441  1.00  0.00     0.145 C 
BRANCH  22  23
HETATM   23  N   UNL     1      -2.052   6.581 -32.288  1.00  0.00    -0.279 N 
HETATM   24  C   UNL     1      -1.483   5.452 -31.765  1.00  0.00     0.261 A 
HETATM   25  O   UNL     1      -1.578   4.301 -32.145  1.00  0.00    -0.267 OA
HETATM   26  C   UNL     1      -0.681   5.882 -30.622  1.00  0.00     0.048 A 
HETATM   27  C   UNL     1      -0.777   7.260 -30.539  1.00  0.00     0.048 A 
HETATM   28  C   UNL     1       0.070   5.146 -29.726  1.00  0.00     0.018 A 
HETATM   29  C   UNL     1      -1.638   7.709 -31.631  1.00  0.00     0.261 A 
HETATM   30  C   UNL     1      -0.128   7.981 -29.556  1.00  0.00     0.018 A 
HETATM   31  O   UNL     1      -1.889   8.872 -31.874  1.00  0.00    -0.267 OA
HETATM   32  C   UNL     1       0.637   7.258 -28.634  1.00  0.00     0.001 A 
HETATM   33  C   UNL     1       0.736   5.852 -28.719  1.00  0.00     0.001 A 
ENDBRANCH  22  23
ENDBRANCH  21  22
ENDBRANCH   2  21
TORSDOF 6
ENDMDL
MODEL 2
REMARK VINA RESULT:      -9.9      2.317      3.474
REMARK  6 active torsions:
REMARK  status: ('A' for Active; 'I' for Inactive)
REMARK    1  A    between atoms: C_8  and  C_9 
REMARK       I    between atoms: C_9  and  N_10 
REMARK    2  A    between atoms: N_10  and  N_11 
REMARK       I    between atoms: N_11  and  C_12 
REMARK    3  A    between atoms: C_12  and  C_13 
REMARK    4  A    between atoms: C_13  and  C_14 
REMARK    5  A    between atoms: C_14  and  N_15 
REMARK    6  A    between atoms: C_28  and  O_29 
ROOT
HETATM    1  N   UNL     1      -6.938   3.175 -32.001  1.00  0.00    -0.267 N 
HETATM    2  C   UNL     1      -6.343   3.966 -31.041  1.00  0.00     0.237 C 
HETATM    3  O   UNL     1      -5.472   3.538 -30.286  1.00  0.00    -0.272 OA
HETATM    4  H   UNL     1      -7.543   3.534 -32.740  1.00  0.00     0.190 HD
ENDROOT
BRANCH   1   5
HETATM    5  N   UNL     1      -6.452   1.873 -32.161  1.00  0.00    -0.263 N 
HETATM    6  C   UNL     1      -6.586   1.269 -33.393  1.00  0.00     0.272 C 
HETATM    7  O   UNL     1      -7.162   1.816 -34.335  1.00  0.00    -0.266 OA
HETATM    8  H   UNL     1      -5.816   1.555 -31.431  1.00  0.00     0.190 HD
BRANCH   6   9
HETATM    9  C   UNL     1      -5.973  -0.079 -33.577  1.00  0.00     0.067 A 
HETATM   10  C   UNL     1      -6.681  -1.139 -34.163  1.00  0.00     0.032 A 
HETATM   11  C   UNL     1      -6.090  -2.407 -34.320  1.00  0.00    -0.025 A 
HETATM   12  C   UNL     1      -6.796  -3.476 -34.895  1.00  0.00     0.012 A 
HETATM   13  C   UNL     1      -4.758  -2.612 -33.893  1.00  0.00    -0.023 A 
HETATM   14  C   UNL     1      -6.199  -4.728 -35.046  1.00  0.00     0.001 A 
HETATM   15  C   UNL     1      -4.887  -4.929 -34.625  1.00  0.00     0.001 A 
HETATM   16  C   UNL     1      -4.170  -3.877 -34.052  1.00  0.00     0.012 A 
HETATM   17  C   UNL     1      -4.049  -1.545 -33.324  1.00  0.00     0.049 A 
HETATM   18  C   UNL     1      -4.648  -0.294 -33.175  1.00  0.00     0.082 A 
BRANCH  18  19
HETATM   19  O   UNL     1      -3.859   0.681 -32.620  1.00  0.00    -0.360 OA
HETATM   20  H   UNL     1      -3.843   1.448 -33.236  1.00  0.00     0.217 HD
ENDBRANCH  18  19
ENDBRANCH   6   9
ENDBRANCH   1   5
BRANCH   2  21
HETATM   21  C   UNL     1      -6.872   5.379 -31.007  1.00  0.00     0.125 C 
BRANCH  21  22
HETATM   22  C   UNL     1      -6.732   6.033 -32.377  1.00  0.00     0.145 C 
BRANCH  22  23
HETATM   23  N   UNL     1      -5.351   6.080 -32.817  1.00  0.00    -0.279 N 
HETATM   24  C   UNL     1      -4.860   5.362 -33.873  1.00  0.00     0.261 A 
HETATM   25  O   UNL     1      -5.445   4.603 -34.620  1.00  0.00    -0.267 OA
HETATM   26  C   UNL     1      -3.440   5.693 -33.975  1.00  0.00     0.048 A 
HETATM   27  C   UNL     1      -3.157   6.628 -32.995  1.00  0.00     0.048 A 
HETATM   28  C   UNL     1      -2.471   5.227 -34.842  1.00  0.00     0.018 A 
HETATM   29  C   UNL     1      -4.398   6.895 -32.269  1.00  0.00     0.261 A 
HETATM   30  C   UNL     1      -1.890   7.149 -32.824  1.00  0.00     0.018 A 
HETATM   31  O   UNL     1      -4.508   7.708 -31.373  1.00  0.00    -0.267 OA
HETATM   32  C   UNL     1      -0.889   6.689 -33.688  1.00  0.00     0.001 A 
HETATM   33  C   UNL     1      -1.178   5.737 -34.689  1.00  0.00     0.001 A 
ENDBRANCH  22  23
ENDBRANCH  21  22
ENDBRANCH   2  21
TORSDOF 6
ENDMDL
MODEL 3
REMARK VINA RESULT:      -9.8      1.965      3.456
REMARK  6 active torsions:
REMARK  status: ('A' for Active; 'I' for Inactive)
REMARK    1  A    between atoms: C_8  and  C_9 
REMARK       I    between atoms: C_9  and  N_10 
REMARK    2  A    between atoms: N_10  and  N_11 
REMARK       I    between atoms: N_11  and  C_12 
REMARK    3  A    between atoms: C_12  and  C_13 
REMARK    4  A    between atoms: C_13  and  C_14 
REMARK    5  A    between atoms: C_14  and  N_15 
REMARK    6  A    between atoms: C_28  and  O_29 
ROOT
HETATM    1  N   UNL     1      -3.431   3.892 -30.999  1.00  0.00    -0.267 N 
HETATM    2  C   UNL     1      -2.403   4.766 -31.284  1.00  0.00     0.237 C 
HETATM    3  O   UNL     1      -1.405   4.423 -31.915  1.00  0.00    -0.272 OA
HETATM    4  H   UNL     1      -4.334   4.179 -30.620  1.00  0.00     0.190 HD
ENDROOT
BRANCH   1   5
HETATM    5  N   UNL     1      -3.352   2.602 -31.534  1.00  0.00    -0.263 N 
HETATM    6  C   UNL     1      -4.379   1.720 -31.275  1.00  0.00     0.272 C 
HETATM    7  O   UNL     1      -5.333   2.013 -30.550  1.00  0.00    -0.266 OA
HETATM    8  H   UNL     1      -2.665   2.482 -32.276  1.00  0.00     0.190 HD
BRANCH   6   9
HETATM    9  C   UNL     1      -4.331   0.383 -31.935  1.00  0.00     0.067 A 
HETATM   10  C   UNL     1      -5.340  -0.046 -32.811  1.00  0.00     0.032 A 
HETATM   11  C   UNL     1      -5.284  -1.315 -33.417  1.00  0.00    -0.025 A 
HETATM   12  C   UNL     1      -6.295  -1.756 -34.286  1.00  0.00     0.012 A 
HETATM   13  C   UNL     1      -4.186  -2.166 -33.149  1.00  0.00    -0.023 A 
HETATM   14  C   UNL     1      -6.227  -3.016 -34.881  1.00  0.00     0.001 A 
HETATM   15  C   UNL     1      -5.147  -3.853 -34.617  1.00  0.00     0.001 A 
HETATM   16  C   UNL     1      -4.132  -3.431 -33.756  1.00  0.00     0.012 A 
HETATM   17  C   UNL     1      -3.173  -1.726 -32.287  1.00  0.00     0.049 A 
HETATM   18  C   UNL     1      -3.242  -0.466 -31.694  1.00  0.00     0.082 A 
BRANCH  18  19
HETATM   19  O   UNL     1      -2.190  -0.132 -30.880  1.00  0.00    -0.360 OA
HETATM   20  H   UNL     1      -1.753  -0.963 -30.589  1.00  0.00     0.217 HD
ENDBRANCH  18  19
ENDBRANCH   6   9
ENDBRANCH   1   5
BRANCH   2  21
HETATM   21  C   UNL     1      -2.623   6.157 -30.741  1.00  0.00     0.125 C 
BRANCH  21  22
HETATM   22  C   UNL     1      -1.415   7.040 -31.034  1.00  0.00     0.145 C 
BRANCH  22  23
HETATM   23  N   UNL     1      -0.759   7.483 -29.819  1.00  0.00    -0.279 N 
HETATM   24  C   UNL     1      -1.054   8.651 -29.172  1.00  0.00     0.261 A 
HETATM   25  O   UNL     1      -1.883   9.494 -29.454  1.00  0.00    -0.267 OA
HETATM   26  C   UNL     1      -0.172   8.715 -28.008  1.00  0.00     0.048 A 
HETATM   27  C   UNL     1       0.585   7.557 -27.992  1.00  0.00     0.048 A 
HETATM   28  C   UNL     1      -0.034   9.692 -27.041  1.00  0.00     0.018 A 
HETATM   29  C   UNL     1       0.184   6.753 -29.145  1.00  0.00     0.261 A 
HETATM   30  C   UNL     1       1.523   7.309 -27.011  1.00  0.00     0.018 A 
HETATM   31  O   UNL     1       0.622   5.648 -29.398  1.00  0.00    -0.267 OA
HETATM   32  C   UNL     1       1.686   8.286 -26.022  1.00  0.00     0.001 A 
HETATM   33  C   UNL     1       0.913   9.466 -26.037  1.00  0.00     0.001 A 
ENDBRANCH  22  23
ENDBRANCH  21  22
ENDBRANCH   2  21
TORSDOF 6
ENDMDL
MODEL 4
REMARK VINA RESULT:      -9.8      2.097     10.258
REMARK  6 active torsions:
REMARK  status: ('A' for Active; 'I' for Inactive)
REMARK    1  A    between atoms: C_8  and  C_9 
REMARK       I    between atoms: C_9  and  N_10 
REMARK    2  A    between atoms: N_10  and  N_11 
REMARK       I    between atoms: N_11  and  C_12 
REMARK    3  A    between atoms: C_12  and  C_13 
REMARK    4  A    between atoms: C_13  and  C_14 
REMARK    5  A    between atoms: C_14  and  N_15 
REMARK    6  A    between atoms: C_28  and  O_29 
ROOT
HETATM    1  N   UNL     1      -2.912   3.765 -31.938  1.00  0.00    -0.267 N 
HETATM    2  C   UNL     1      -4.083   3.086 -31.675  1.00  0.00     0.237 C 
HETATM    3  O   UNL     1      -4.575   3.037 -30.549  1.00  0.00    -0.272 OA
HETATM    4  H   UNL     1      -2.564   3.957 -32.877  1.00  0.00     0.190 HD
ENDROOT
BRANCH   1   5
HETATM    5  N   UNL     1      -2.333   4.488 -30.890  1.00  0.00    -0.263 N 
HETATM    6  C   UNL     1      -1.072   5.015 -31.074  1.00  0.00     0.272 C 
HETATM    7  O   UNL     1      -0.423   4.825 -32.105  1.00  0.00    -0.266 OA
HETATM    8  H   UNL     1      -2.977   4.784 -30.159  1.00  0.00     0.190 HD
BRANCH   6   9
HETATM    9  C   UNL     1      -0.510   5.869 -29.987  1.00  0.00     0.067 A 
HETATM   10  C   UNL     1      -1.027   7.143 -29.705  1.00  0.00     0.032 A 
HETATM   11  C   UNL     1      -0.477   7.939 -28.683  1.00  0.00    -0.025 A 
HETATM   12  C   UNL     1      -0.981   9.219 -28.403  1.00  0.00     0.012 A 
HETATM   13  C   UNL     1       0.605   7.442 -27.920  1.00  0.00    -0.023 A 
HETATM   14  C   UNL     1      -0.428   9.998 -27.386  1.00  0.00     0.001 A 
HETATM   15  C   UNL     1       0.637   9.509 -26.635  1.00  0.00     0.001 A 
HETATM   16  C   UNL     1       1.151   8.238 -26.900  1.00  0.00     0.012 A 
HETATM   17  C   UNL     1       1.107   6.162 -28.194  1.00  0.00     0.049 A 
HETATM   18  C   UNL     1       0.552   5.385 -29.211  1.00  0.00     0.082 A 
BRANCH  18  19
HETATM   19  O   UNL     1       1.110   4.144 -29.383  1.00  0.00    -0.360 OA
HETATM   20  H   UNL     1       1.920   4.094 -28.829  1.00  0.00     0.217 HD
ENDBRANCH  18  19
ENDBRANCH   6   9
ENDBRANCH   1   5
BRANCH   2  21
HETATM   21  C   UNL     1      -4.679   2.413 -32.887  1.00  0.00     0.125 C 
BRANCH  21  22
HETATM   22  C   UNL     1      -5.674   1.338 -32.465  1.00  0.00     0.145 C 
BRANCH  22  23
HETATM   23  N   UNL     1      -5.165   0.002 -32.710  1.00  0.00    -0.279 N 
HETATM   24  C   UNL     1      -5.463  -0.739 -33.821  1.00  0.00     0.261 A 
HETATM   25  O   UNL     1      -6.155  -0.442 -34.775  1.00  0.00    -0.267 OA
HETATM   26  C   UNL     1      -4.757  -2.010 -33.674  1.00  0.00     0.048 A 
HETATM   27  C   UNL     1      -4.035  -1.953 -32.495  1.00  0.00     0.048 A 
HETATM   28  C   UNL     1      -4.739  -3.124 -34.490  1.00  0.00     0.018 A 
HETATM   29  C   UNL     1      -4.279  -0.644 -31.891  1.00  0.00     0.261 A 
HETATM   30  C   UNL     1      -3.254  -3.007 -32.064  1.00  0.00     0.018 A 
HETATM   31  O   UNL     1      -3.753  -0.252 -30.868  1.00  0.00    -0.267 OA
HETATM   32  C   UNL     1      -3.222  -4.150 -32.871  1.00  0.00     0.001 A 
HETATM   33  C   UNL     1      -3.958  -4.207 -34.074  1.00  0.00     0.001 A 
ENDBRANCH  22  23
ENDBRANCH  21  22
ENDBRANCH   2  21
TORSDOF 6
ENDMDL
MODEL 5
REMARK VINA RESULT:      -9.6      1.609      9.994
REMARK  6 active torsions:
REMARK  status: ('A' for Active; 'I' for Inactive)
REMARK    1  A    between atoms: C_8  and  C_9 
REMARK       I    between atoms: C_9  and  N_10 
REMARK    2  A    between atoms: N_10  and  N_11 
REMARK       I    between atoms: N_11  and  C_12 
REMARK    3  A    between atoms: C_12  and  C_13 
REMARK    4  A    between atoms: C_13  and  C_14 
REMARK    5  A    between atoms: C_14  and  N_15 
REMARK    6  A    between atoms: C_28  and  O_29 
ROOT
HETATM    1  N   UNL     1      -3.456   4.067 -31.882  1.00  0.00    -0.267 N 
HETATM    2  C   UNL     1      -4.630   4.644 -32.319  1.00  0.00     0.237 C 
HETATM    3  O   UNL     1      -5.098   5.655 -31.799  1.00  0.00    -0.272 OA
HETATM    4  H   UNL     1      -2.963   3.329 -32.384  1.00  0.00     0.190 HD
ENDROOT
BRANCH   1   5
HETATM    5  N   UNL     1      -2.747   4.725 -30.871  1.00  0.00    -0.263 N 
HETATM    6  C   UNL     1      -1.431   5.061 -31.105  1.00  0.00     0.272 C 
HETATM    7  O   UNL     1      -0.848   4.756 -32.148  1.00  0.00    -0.266 OA
HETATM    8  H   UNL     1      -3.320   5.127 -30.131  1.00  0.00     0.190 HD
BRANCH   6   9
HETATM    9  C   UNL     1      -0.719   5.852 -30.059  1.00  0.00     0.067 A 
HETATM   10  C   UNL     1      -1.140   7.139 -29.690  1.00  0.00     0.032 A 
HETATM   11  C   UNL     1      -0.450   7.875 -28.708  1.00  0.00    -0.025 A 
HETATM   12  C   UNL     1      -0.859   9.167 -28.342  1.00  0.00     0.012 A 
HETATM   13  C   UNL     1       0.678   7.303 -28.076  1.00  0.00    -0.023 A 
HETATM   14  C   UNL     1      -0.167   9.886 -27.367  1.00  0.00     0.001 A 
HETATM   15  C   UNL     1       0.944   9.323 -26.744  1.00  0.00     0.001 A 
HETATM   16  C   UNL     1       1.364   8.039 -27.096  1.00  0.00     0.012 A 
HETATM   17  C   UNL     1       1.085   6.011 -28.435  1.00  0.00     0.049 A 
HETATM   18  C   UNL     1       0.391   5.294 -29.410  1.00  0.00     0.082 A 
BRANCH  18  19
HETATM   19  O   UNL     1       0.866   4.035 -29.674  1.00  0.00    -0.360 OA
HETATM   20  H   UNL     1       1.848   4.079 -29.705  1.00  0.00     0.217 HD
ENDBRANCH  18  19
ENDBRANCH   6   9
ENDBRANCH   1   5
BRANCH   2  21
HETATM   21  C   UNL     1      -5.272   3.912 -33.471  1.00  0.00     0.125 C 
BRANCH  21  22
HETATM   22  C   UNL     1      -6.346   2.956 -32.962  1.00  0.00     0.145 C 
BRANCH  22  23
HETATM   23  N   UNL     1      -6.064   1.580 -33.324  1.00  0.00    -0.279 N 
HETATM   24  C   UNL     1      -5.029   0.850 -32.808  1.00  0.00     0.261 A 
HETATM   25  O   UNL     1      -4.200   1.177 -31.980  1.00  0.00    -0.267 OA
HETATM   26  C   UNL     1      -5.099  -0.469 -33.433  1.00  0.00     0.048 A 
HETATM   27  C   UNL     1      -6.201  -0.478 -34.269  1.00  0.00     0.048 A 
HETATM   28  C   UNL     1      -4.279  -1.572 -33.293  1.00  0.00     0.018 A 
HETATM   29  C   UNL     1      -6.836   0.836 -34.175  1.00  0.00     0.261 A 
HETATM   30  C   UNL     1      -6.547  -1.588 -35.013  1.00  0.00     0.018 A 
HETATM   31  O   UNL     1      -7.862   1.145 -34.748  1.00  0.00    -0.267 OA
HETATM   32  C   UNL     1      -5.730  -2.718 -34.891  1.00  0.00     0.001 A 
HETATM   33  C   UNL     1      -4.606  -2.709 -34.038  1.00  0.00     0.001 A 
ENDBRANCH  22  23
ENDBRANCH  21  22
ENDBRANCH   2  21
TORSDOF 6
ENDMDL
MODEL 6
REMARK VINA RESULT:      -9.6      1.324      2.234
REMARK  6 active torsions:
REMARK  status: ('A' for Active; 'I' for Inactive)
REMARK    1  A    between atoms: C_8  and  C_9 
REMARK       I    between atoms: C_9  and  N_10 
REMARK    2  A    between atoms: N_10  and  N_11 
REMARK       I    between atoms: N_11  and  C_12 
REMARK    3  A    between atoms: C_12  and  C_13 
REMARK    4  A    between atoms: C_13  and  C_14 
REMARK    5  A    between atoms: C_14  and  N_15 
REMARK    6  A    between atoms: C_28  and  O_29 
ROOT
HETATM    1  N   UNL     1      -5.059   3.047 -31.974  1.00  0.00    -0.267 N 
HETATM    2  C   UNL     1      -3.795   3.598 -31.996  1.00  0.00     0.237 C 
HETATM    3  O   UNL     1      -2.787   2.923 -32.192  1.00  0.00    -0.272 OA
HETATM    4  H   UNL     1      -5.919   3.594 -31.972  1.00  0.00     0.190 HD
ENDROOT
BRANCH   1   5
HETATM    5  N   UNL     1      -5.177   1.686 -32.278  1.00  0.00    -0.263 N 
HETATM    6  C   UNL     1      -5.809   1.328 -33.449  1.00  0.00     0.272 C 
HETATM    7  O   UNL     1      -6.316   2.160 -34.206  1.00  0.00    -0.266 OA
HETATM    8  H   UNL     1      -4.575   1.067 -31.738  1.00  0.00     0.190 HD
BRANCH   6   9
HETATM    9  C   UNL     1      -5.838  -0.120 -33.810  1.00  0.00     0.067 A 
HETATM   10  C   UNL     1      -4.804  -0.994 -33.442  1.00  0.00     0.032 A 
HETATM   11  C   UNL     1      -4.843  -2.355 -33.800  1.00  0.00    -0.025 A 
HETATM   12  C   UNL     1      -3.807  -3.234 -33.445  1.00  0.00     0.012 A 
HETATM   13  C   UNL     1      -5.948  -2.851 -34.530  1.00  0.00    -0.023 A 
HETATM   14  C   UNL     1      -3.858  -4.581 -33.805  1.00  0.00     0.001 A 
HETATM   15  C   UNL     1      -4.945  -5.069 -34.523  1.00  0.00     0.001 A 
HETATM   16  C   UNL     1      -5.985  -4.209 -34.884  1.00  0.00     0.012 A 
HETATM   17  C   UNL     1      -6.986  -1.977 -34.880  1.00  0.00     0.049 A 
HETATM   18  C   UNL     1      -6.933  -0.631 -34.519  1.00  0.00     0.082 A 
BRANCH  18  19
HETATM   19  O   UNL     1      -8.009   0.130 -34.900  1.00  0.00    -0.360 OA
HETATM   20  H   UNL     1      -8.476   0.427 -34.087  1.00  0.00     0.217 HD
ENDBRANCH  18  19
ENDBRANCH   6   9
ENDBRANCH   1   5
BRANCH   2  21
HETATM   21  C   UNL     1      -3.780   5.086 -31.747  1.00  0.00     0.125 C 
BRANCH  21  22
HETATM   22  C   UNL     1      -2.451   5.687 -32.190  1.00  0.00     0.145 C 
BRANCH  22  23
HETATM   23  N   UNL     1      -1.701   6.229 -31.073  1.00  0.00    -0.279 N 
HETATM   24  C   UNL     1      -1.908   7.474 -30.544  1.00  0.00     0.261 A 
HETATM   25  O   UNL     1      -2.720   8.318 -30.869  1.00  0.00    -0.267 OA
HETATM   26  C   UNL     1      -0.952   7.624 -29.450  1.00  0.00     0.048 A 
HETATM   27  C   UNL     1      -0.241   6.441 -29.349  1.00  0.00     0.048 A 
HETATM   28  C   UNL     1      -0.713   8.694 -28.608  1.00  0.00     0.018 A 
HETATM   29  C   UNL     1      -0.747   5.535 -30.379  1.00  0.00     0.261 A 
HETATM   30  C   UNL     1       0.748   6.259 -28.403  1.00  0.00     0.018 A 
HETATM   31  O   UNL     1      -0.370   4.390 -30.531  1.00  0.00    -0.267 OA
HETATM   32  C   UNL     1       1.011   7.330 -27.541  1.00  0.00     0.001 A 
HETATM   33  C   UNL     1       0.286   8.536 -27.643  1.00  0.00     0.001 A 
ENDBRANCH  22  23
ENDBRANCH  21  22
ENDBRANCH   2  21
TORSDOF 6
ENDMDL
MODEL 7
REMARK VINA RESULT:      -9.5      2.364      3.060
REMARK  6 active torsions:
REMARK  status: ('A' for Active; 'I' for Inactive)
REMARK    1  A    between atoms: C_8  and  C_9 
REMARK       I    between atoms: C_9  and  N_10 
REMARK    2  A    between atoms: N_10  and  N_11 
REMARK       I    between atoms: N_11  and  C_12 
REMARK    3  A    between atoms: C_12  and  C_13 
REMARK    4  A    between atoms: C_13  and  C_14 
REMARK    5  A    between atoms: C_14  and  N_15 
REMARK    6  A    between atoms: C_28  and  O_29 
ROOT
HETATM    1  N   UNL     1      -4.933   3.275 -29.814  1.00  0.00    -0.267 N 
HETATM    2  C   UNL     1      -6.003   4.144 -29.859  1.00  0.00     0.237 C 
HETATM    3  O   UNL     1      -6.986   3.941 -30.570  1.00  0.00    -0.272 OA
HETATM    4  H   UNL     1      -4.183   3.330 -29.127  1.00  0.00     0.190 HD
ENDROOT
BRANCH   1   5
HETATM    5  N   UNL     1      -5.035   2.085 -30.544  1.00  0.00    -0.263 N 
HETATM    6  C   UNL     1      -3.923   1.636 -31.224  1.00  0.00     0.272 C 
HETATM    7  O   UNL     1      -2.867   2.271 -31.252  1.00  0.00    -0.266 OA
HETATM    8  H   UNL     1      -5.845   1.509 -30.323  1.00  0.00     0.190 HD
BRANCH   6   9
HETATM    9  C   UNL     1      -4.016   0.316 -31.913  1.00  0.00     0.067 A 
HETATM   10  C   UNL     1      -5.086  -0.001 -32.763  1.00  0.00     0.032 A 
HETATM   11  C   UNL     1      -5.162  -1.256 -33.397  1.00  0.00    -0.025 A 
HETATM   12  C   UNL     1      -6.236  -1.584 -34.240  1.00  0.00     0.012 A 
HETATM   13  C   UNL     1      -4.137  -2.206 -33.184  1.00  0.00    -0.023 A 
HETATM   14  C   UNL     1      -6.299  -2.831 -34.864  1.00  0.00     0.001 A 
HETATM   15  C   UNL     1      -5.290  -3.766 -34.654  1.00  0.00     0.001 A 
HETATM   16  C   UNL     1      -4.215  -3.456 -33.820  1.00  0.00     0.012 A 
HETATM   17  C   UNL     1      -3.061  -1.878 -32.348  1.00  0.00     0.049 A 
HETATM   18  C   UNL     1      -3.000  -0.631 -31.726  1.00  0.00     0.082 A 
BRANCH  18  19
HETATM   19  O   UNL     1      -1.897  -0.411 -30.942  1.00  0.00    -0.360 OA
HETATM   20  H   UNL     1      -1.109  -0.362 -31.529  1.00  0.00     0.217 HD
ENDBRANCH  18  19
ENDBRANCH   6   9
ENDBRANCH   1   5
BRANCH   2  21
HETATM   21  C   UNL     1      -5.839   5.352 -28.970  1.00  0.00     0.125 C 
BRANCH  21  22
HETATM   22  C   UNL     1      -5.409   6.563 -29.790  1.00  0.00     0.145 C 
BRANCH  22  23
HETATM   23  N   UNL     1      -3.965   6.698 -29.843  1.00  0.00    -0.279 N 
HETATM   24  C   UNL     1      -3.181   6.151 -30.822  1.00  0.00     0.261 A 
HETATM   25  O   UNL     1      -3.513   5.499 -31.793  1.00  0.00    -0.267 OA
HETATM   26  C   UNL     1      -1.803   6.517 -30.502  1.00  0.00     0.048 A 
HETATM   27  C   UNL     1      -1.832   7.302 -29.364  1.00  0.00     0.048 A 
HETATM   28  C   UNL     1      -0.620   6.198 -31.141  1.00  0.00     0.018 A 
HETATM   29  C   UNL     1      -3.230   7.439 -28.958  1.00  0.00     0.261 A 
HETATM   30  C   UNL     1      -0.681   7.814 -28.798  1.00  0.00     0.018 A 
HETATM   31  O   UNL     1      -3.610   8.111 -28.020  1.00  0.00    -0.267 OA
HETATM   32  C   UNL     1       0.531   7.502 -29.424  1.00  0.00     0.001 A 
HETATM   33  C   UNL     1       0.560   6.702 -30.586  1.00  0.00     0.001 A 
ENDBRANCH  22  23
ENDBRANCH  21  22
ENDBRANCH   2  21
TORSDOF 6
ENDMDL
MODEL 8
REMARK VINA RESULT:      -9.2      1.716      2.792
REMARK  6 active torsions:
REMARK  status: ('A' for Active; 'I' for Inactive)
REMARK    1  A    between atoms: C_8  and  C_9 
REMARK       I    between atoms: C_9  and  N_10 
REMARK    2  A    between atoms: N_10  and  N_11 
REMARK       I    between atoms: N_11  and  C_12 
REMARK    3  A    between atoms: C_12  and  C_13 
REMARK    4  A    between atoms: C_13  and  C_14 
REMARK    5  A    between atoms: C_14  and  N_15 
REMARK    6  A    between atoms: C_28  and  O_29 
ROOT
HETATM    1  N   UNL     1      -2.571   3.887 -31.885  1.00  0.00    -0.267 N 
HETATM    2  C   UNL     1      -1.947   4.797 -32.712  1.00  0.00     0.237 C 
HETATM    3  O   UNL     1      -1.827   4.610 -33.922  1.00  0.00    -0.272 OA
HETATM    4  H   UNL     1      -2.826   4.079 -30.916  1.00  0.00     0.190 HD
ENDROOT
BRANCH   1   5
HETATM    5  N   UNL     1      -3.157   2.764 -32.481  1.00  0.00    -0.263 N 
HETATM    6  C   UNL     1      -4.259   2.201 -31.875  1.00  0.00     0.272 C 
HETATM    7  O   UNL     1      -4.711   2.619 -30.807  1.00  0.00    -0.266 OA
HETATM    8  H   UNL     1      -2.879   2.591 -33.445  1.00  0.00     0.190 HD
BRANCH   6   9
HETATM    9  C   UNL     1      -4.934   1.069 -32.574  1.00  0.00     0.067 A 
HETATM   10  C   UNL     1      -4.265  -0.133 -32.852  1.00  0.00     0.032 A 
HETATM   11  C   UNL     1      -4.914  -1.188 -33.522  1.00  0.00    -0.025 A 
HETATM   12  C   UNL     1      -4.248  -2.389 -33.813  1.00  0.00     0.012 A 
HETATM   13  C   UNL     1      -6.266  -1.038 -33.909  1.00  0.00    -0.023 A 
HETATM   14  C   UNL     1      -4.903  -3.427 -34.476  1.00  0.00     0.001 A 
HETATM   15  C   UNL     1      -6.234  -3.279 -34.857  1.00  0.00     0.001 A 
HETATM   16  C   UNL     1      -6.911  -2.092 -34.575  1.00  0.00     0.012 A 
HETATM   17  C   UNL     1      -6.935   0.157 -33.614  1.00  0.00     0.049 A 
HETATM   18  C   UNL     1      -6.278   1.194 -32.950  1.00  0.00     0.082 A 
BRANCH  18  19
HETATM   19  O   UNL     1      -7.031   2.312 -32.700  1.00  0.00    -0.360 OA
HETATM   20  H   UNL     1      -7.973   2.036 -32.626  1.00  0.00     0.217 HD
ENDBRANCH  18  19
ENDBRANCH   6   9
ENDBRANCH   1   5
BRANCH   2  21
HETATM   21  C   UNL     1      -1.429   6.016 -31.990  1.00  0.00     0.125 C 
BRANCH  21  22
HETATM   22  C   UNL     1      -2.113   6.164 -30.636  1.00  0.00     0.145 C 
BRANCH  22  23
HETATM   23  N   UNL     1      -1.302   6.916 -29.697  1.00  0.00    -0.279 N 
HETATM   24  C   UNL     1      -1.591   8.186 -29.282  1.00  0.00     0.261 A 
HETATM   25  O   UNL     1      -2.535   8.892 -29.579  1.00  0.00    -0.267 OA
HETATM   26  C   UNL     1      -0.531   8.570 -28.352  1.00  0.00     0.048 A 
HETATM   27  C   UNL     1       0.325   7.491 -28.225  1.00  0.00     0.048 A 
HETATM   28  C   UNL     1      -0.322   9.754 -27.671  1.00  0.00     0.018 A 
HETATM   29  C   UNL     1      -0.190   6.417 -29.072  1.00  0.00     0.261 A 
HETATM   30  C   UNL     1       1.440   7.533 -27.411  1.00  0.00     0.018 A 
HETATM   31  O   UNL     1       0.302   5.309 -29.152  1.00  0.00    -0.267 OA
HETATM   32  C   UNL     1       1.676   8.722 -26.713  1.00  0.00     0.001 A 
HETATM   33  C   UNL     1       0.802   9.823 -26.841  1.00  0.00     0.001 A 
ENDBRANCH  22  23
ENDBRANCH  21  22
ENDBRANCH   2  21
TORSDOF 6
ENDMDL
MODEL 9
REMARK VINA RESULT:      -8.9      1.898     10.541
REMARK  6 active torsions:
REMARK  status: ('A' for Active; 'I' for Inactive)
REMARK    1  A    between atoms: C_8  and  C_9 
REMARK       I    between atoms: C_9  and  N_10 
REMARK    2  A    between atoms: N_10  and  N_11 
REMARK       I    between atoms: N_11  and  C_12 
REMARK    3  A    between atoms: C_12  and  C_13 
REMARK    4  A    between atoms: C_13  and  C_14 
REMARK    5  A    between atoms: C_14  and  N_15 
REMARK    6  A    between atoms: C_28  and  O_29 
ROOT
HETATM    1  N   UNL     1      -3.414   5.429 -31.210  1.00  0.00    -0.267 N 
HETATM    2  C   UNL     1      -2.929   4.237 -31.706  1.00  0.00     0.237 C 
HETATM    3  O   UNL     1      -1.841   3.778 -31.365  1.00  0.00    -0.272 OA
HETATM    4  H   UNL     1      -4.369   5.757 -31.348  1.00  0.00     0.190 HD
ENDROOT
BRANCH   1   5
HETATM    5  N   UNL     1      -2.662   6.073 -30.221  1.00  0.00    -0.263 N 
HETATM    6  C   UNL     1      -2.117   7.306 -30.510  1.00  0.00     0.272 C 
HETATM    7  O   UNL     1      -2.227   7.832 -31.620  1.00  0.00    -0.266 OA
HETATM    8  H   UNL     1      -2.774   5.701 -29.280  1.00  0.00     0.190 HD
BRANCH   6   9
HETATM    9  C   UNL     1      -1.405   8.026 -29.414  1.00  0.00     0.067 A 
HETATM   10  C   UNL     1      -0.309   7.458 -28.746  1.00  0.00     0.032 A 
HETATM   11  C   UNL     1       0.345   8.147 -27.708  1.00  0.00    -0.025 A 
HETATM   12  C   UNL     1       1.435   7.580 -27.028  1.00  0.00     0.012 A 
HETATM   13  C   UNL     1      -0.102   9.437 -27.340  1.00  0.00    -0.023 A 
HETATM   14  C   UNL     1       2.075   8.274 -26.001  1.00  0.00     0.001 A 
HETATM   15  C   UNL     1       1.636   9.545 -25.639  1.00  0.00     0.001 A 
HETATM   16  C   UNL     1       0.554  10.123 -26.305  1.00  0.00     0.012 A 
HETATM   17  C   UNL     1      -1.186  10.007 -28.022  1.00  0.00     0.049 A 
HETATM   18  C   UNL     1      -1.824   9.312 -29.048  1.00  0.00     0.082 A 
BRANCH  18  19
HETATM   19  O   UNL     1      -2.863   9.969 -29.656  1.00  0.00    -0.360 OA
HETATM   20  H   UNL     1      -2.759  10.931 -29.483  1.00  0.00     0.217 HD
ENDBRANCH  18  19
ENDBRANCH   6   9
ENDBRANCH   1   5
BRANCH   2  21
HETATM   21  C   UNL     1      -3.852   3.574 -32.698  1.00  0.00     0.125 C 
BRANCH  21  22
HETATM   22  C   UNL     1      -4.871   2.699 -31.977  1.00  0.00     0.145 C 
BRANCH  22  23
HETATM   23  N   UNL     1      -5.036   1.412 -32.625  1.00  0.00    -0.279 N 
HETATM   24  C   UNL     1      -4.205   0.343 -32.428  1.00  0.00     0.261 A 
HETATM   25  O   UNL     1      -3.233   0.253 -31.703  1.00  0.00    -0.267 OA
HETATM   26  C   UNL     1      -4.717  -0.741 -33.263  1.00  0.00     0.048 A 
HETATM   27  C   UNL     1      -5.859  -0.280 -33.893  1.00  0.00     0.048 A 
HETATM   28  C   UNL     1      -4.238  -2.021 -33.463  1.00  0.00     0.018 A 
HETATM   29  C   UNL     1      -6.076   1.099 -33.458  1.00  0.00     0.261 A 
HETATM   30  C   UNL     1      -6.587  -1.070 -34.760  1.00  0.00     0.018 A 
HETATM   31  O   UNL     1      -7.026   1.782 -33.788  1.00  0.00    -0.267 OA
HETATM   32  C   UNL     1      -6.120  -2.371 -34.982  1.00  0.00     0.001 A 
HETATM   33  C   UNL     1      -4.956  -2.842 -34.338  1.00  0.00     0.001 A 
ENDBRANCH  22  23
ENDBRANCH  21  22
ENDBRANCH   2  21
TORSDOF 6
ENDMDL
MODEL 10
REMARK VINA RESULT:      -8.7      2.225      3.173
REMARK  6 active torsions:
REMARK  status: ('A' for Active; 'I' for Inactive)
REMARK    1  A    between atoms: C_8  and  C_9 
REMARK       I    between atoms: C_9  and  N_10 
REMARK    2  A    between atoms: N_10  and  N_11 
REMARK       I    between atoms: N_11  and  C_12 
REMARK    3  A    between atoms: C_12  and  C_13 
REMARK    4  A    between atoms: C_13  and  C_14 
REMARK    5  A    between atoms: C_14  and  N_15 
REMARK    6  A    between atoms: C_28  and  O_29 
ROOT
HETATM    1  N   UNL     1      -2.735   3.742 -31.928  1.00  0.00    -0.267 N 
HETATM    2  C   UNL     1      -1.955   4.526 -32.752  1.00  0.00     0.237 C 
HETATM    3  O   UNL     1      -1.897   4.346 -33.967  1.00  0.00    -0.272 OA
HETATM    4  H   UNL     1      -2.928   3.959 -30.950  1.00  0.00     0.190 HD
ENDROOT
BRANCH   1   5
HETATM    5  N   UNL     1      -3.546   2.774 -32.531  1.00  0.00    -0.263 N 
HETATM    6  C   UNL     1      -3.509   1.487 -32.040  1.00  0.00     0.272 C 
HETATM    7  O   UNL     1      -2.751   1.152 -31.127  1.00  0.00    -0.266 OA
HETATM    8  H   UNL     1      -4.286   3.140 -33.128  1.00  0.00     0.190 HD
BRANCH   6   9
HETATM    9  C   UNL     1      -4.452   0.491 -32.625  1.00  0.00     0.067 A 
HETATM   10  C   UNL     1      -4.003  -0.722 -33.170  1.00  0.00     0.032 A 
HETATM   11  C   UNL     1      -4.906  -1.647 -33.727  1.00  0.00    -0.025 A 
HETATM   12  C   UNL     1      -4.463  -2.857 -34.284  1.00  0.00     0.012 A 
HETATM   13  C   UNL     1      -6.290  -1.354 -33.727  1.00  0.00    -0.023 A 
HETATM   14  C   UNL     1      -5.369  -3.765 -34.833  1.00  0.00     0.001 A 
HETATM   15  C   UNL     1      -6.731  -3.477 -34.832  1.00  0.00     0.001 A 
HETATM   16  C   UNL     1      -7.189  -2.278 -34.282  1.00  0.00     0.012 A 
HETATM   17  C   UNL     1      -6.735  -0.149 -33.166  1.00  0.00     0.049 A 
HETATM   18  C   UNL     1      -5.828   0.758 -32.618  1.00  0.00     0.082 A 
BRANCH  18  19
HETATM   19  O   UNL     1      -6.373   1.897 -32.084  1.00  0.00    -0.360 OA
HETATM   20  H   UNL     1      -7.287   1.688 -31.786  1.00  0.00     0.217 HD
ENDBRANCH  18  19
ENDBRANCH   6   9
ENDBRANCH   1   5
BRANCH   2  21
HETATM   21  C   UNL     1      -1.188   5.598 -32.018  1.00  0.00     0.125 C 
BRANCH  21  22
HETATM   22  C   UNL     1      -1.795   5.840 -30.641  1.00  0.00     0.145 C 
BRANCH  22  23
HETATM   23  N   UNL     1      -2.460   7.127 -30.560  1.00  0.00    -0.279 N 
HETATM   24  C   UNL     1      -3.724   7.366 -31.025  1.00  0.00     0.261 A 
HETATM   25  O   UNL     1      -4.505   6.596 -31.549  1.00  0.00    -0.267 OA
HETATM   26  C   UNL     1      -4.007   8.774 -30.754  1.00  0.00     0.048 A 
HETATM   27  C   UNL     1      -2.907   9.303 -30.101  1.00  0.00     0.048 A 
HETATM   28  C   UNL     1      -5.121   9.537 -31.046  1.00  0.00     0.018 A 
HETATM   29  C   UNL     1      -1.924   8.232 -29.954  1.00  0.00     0.261 A 
HETATM   30  C   UNL     1      -2.858  10.625 -29.704  1.00  0.00     0.018 A 
HETATM   31  O   UNL     1      -0.861   8.350 -29.378  1.00  0.00    -0.267 OA
HETATM   32  C   UNL     1      -3.973  11.420 -29.992  1.00  0.00     0.001 A 
HETATM   33  C   UNL     1      -5.095  10.880 -30.656  1.00  0.00     0.001 A 
ENDBRANCH  22  23
ENDBRANCH  21  22
ENDBRANCH   2  21
TORSDOF 6
ENDMDL
