MODEL 1
REMARK VINA RESULT:      -7.4      0.000      0.000
REMARK  6 active torsions:
REMARK  status: ('A' for Active; 'I' for Inactive)
REMARK    1  A    between atoms: C_6  and  C_7 
REMARK    2  A    between atoms: C_7  and  N_8 
REMARK    3  A    between atoms: C_7  and  C_24 
REMARK       I    between atoms: N_8  and  C_9 
REMARK       I    between atoms: C_9  and  N_10 
REMARK    4  A    between atoms: N_10  and  C_11 
REMARK    5  A    between atoms: C_14  and  C_15 
REMARK    6  A    between atoms: C_24  and  O_25 
ROOT
HETATM    1  N   UNL     1      -8.828   1.725 -34.066  1.00  0.00    -0.331 N 
HETATM    2  C   UNL     1      -7.480   1.905 -34.122  1.00  0.00     0.321 C 
HETATM    3  N   UNL     1      -7.001   3.061 -33.574  1.00  0.00    -0.309 N 
HETATM    4  O   UNL     1      -6.820   1.016 -34.652  1.00  0.00    -0.247 OA
HETATM    5  H   UNL     1      -9.097   0.854 -34.503  1.00  0.00     0.165 HD
HETATM    6  H   UNL     1      -7.681   3.689 -33.186  1.00  0.00     0.170 HD
ENDROOT
BRANCH   1   7
HETATM    7  C   UNL     1      -9.901   2.585 -33.577  1.00  0.00     0.161 C 
BRANCH   7   8
HETATM    8  C   UNL     1     -11.202   2.058 -34.100  1.00  0.00     0.056 A 
HETATM    9  N   UNL     1     -11.949   2.700 -35.061  1.00  0.00    -0.277 N 
HETATM   10  C   UNL     1     -11.640   3.933 -35.748  1.00  0.00     0.179 C 
HETATM   11  N   UNL     1     -13.098   2.065 -35.354  1.00  0.00    -0.185 NA
HETATM   12  C   UNL     1     -13.077   0.980 -34.581  1.00  0.00     0.141 A 
HETATM   13  C   UNL     1     -11.928   0.925 -33.778  1.00  0.00     0.050 A 
ENDBRANCH   7   8
BRANCH   7  14
HETATM   14  C   UNL     1      -9.905   2.632 -32.032  1.00  0.00     0.198 C 
BRANCH  14  15
HETATM   15  O   UNL     1      -9.177   3.786 -31.597  1.00  0.00    -0.394 OA
HETATM   16  C   UNL     1      -9.652   4.273 -30.349  1.00  0.00     0.201 C 
ENDBRANCH  14  15
ENDBRANCH   7  14
ENDBRANCH   1   7
BRANCH   3  17
HETATM   17  C   UNL     1      -5.659   3.487 -33.493  1.00  0.00     0.036 A 
HETATM   18  C   UNL     1      -4.711   2.937 -32.638  1.00  0.00     0.030 A 
HETATM   19  C   UNL     1      -3.393   3.417 -32.629  1.00  0.00     0.010 A 
HETATM   20  C   UNL     1      -2.975   4.449 -33.485  1.00  0.00    -0.054 A 
HETATM   21  C   UNL     1      -3.952   5.017 -34.315  1.00  0.00     0.010 A 
HETATM   22  C   UNL     1      -5.268   4.536 -34.327  1.00  0.00     0.030 A 
BRANCH  20  23
HETATM   23  C   UNL     1      -1.530   4.952 -33.428  1.00  0.00     0.018 C 
HETATM   24  C   UNL     1      -1.297   6.263 -34.218  1.00  0.00     0.009 C 
HETATM   25  C   UNL     1      -1.889   7.482 -33.512  1.00  0.00     0.001 C 
HETATM   26  C   UNL     1      -1.321   7.640 -32.107  1.00  0.00     0.000 C 
HETATM   27  C   UNL     1      -1.476   6.365 -31.283  1.00  0.00     0.001 C 
HETATM   28  C   UNL     1      -0.925   5.140 -32.017  1.00  0.00     0.009 C 
ENDBRANCH  20  23
ENDBRANCH   3  17
TORSDOF 6
ENDMDL
MODEL 2
REMARK VINA RESULT:      -7.2      3.086      4.785
REMARK  6 active torsions:
REMARK  status: ('A' for Active; 'I' for Inactive)
REMARK    1  A    between atoms: C_6  and  C_7 
REMARK    2  A    between atoms: C_7  and  N_8 
REMARK    3  A    between atoms: C_7  and  C_24 
REMARK       I    between atoms: N_8  and  C_9 
REMARK       I    between atoms: C_9  and  N_10 
REMARK    4  A    between atoms: N_10  and  C_11 
REMARK    5  A    between atoms: C_14  and  C_15 
REMARK    6  A    between atoms: C_24  and  O_25 
ROOT
HETATM    1  N   UNL     1      -6.174   0.964 -32.443  1.00  0.00    -0.331 N 
HETATM    2  C   UNL     1      -5.385   1.904 -31.854  1.00  0.00     0.321 C 
HETATM    3  N   UNL     1      -4.792   2.806 -32.690  1.00  0.00    -0.309 N 
HETATM    4  O   UNL     1      -5.284   1.861 -30.632  1.00  0.00    -0.247 OA
HETATM    5  H   UNL     1      -6.563   0.333 -31.755  1.00  0.00     0.165 HD
HETATM    6  H   UNL     1      -4.973   2.695 -33.672  1.00  0.00     0.170 HD
ENDROOT
BRANCH   1   7
HETATM    7  C   UNL     1      -6.465   0.683 -33.845  1.00  0.00     0.161 C 
BRANCH   7   8
HETATM    8  C   UNL     1      -6.229  -0.775 -34.093  1.00  0.00     0.056 A 
HETATM    9  N   UNL     1      -5.007  -1.386 -33.924  1.00  0.00    -0.277 N 
HETATM   10  C   UNL     1      -3.772  -0.789 -33.472  1.00  0.00     0.179 C 
HETATM   11  N   UNL     1      -5.018  -2.694 -34.238  1.00  0.00    -0.185 NA
HETATM   12  C   UNL     1      -6.280  -2.933 -34.594  1.00  0.00     0.141 A 
HETATM   13  C   UNL     1      -7.075  -1.780 -34.529  1.00  0.00     0.050 A 
ENDBRANCH   7   8
BRANCH   7  14
HETATM   14  C   UNL     1      -7.918   1.075 -34.193  1.00  0.00     0.198 C 
BRANCH  14  15
HETATM   15  O   UNL     1      -8.691   1.124 -32.989  1.00  0.00    -0.394 OA
HETATM   16  C   UNL     1      -9.880   0.353 -33.091  1.00  0.00     0.201 C 
ENDBRANCH  14  15
ENDBRANCH   7  14
ENDBRANCH   1   7
BRANCH   3  17
HETATM   17  C   UNL     1      -3.941   3.876 -32.344  1.00  0.00     0.036 A 
HETATM   18  C   UNL     1      -4.344   5.000 -31.632  1.00  0.00     0.030 A 
HETATM   19  C   UNL     1      -3.428   6.016 -31.322  1.00  0.00     0.010 A 
HETATM   20  C   UNL     1      -2.076   5.933 -31.696  1.00  0.00    -0.054 A 
HETATM   21  C   UNL     1      -1.695   4.811 -32.443  1.00  0.00     0.010 A 
HETATM   22  C   UNL     1      -2.608   3.793 -32.752  1.00  0.00     0.030 A 
BRANCH  20  23
HETATM   23  C   UNL     1      -1.116   7.074 -31.350  1.00  0.00     0.018 C 
HETATM   24  C   UNL     1      -1.511   7.853 -30.072  1.00  0.00     0.009 C 
HETATM   25  C   UNL     1      -1.237   7.059 -28.797  1.00  0.00     0.001 C 
HETATM   26  C   UNL     1       0.230   6.655 -28.699  1.00  0.00     0.000 C 
HETATM   27  C   UNL     1       0.702   5.919 -29.949  1.00  0.00     0.001 C 
HETATM   28  C   UNL     1       0.380   6.698 -31.227  1.00  0.00     0.009 C 
ENDBRANCH  20  23
ENDBRANCH   3  17
TORSDOF 6
ENDMDL
MODEL 3
REMARK VINA RESULT:      -7.2      4.582      9.571
REMARK  6 active torsions:
REMARK  status: ('A' for Active; 'I' for Inactive)
REMARK    1  A    between atoms: C_6  and  C_7 
REMARK    2  A    between atoms: C_7  and  N_8 
REMARK    3  A    between atoms: C_7  and  C_24 
REMARK       I    between atoms: N_8  and  C_9 
REMARK       I    between atoms: C_9  and  N_10 
REMARK    4  A    between atoms: N_10  and  C_11 
REMARK    5  A    between atoms: C_14  and  C_15 
REMARK    6  A    between atoms: C_24  and  O_25 
ROOT
HETATM    1  N   UNL     1      -1.260   6.027 -30.425  1.00  0.00    -0.331 N 
HETATM    2  C   UNL     1      -1.720   5.020 -31.215  1.00  0.00     0.321 C 
HETATM    3  N   UNL     1      -2.945   4.508 -30.893  1.00  0.00    -0.309 N 
HETATM    4  O   UNL     1      -1.000   4.667 -32.145  1.00  0.00    -0.247 OA
HETATM    5  H   UNL     1      -0.347   6.338 -30.726  1.00  0.00     0.165 HD
HETATM    6  H   UNL     1      -3.401   4.907 -30.092  1.00  0.00     0.170 HD
ENDROOT
BRANCH   1   7
HETATM    7  C   UNL     1      -1.811   6.643 -29.222  1.00  0.00     0.161 C 
BRANCH   7   8
HETATM    8  C   UNL     1      -0.672   7.121 -28.374  1.00  0.00     0.056 A 
HETATM    9  N   UNL     1      -0.683   7.089 -26.998  1.00  0.00    -0.277 N 
HETATM   10  C   UNL     1      -1.726   6.590 -26.132  1.00  0.00     0.179 C 
HETATM   11  N   UNL     1       0.430   7.602 -26.444  1.00  0.00    -0.185 NA
HETATM   12  C   UNL     1       1.183   7.949 -27.488  1.00  0.00     0.141 A 
HETATM   13  C   UNL     1       0.549   7.680 -28.710  1.00  0.00     0.050 A 
ENDBRANCH   7   8
BRANCH   7  14
HETATM   14  C   UNL     1      -2.757   7.810 -29.585  1.00  0.00     0.198 C 
BRANCH  14  15
HETATM   15  O   UNL     1      -4.086   7.301 -29.749  1.00  0.00    -0.394 OA
HETATM   16  C   UNL     1      -4.582   6.722 -28.550  1.00  0.00     0.201 C 
ENDBRANCH  14  15
ENDBRANCH   7  14
ENDBRANCH   1   7
BRANCH   3  17
HETATM   17  C   UNL     1      -3.649   3.476 -31.545  1.00  0.00     0.036 A 
HETATM   18  C   UNL     1      -3.468   2.120 -31.292  1.00  0.00     0.030 A 
HETATM   19  C   UNL     1      -4.219   1.158 -31.983  1.00  0.00     0.010 A 
HETATM   20  C   UNL     1      -5.188   1.518 -32.935  1.00  0.00    -0.054 A 
HETATM   21  C   UNL     1      -5.332   2.886 -33.204  1.00  0.00     0.010 A 
HETATM   22  C   UNL     1      -4.584   3.849 -32.513  1.00  0.00     0.030 A 
BRANCH  20  23
HETATM   23  C   UNL     1      -5.972   0.432 -33.676  1.00  0.00     0.018 C 
HETATM   24  C   UNL     1      -6.786  -0.494 -32.741  1.00  0.00     0.009 C 
HETATM   25  C   UNL     1      -8.024   0.195 -32.170  1.00  0.00     0.001 C 
HETATM   26  C   UNL     1      -8.935   0.707 -33.280  1.00  0.00     0.000 C 
HETATM   27  C   UNL     1      -8.185   1.595 -34.268  1.00  0.00     0.001 C 
HETATM   28  C   UNL     1      -6.920   0.917 -34.799  1.00  0.00     0.009 C 
ENDBRANCH  20  23
ENDBRANCH   3  17
TORSDOF 6
ENDMDL
MODEL 4
REMARK VINA RESULT:      -7.2      4.658      9.300
REMARK  6 active torsions:
REMARK  status: ('A' for Active; 'I' for Inactive)
REMARK    1  A    between atoms: C_6  and  C_7 
REMARK    2  A    between atoms: C_7  and  N_8 
REMARK    3  A    between atoms: C_7  and  C_24 
REMARK       I    between atoms: N_8  and  C_9 
REMARK       I    between atoms: C_9  and  N_10 
REMARK    4  A    between atoms: N_10  and  C_11 
REMARK    5  A    between atoms: C_14  and  C_15 
REMARK    6  A    between atoms: C_24  and  O_25 
ROOT
HETATM    1  N   UNL     1      -1.604   6.152 -31.274  1.00  0.00    -0.331 N 
HETATM    2  C   UNL     1      -2.167   4.984 -31.689  1.00  0.00     0.321 C 
HETATM    3  N   UNL     1      -3.344   4.633 -31.093  1.00  0.00    -0.309 N 
HETATM    4  O   UNL     1      -1.572   4.359 -32.562  1.00  0.00    -0.247 OA
HETATM    5  H   UNL     1      -0.734   6.329 -31.757  1.00  0.00     0.165 HD
HETATM    6  H   UNL     1      -3.692   5.256 -30.387  1.00  0.00     0.170 HD
ENDROOT
BRANCH   1   7
HETATM    7  C   UNL     1      -1.995   7.099 -30.234  1.00  0.00     0.161 C 
BRANCH   7   8
HETATM    8  C   UNL     1      -1.048   6.950 -29.083  1.00  0.00     0.056 A 
HETATM    9  N   UNL     1      -1.438   7.025 -27.764  1.00  0.00    -0.277 N 
HETATM   10  C   UNL     1      -2.771   7.224 -27.244  1.00  0.00     0.179 C 
HETATM   11  N   UNL     1      -0.416   6.899 -26.899  1.00  0.00    -0.185 NA
HETATM   12  C   UNL     1       0.649   6.715 -27.678  1.00  0.00     0.141 A 
HETATM   13  C   UNL     1       0.320   6.743 -29.041  1.00  0.00     0.050 A 
ENDBRANCH   7   8
BRANCH   7  14
HETATM   14  C   UNL     1      -1.983   8.546 -30.776  1.00  0.00     0.198 C 
BRANCH  14  15
HETATM   15  O   UNL     1      -3.126   8.740 -31.616  1.00  0.00    -0.394 OA
HETATM   16  C   UNL     1      -4.336   8.411 -30.947  1.00  0.00     0.201 C 
ENDBRANCH  14  15
ENDBRANCH   7  14
ENDBRANCH   1   7
BRANCH   3  17
HETATM   17  C   UNL     1      -4.131   3.490 -31.341  1.00  0.00     0.036 A 
HETATM   18  C   UNL     1      -3.658   2.183 -31.283  1.00  0.00     0.030 A 
HETATM   19  C   UNL     1      -4.514   1.102 -31.536  1.00  0.00     0.010 A 
HETATM   20  C   UNL     1      -5.874   1.289 -31.837  1.00  0.00    -0.054 A 
HETATM   21  C   UNL     1      -6.325   2.612 -31.928  1.00  0.00     0.010 A 
HETATM   22  C   UNL     1      -5.472   3.694 -31.672  1.00  0.00     0.030 A 
BRANCH  20  23
HETATM   23  C   UNL     1      -6.767   0.079 -32.123  1.00  0.00     0.018 C 
HETATM   24  C   UNL     1      -8.033   0.421 -32.945  1.00  0.00     0.009 C 
HETATM   25  C   UNL     1      -7.717   0.702 -34.413  1.00  0.00     0.001 C 
HETATM   26  C   UNL     1      -7.007  -0.480 -35.063  1.00  0.00     0.000 C 
HETATM   27  C   UNL     1      -5.769  -0.902 -34.278  1.00  0.00     0.001 C 
HETATM   28  C   UNL     1      -6.083  -1.135 -32.797  1.00  0.00     0.009 C 
ENDBRANCH  20  23
ENDBRANCH   3  17
TORSDOF 6
ENDMDL
MODEL 5
REMARK VINA RESULT:      -7.1      3.271      5.060
REMARK  6 active torsions:
REMARK  status: ('A' for Active; 'I' for Inactive)
REMARK    1  A    between atoms: C_6  and  C_7 
REMARK    2  A    between atoms: C_7  and  N_8 
REMARK    3  A    between atoms: C_7  and  C_24 
REMARK       I    between atoms: N_8  and  C_9 
REMARK       I    between atoms: C_9  and  N_10 
REMARK    4  A    between atoms: N_10  and  C_11 
REMARK    5  A    between atoms: C_14  and  C_15 
REMARK    6  A    between atoms: C_24  and  O_25 
ROOT
HETATM    1  N   UNL     1      -6.589  -0.411 -32.908  1.00  0.00    -0.331 N 
HETATM    2  C   UNL     1      -6.087   0.619 -32.174  1.00  0.00     0.321 C 
HETATM    3  N   UNL     1      -5.398   1.575 -32.864  1.00  0.00    -0.309 N 
HETATM    4  O   UNL     1      -6.303   0.599 -30.965  1.00  0.00    -0.247 OA
HETATM    5  H   UNL     1      -7.073  -1.076 -32.320  1.00  0.00     0.165 HD
HETATM    6  H   UNL     1      -5.306   1.435 -33.854  1.00  0.00     0.170 HD
ENDROOT
BRANCH   1   7
HETATM    7  C   UNL     1      -6.474  -0.736 -34.326  1.00  0.00     0.161 C 
BRANCH   7   8
HETATM    8  C   UNL     1      -6.177  -2.198 -34.452  1.00  0.00     0.056 A 
HETATM    9  N   UNL     1      -4.954  -2.754 -34.154  1.00  0.00    -0.277 N 
HETATM   10  C   UNL     1      -3.773  -2.083 -33.660  1.00  0.00     0.179 C 
HETATM   11  N   UNL     1      -4.902  -4.079 -34.374  1.00  0.00    -0.185 NA
HETATM   12  C   UNL     1      -6.127  -4.386 -34.800  1.00  0.00     0.141 A 
HETATM   13  C   UNL     1      -6.959  -3.260 -34.874  1.00  0.00     0.050 A 
ENDBRANCH   7   8
BRANCH   7  14
HETATM   14  C   UNL     1      -7.772  -0.369 -35.081  1.00  0.00     0.198 C 
BRANCH  14  15
HETATM   15  O   UNL     1      -8.089   1.004 -34.826  1.00  0.00    -0.394 OA
HETATM   16  C   UNL     1      -9.439   1.168 -34.411  1.00  0.00     0.201 C 
ENDBRANCH  14  15
ENDBRANCH   7  14
ENDBRANCH   1   7
BRANCH   3  17
HETATM   17  C   UNL     1      -4.788   2.738 -32.352  1.00  0.00     0.036 A 
HETATM   18  C   UNL     1      -5.448   3.944 -32.141  1.00  0.00     0.030 A 
HETATM   19  C   UNL     1      -4.764   5.051 -31.619  1.00  0.00     0.010 A 
HETATM   20  C   UNL     1      -3.404   4.986 -31.274  1.00  0.00    -0.054 A 
HETATM   21  C   UNL     1      -2.745   3.776 -31.526  1.00  0.00     0.010 A 
HETATM   22  C   UNL     1      -3.427   2.667 -32.045  1.00  0.00     0.030 A 
BRANCH  20  23
HETATM   23  C   UNL     1      -2.695   6.226 -30.723  1.00  0.00     0.018 C 
HETATM   24  C   UNL     1      -1.172   6.034 -30.524  1.00  0.00     0.009 C 
HETATM   25  C   UNL     1      -0.408   6.022 -31.847  1.00  0.00     0.001 C 
HETATM   26  C   UNL     1      -0.648   7.303 -32.637  1.00  0.00     0.000 C 
HETATM   27  C   UNL     1      -2.136   7.580 -32.833  1.00  0.00     0.001 C 
HETATM   28  C   UNL     1      -2.903   7.542 -31.509  1.00  0.00     0.009 C 
ENDBRANCH  20  23
ENDBRANCH   3  17
TORSDOF 6
ENDMDL
MODEL 6
REMARK VINA RESULT:      -7.1      2.068      3.408
REMARK  6 active torsions:
REMARK  status: ('A' for Active; 'I' for Inactive)
REMARK    1  A    between atoms: C_6  and  C_7 
REMARK    2  A    between atoms: C_7  and  N_8 
REMARK    3  A    between atoms: C_7  and  C_24 
REMARK       I    between atoms: N_8  and  C_9 
REMARK       I    between atoms: C_9  and  N_10 
REMARK    4  A    between atoms: N_10  and  C_11 
REMARK    5  A    between atoms: C_14  and  C_15 
REMARK    6  A    between atoms: C_24  and  O_25 
ROOT
HETATM    1  N   UNL     1      -7.097   2.984 -33.811  1.00  0.00    -0.331 N 
HETATM    2  C   UNL     1      -6.021   3.811 -33.706  1.00  0.00     0.321 C 
HETATM    3  N   UNL     1      -5.301   3.724 -32.549  1.00  0.00    -0.309 N 
HETATM    4  O   UNL     1      -5.793   4.553 -34.657  1.00  0.00    -0.247 OA
HETATM    5  H   UNL     1      -7.577   3.122 -34.690  1.00  0.00     0.165 HD
HETATM    6  H   UNL     1      -5.629   3.067 -31.865  1.00  0.00     0.170 HD
ENDROOT
BRANCH   1   7
HETATM    7  C   UNL     1      -7.686   2.037 -32.870  1.00  0.00     0.161 C 
BRANCH   7   8
HETATM    8  C   UNL     1      -9.139   1.887 -33.201  1.00  0.00     0.056 A 
HETATM    9  N   UNL     1     -10.119   2.723 -32.718  1.00  0.00    -0.277 N 
HETATM   10  C   UNL     1      -9.958   3.874 -31.859  1.00  0.00     0.179 C 
HETATM   11  N   UNL     1     -11.357   2.380 -33.116  1.00  0.00    -0.185 NA
HETATM   12  C   UNL     1     -11.165   1.314 -33.892  1.00  0.00     0.141 A 
HETATM   13  C   UNL     1      -9.811   0.958 -33.977  1.00  0.00     0.050 A 
ENDBRANCH   7   8
BRANCH   7  14
HETATM   14  C   UNL     1      -6.961   0.675 -32.934  1.00  0.00     0.198 C 
BRANCH  14  15
HETATM   15  O   UNL     1      -5.841   0.697 -32.041  1.00  0.00    -0.394 OA
HETATM   16  C   UNL     1      -5.328  -0.606 -31.803  1.00  0.00     0.201 C 
ENDBRANCH  14  15
ENDBRANCH   7  14
ENDBRANCH   1   7
BRANCH   3  17
HETATM   17  C   UNL     1      -4.149   4.454 -32.191  1.00  0.00     0.036 A 
HETATM   18  C   UNL     1      -4.164   5.633 -31.454  1.00  0.00     0.030 A 
HETATM   19  C   UNL     1      -2.968   6.291 -31.134  1.00  0.00     0.010 A 
HETATM   20  C   UNL     1      -1.717   5.784 -31.524  1.00  0.00    -0.054 A 
HETATM   21  C   UNL     1      -1.721   4.616 -32.297  1.00  0.00     0.010 A 
HETATM   22  C   UNL     1      -2.916   3.955 -32.615  1.00  0.00     0.030 A 
BRANCH  20  23
HETATM   23  C   UNL     1      -0.438   6.546 -31.167  1.00  0.00     0.018 C 
HETATM   24  C   UNL     1      -0.587   7.466 -29.931  1.00  0.00     0.009 C 
HETATM   25  C   UNL     1      -0.643   6.681 -28.622  1.00  0.00     0.001 C 
HETATM   26  C   UNL     1       0.595   5.809 -28.446  1.00  0.00     0.000 C 
HETATM   27  C   UNL     1       0.830   4.904 -29.652  1.00  0.00     0.001 C 
HETATM   28  C   UNL     1       0.836   5.691 -30.965  1.00  0.00     0.009 C 
ENDBRANCH  20  23
ENDBRANCH   3  17
TORSDOF 6
ENDMDL
MODEL 7
REMARK VINA RESULT:      -7.1      4.217      8.950
REMARK  6 active torsions:
REMARK  status: ('A' for Active; 'I' for Inactive)
REMARK    1  A    between atoms: C_6  and  C_7 
REMARK    2  A    between atoms: C_7  and  N_8 
REMARK    3  A    between atoms: C_7  and  C_24 
REMARK       I    between atoms: N_8  and  C_9 
REMARK       I    between atoms: C_9  and  N_10 
REMARK    4  A    between atoms: N_10  and  C_11 
REMARK    5  A    between atoms: C_14  and  C_15 
REMARK    6  A    between atoms: C_24  and  O_25 
ROOT
HETATM    1  N   UNL     1      -3.357   6.405 -29.909  1.00  0.00    -0.331 N 
HETATM    2  C   UNL     1      -4.327   5.491 -30.185  1.00  0.00     0.321 C 
HETATM    3  N   UNL     1      -3.905   4.294 -30.688  1.00  0.00    -0.309 N 
HETATM    4  O   UNL     1      -5.486   5.822 -29.953  1.00  0.00    -0.247 OA
HETATM    5  H   UNL     1      -3.755   7.263 -29.553  1.00  0.00     0.165 HD
HETATM    6  H   UNL     1      -2.916   4.188 -30.825  1.00  0.00     0.170 HD
ENDROOT
BRANCH   1   7
HETATM    7  C   UNL     1      -1.912   6.375 -30.113  1.00  0.00     0.161 C 
BRANCH   7   8
HETATM    8  C   UNL     1      -1.628   6.769 -31.530  1.00  0.00     0.056 A 
HETATM    9  N   UNL     1      -1.926   8.009 -32.049  1.00  0.00    -0.277 N 
HETATM   10  C   UNL     1      -2.516   9.137 -31.365  1.00  0.00     0.179 C 
HETATM   11  N   UNL     1      -1.617   8.130 -33.352  1.00  0.00    -0.185 NA
HETATM   12  C   UNL     1      -1.088   6.949 -33.672  1.00  0.00     0.141 A 
HETATM   13  C   UNL     1      -1.074   6.064 -32.585  1.00  0.00     0.050 A 
ENDBRANCH   7   8
BRANCH   7  14
HETATM   14  C   UNL     1      -1.197   7.323 -29.123  1.00  0.00     0.198 C 
BRANCH  14  15
HETATM   15  O   UNL     1       0.195   7.382 -29.454  1.00  0.00    -0.394 OA
HETATM   16  C   UNL     1       0.955   8.014 -28.433  1.00  0.00     0.201 C 
ENDBRANCH  14  15
ENDBRANCH   7  14
ENDBRANCH   1   7
BRANCH   3  17
HETATM   17  C   UNL     1      -4.694   3.182 -31.048  1.00  0.00     0.036 A 
HETATM   18  C   UNL     1      -5.661   2.607 -30.231  1.00  0.00     0.030 A 
HETATM   19  C   UNL     1      -6.408   1.506 -30.674  1.00  0.00     0.010 A 
HETATM   20  C   UNL     1      -6.227   0.955 -31.953  1.00  0.00    -0.054 A 
HETATM   21  C   UNL     1      -5.224   1.523 -32.750  1.00  0.00     0.010 A 
HETATM   22  C   UNL     1      -4.478   2.625 -32.311  1.00  0.00     0.030 A 
BRANCH  20  23
HETATM   23  C   UNL     1      -7.054  -0.258 -32.388  1.00  0.00     0.018 C 
HETATM   24  C   UNL     1      -8.498   0.095 -32.817  1.00  0.00     0.009 C 
HETATM   25  C   UNL     1      -8.549   0.784 -34.180  1.00  0.00     0.001 C 
HETATM   26  C   UNL     1      -7.905  -0.077 -35.261  1.00  0.00     0.000 C 
HETATM   27  C   UNL     1      -6.489  -0.502 -34.882  1.00  0.00     0.001 C 
HETATM   28  C   UNL     1      -6.438  -1.147 -33.495  1.00  0.00     0.009 C 
ENDBRANCH  20  23
ENDBRANCH   3  17
TORSDOF 6
ENDMDL
MODEL 8
REMARK VINA RESULT:      -7.0      2.841      4.169
REMARK  6 active torsions:
REMARK  status: ('A' for Active; 'I' for Inactive)
REMARK    1  A    between atoms: C_6  and  C_7 
REMARK    2  A    between atoms: C_7  and  N_8 
REMARK    3  A    between atoms: C_7  and  C_24 
REMARK       I    between atoms: N_8  and  C_9 
REMARK       I    between atoms: C_9  and  N_10 
REMARK    4  A    between atoms: N_10  and  C_11 
REMARK    5  A    between atoms: C_14  and  C_15 
REMARK    6  A    between atoms: C_24  and  O_25 
ROOT
HETATM    1  N   UNL     1      -7.032   1.699 -31.158  1.00  0.00    -0.331 N 
HETATM    2  C   UNL     1      -6.013   2.566 -30.910  1.00  0.00     0.321 C 
HETATM    3  N   UNL     1      -5.381   3.086 -32.003  1.00  0.00    -0.309 N 
HETATM    4  O   UNL     1      -5.758   2.804 -29.733  1.00  0.00    -0.247 OA
HETATM    5  H   UNL     1      -7.435   1.355 -30.297  1.00  0.00     0.165 HD
HETATM    6  H   UNL     1      -5.710   2.778 -32.900  1.00  0.00     0.170 HD
ENDROOT
BRANCH   1   7
HETATM    7  C   UNL     1      -7.556   1.151 -32.405  1.00  0.00     0.161 C 
BRANCH   7   8
HETATM    8  C   UNL     1      -6.624   0.077 -32.875  1.00  0.00     0.056 A 
HETATM    9  N   UNL     1      -6.471  -0.271 -34.198  1.00  0.00    -0.277 N 
HETATM   10  C   UNL     1      -7.121   0.313 -35.349  1.00  0.00     0.179 C 
HETATM   11  N   UNL     1      -5.608  -1.285 -34.386  1.00  0.00    -0.185 NA
HETATM   12  C   UNL     1      -5.179  -1.579 -33.159  1.00  0.00     0.141 A 
HETATM   13  C   UNL     1      -5.779  -0.772 -32.181  1.00  0.00     0.050 A 
ENDBRANCH   7   8
BRANCH   7  14
HETATM   14  C   UNL     1      -8.984   0.595 -32.204  1.00  0.00     0.198 C 
BRANCH  14  15
HETATM   15  O   UNL     1      -9.861   1.201 -33.160  1.00  0.00    -0.394 OA
HETATM   16  C   UNL     1     -10.330   2.468 -32.719  1.00  0.00     0.201 C 
ENDBRANCH  14  15
ENDBRANCH   7  14
ENDBRANCH   1   7
BRANCH   3  17
HETATM   17  C   UNL     1      -4.309   4.002 -32.027  1.00  0.00     0.036 A 
HETATM   18  C   UNL     1      -2.967   3.640 -32.027  1.00  0.00     0.030 A 
HETATM   19  C   UNL     1      -1.963   4.619 -32.061  1.00  0.00     0.010 A 
HETATM   20  C   UNL     1      -2.267   5.990 -32.114  1.00  0.00    -0.054 A 
HETATM   21  C   UNL     1      -3.624   6.338 -32.077  1.00  0.00     0.010 A 
HETATM   22  C   UNL     1      -4.628   5.362 -32.046  1.00  0.00     0.030 A 
BRANCH  20  23
HETATM   23  C   UNL     1      -1.138   7.024 -32.132  1.00  0.00     0.018 C 
HETATM   24  C   UNL     1      -1.496   8.348 -31.415  1.00  0.00     0.009 C 
HETATM   25  C   UNL     1      -1.515   8.200 -29.895  1.00  0.00     0.001 C 
HETATM   26  C   UNL     1      -0.176   7.697 -29.369  1.00  0.00     0.000 C 
HETATM   27  C   UNL     1       0.263   6.412 -30.067  1.00  0.00     0.001 C 
HETATM   28  C   UNL     1       0.233   6.552 -31.592  1.00  0.00     0.009 C 
ENDBRANCH  20  23
ENDBRANCH   3  17
TORSDOF 6
ENDMDL
MODEL 9
REMARK VINA RESULT:      -6.7      4.334      6.854
REMARK  6 active torsions:
REMARK  status: ('A' for Active; 'I' for Inactive)
REMARK    1  A    between atoms: C_6  and  C_7 
REMARK    2  A    between atoms: C_7  and  N_8 
REMARK    3  A    between atoms: C_7  and  C_24 
REMARK       I    between atoms: N_8  and  C_9 
REMARK       I    between atoms: C_9  and  N_10 
REMARK    4  A    between atoms: N_10  and  C_11 
REMARK    5  A    between atoms: C_14  and  C_15 
REMARK    6  A    between atoms: C_24  and  O_25 
ROOT
HETATM    1  N   UNL     1      -6.629   2.624 -29.361  1.00  0.00    -0.331 N 
HETATM    2  C   UNL     1      -6.295   1.493 -30.041  1.00  0.00     0.321 C 
HETATM    3  N   UNL     1      -6.259   1.594 -31.402  1.00  0.00    -0.309 N 
HETATM    4  O   UNL     1      -6.053   0.492 -29.373  1.00  0.00    -0.247 OA
HETATM    5  H   UNL     1      -6.642   2.458 -28.364  1.00  0.00     0.165 HD
HETATM    6  H   UNL     1      -6.494   2.489 -31.792  1.00  0.00     0.170 HD
ENDROOT
BRANCH   1   7
HETATM    7  C   UNL     1      -7.031   3.949 -29.822  1.00  0.00     0.161 C 
BRANCH   7   8
HETATM    8  C   UNL     1      -8.306   3.811 -30.596  1.00  0.00     0.056 A 
HETATM    9  N   UNL     1      -8.477   4.297 -31.872  1.00  0.00    -0.277 N 
HETATM   10  C   UNL     1      -7.508   4.979 -32.698  1.00  0.00     0.179 C 
HETATM   11  N   UNL     1      -9.714   4.092 -32.359  1.00  0.00    -0.185 NA
HETATM   12  C   UNL     1     -10.344   3.439 -31.383  1.00  0.00     0.141 A 
HETATM   13  C   UNL     1      -9.523   3.242 -30.263  1.00  0.00     0.050 A 
ENDBRANCH   7   8
BRANCH   7  14
HETATM   14  C   UNL     1      -7.210   4.915 -28.629  1.00  0.00     0.198 C 
BRANCH  14  15
HETATM   15  O   UNL     1      -7.521   6.221 -29.128  1.00  0.00    -0.394 OA
HETATM   16  C   UNL     1      -8.717   6.734 -28.556  1.00  0.00     0.201 C 
ENDBRANCH  14  15
ENDBRANCH   7  14
ENDBRANCH   1   7
BRANCH   3  17
HETATM   17  C   UNL     1      -5.939   0.586 -32.335  1.00  0.00     0.036 A 
HETATM   18  C   UNL     1      -4.645   0.175 -32.634  1.00  0.00     0.030 A 
HETATM   19  C   UNL     1      -4.418  -0.843 -33.571  1.00  0.00     0.010 A 
HETATM   20  C   UNL     1      -5.475  -1.497 -34.226  1.00  0.00    -0.054 A 
HETATM   21  C   UNL     1      -6.771  -1.046 -33.940  1.00  0.00     0.010 A 
HETATM   22  C   UNL     1      -7.000  -0.030 -33.002  1.00  0.00     0.030 A 
BRANCH  20  23
HETATM   23  C   UNL     1      -5.178  -2.592 -35.254  1.00  0.00     0.018 C 
HETATM   24  C   UNL     1      -3.812  -3.288 -35.043  1.00  0.00     0.009 C 
HETATM   25  C   UNL     1      -3.819  -4.233 -33.843  1.00  0.00     0.001 C 
HETATM   26  C   UNL     1      -4.904  -5.296 -33.979  1.00  0.00     0.000 C 
HETATM   27  C   UNL     1      -6.276  -4.679 -34.235  1.00  0.00     0.001 C 
HETATM   28  C   UNL     1      -6.251  -3.696 -35.409  1.00  0.00     0.009 C 
ENDBRANCH  20  23
ENDBRANCH   3  17
TORSDOF 6
ENDMDL
MODEL 10
REMARK VINA RESULT:      -6.5      4.754      8.509
REMARK  6 active torsions:
REMARK  status: ('A' for Active; 'I' for Inactive)
REMARK    1  A    between atoms: C_6  and  C_7 
REMARK    2  A    between atoms: C_7  and  N_8 
REMARK    3  A    between atoms: C_7  and  C_24 
REMARK       I    between atoms: N_8  and  C_9 
REMARK       I    between atoms: C_9  and  N_10 
REMARK    4  A    between atoms: N_10  and  C_11 
REMARK    5  A    between atoms: C_14  and  C_15 
REMARK    6  A    between atoms: C_24  and  O_25 
ROOT
HETATM    1  N   UNL     1      -5.981  -0.568 -34.403  1.00  0.00    -0.331 N 
HETATM    2  C   UNL     1      -7.074   0.165 -34.751  1.00  0.00     0.321 C 
HETATM    3  N   UNL     1      -7.984   0.402 -33.760  1.00  0.00    -0.309 N 
HETATM    4  O   UNL     1      -7.140   0.548 -35.915  1.00  0.00    -0.247 OA
HETATM    5  H   UNL     1      -5.368  -0.705 -35.194  1.00  0.00     0.165 HD
HETATM    6  H   UNL     1      -7.780   0.007 -32.860  1.00  0.00     0.170 HD
ENDROOT
BRANCH   1   7
HETATM    7  C   UNL     1      -5.613  -1.224 -33.152  1.00  0.00     0.161 C 
BRANCH   7   8
HETATM    8  C   UNL     1      -4.914  -2.507 -33.482  1.00  0.00     0.056 A 
HETATM    9  N   UNL     1      -5.494  -3.524 -34.206  1.00  0.00    -0.277 N 
HETATM   10  C   UNL     1      -6.816  -3.555 -34.790  1.00  0.00     0.179 C 
HETATM   11  N   UNL     1      -4.697  -4.597 -34.352  1.00  0.00    -0.185 NA
HETATM   12  C   UNL     1      -3.571  -4.252 -33.728  1.00  0.00     0.141 A 
HETATM   13  C   UNL     1      -3.649  -2.970 -33.165  1.00  0.00     0.050 A 
ENDBRANCH   7   8
BRANCH   7  14
HETATM   14  C   UNL     1      -4.710  -0.308 -32.296  1.00  0.00     0.198 C 
BRANCH  14  15
HETATM   15  O   UNL     1      -5.535   0.575 -31.527  1.00  0.00    -0.394 OA
HETATM   16  C   UNL     1      -6.423  -0.138 -30.676  1.00  0.00     0.201 C 
ENDBRANCH  14  15
ENDBRANCH   7  14
ENDBRANCH   1   7
BRANCH   3  17
HETATM   17  C   UNL     1      -9.187   1.131 -33.850  1.00  0.00     0.036 A 
HETATM   18  C   UNL     1      -9.271   2.463 -34.241  1.00  0.00     0.030 A 
HETATM   19  C   UNL     1     -10.513   3.110 -34.311  1.00  0.00     0.010 A 
HETATM   20  C   UNL     1     -11.713   2.444 -34.010  1.00  0.00    -0.054 A 
HETATM   21  C   UNL     1     -11.608   1.114 -33.582  1.00  0.00     0.010 A 
HETATM   22  C   UNL     1     -10.368   0.465 -33.515  1.00  0.00     0.030 A 
BRANCH  20  23
HETATM   23  C   UNL     1     -13.045   3.196 -34.084  1.00  0.00     0.018 C 
HETATM   24  C   UNL     1     -14.019   2.849 -32.932  1.00  0.00     0.009 C 
HETATM   25  C   UNL     1     -13.593   3.465 -31.601  1.00  0.00     0.001 C 
HETATM   26  C   UNL     1     -13.469   4.981 -31.707  1.00  0.00     0.000 C 
HETATM   27  C   UNL     1     -12.554   5.398 -32.854  1.00  0.00     0.001 C 
HETATM   28  C   UNL     1     -12.957   4.738 -34.176  1.00  0.00     0.009 C 
ENDBRANCH  20  23
ENDBRANCH   3  17
TORSDOF 6
ENDMDL
