MODEL 1
REMARK VINA RESULT:      -8.5      0.000      0.000
REMARK  3 active torsions:
REMARK  status: ('A' for Active; 'I' for Inactive)
REMARK    1  A    between atoms: C_5  and  N_6 
REMARK       I    between atoms: N_6  and  C_7 
REMARK    2  A    between atoms: C_7  and  C_8 
REMARK    3  A    between atoms: C_9  and  C_10 
ROOT
HETATM    1  C   UNL     1      -8.365   1.503 -33.445  1.00  0.00     0.062 A 
HETATM    2  C   UNL     1      -7.602   2.796 -33.730  1.00  0.00     0.199 A 
HETATM    3  N   UNL     1      -8.514   3.918 -33.933  1.00  0.00    -0.092 N 
HETATM    4  C   UNL     1      -9.876   3.828 -33.905  1.00  0.00     0.735 A 
HETATM    5  N   UNL     1     -10.449   2.643 -33.619  1.00  0.00    -0.191 N 
HETATM    6  N   UNL     1      -8.141   5.133 -34.367  1.00  0.00     0.012 NA
HETATM    7  N   UNL     1      -9.281   5.802 -34.503  1.00  0.00     0.033 NA
HETATM    8  N   UNL     1     -10.370   4.999 -34.222  1.00  0.00     0.030 NA
HETATM    9  C   UNL     1      -9.721   1.479 -33.391  1.00  0.00     0.037 A 
HETATM   10  C   UNL     1     -10.544   0.242 -33.116  1.00  0.00     0.070 C 
HETATM   11  H   UNL     1     -11.463   2.578 -33.589  1.00  0.00     0.184 HD
ENDROOT
BRANCH   1  12
HETATM   12  C   UNL     1      -7.575   0.284 -33.099  1.00  0.00     0.256 C 
HETATM   13  N   UNL     1      -7.005  -0.342 -34.185  1.00  0.00    -0.323 N 
HETATM   14  H   UNL     1      -7.170   0.035 -35.108  1.00  0.00     0.169 HD
HETATM   15  O   UNL     1      -7.468  -0.039 -31.922  1.00  0.00    -0.267 OA
BRANCH  13  16
HETATM   16  C   UNL     1      -6.170  -1.483 -34.163  1.00  0.00     0.035 A 
HETATM   17  C   UNL     1      -6.518  -2.718 -34.708  1.00  0.00     0.030 A 
HETATM   18  C   UNL     1      -5.631  -3.799 -34.646  1.00  0.00     0.009 A 
HETATM   19  C   UNL     1      -4.379  -3.663 -34.039  1.00  0.00    -0.062 A 
HETATM   20  C   UNL     1      -3.455  -4.838 -33.936  1.00  0.00     0.048 C 
HETATM   21  C   UNL     1      -4.036  -2.430 -33.477  1.00  0.00     0.009 A 
HETATM   22  C   UNL     1      -4.918  -1.348 -33.550  1.00  0.00     0.030 A 
ENDBRANCH  13  16
ENDBRANCH   1  12
BRANCH   2  23
HETATM   23  C   UNL     1      -6.556   3.155 -32.693  1.00  0.00    -0.011 A 
HETATM   24  C   UNL     1      -6.952   3.530 -31.409  1.00  0.00     0.125 A 
HETATM   25  N   UNL     1      -6.103   3.888 -30.423  1.00  0.00    -0.272 NA
HETATM   26  C   UNL     1      -4.785   3.854 -30.713  1.00  0.00     0.116 A 
HETATM   27  C   UNL     1      -4.281   3.473 -31.943  1.00  0.00     0.020 A 
HETATM   28  C   UNL     1      -5.179   3.114 -32.946  1.00  0.00     0.012 A 
ENDBRANCH   2  23
TORSDOF 3
ENDMDL
MODEL 2
REMARK VINA RESULT:      -8.4      1.537      4.293
REMARK  3 active torsions:
REMARK  status: ('A' for Active; 'I' for Inactive)
REMARK    1  A    between atoms: C_5  and  N_6 
REMARK       I    between atoms: N_6  and  C_7 
REMARK    2  A    between atoms: C_7  and  C_8 
REMARK    3  A    between atoms: C_9  and  C_10 
ROOT
HETATM    1  C   UNL     1      -5.762   1.979 -30.940  1.00  0.00     0.062 A 
HETATM    2  C   UNL     1      -7.001   2.829 -30.657  1.00  0.00     0.199 A 
HETATM    3  N   UNL     1      -6.640   4.212 -30.355  1.00  0.00    -0.092 N 
HETATM    4  C   UNL     1      -5.362   4.687 -30.298  1.00  0.00     0.735 A 
HETATM    5  N   UNL     1      -4.341   3.858 -30.590  1.00  0.00    -0.191 N 
HETATM    6  N   UNL     1      -7.498   5.140 -29.901  1.00  0.00     0.012 NA
HETATM    7  N   UNL     1      -6.740   6.206 -29.668  1.00  0.00     0.033 NA
HETATM    8  N   UNL     1      -5.406   5.936 -29.907  1.00  0.00     0.030 NA
HETATM    9  C   UNL     1      -4.515   2.515 -30.907  1.00  0.00     0.037 A 
HETATM   10  C   UNL     1      -3.246   1.740 -31.173  1.00  0.00     0.070 C 
HETATM   11  H   UNL     1      -3.389   4.215 -30.557  1.00  0.00     0.184 HD
ENDROOT
BRANCH   1  12
HETATM   12  C   UNL     1      -5.965   0.568 -31.381  1.00  0.00     0.256 C 
HETATM   13  N   UNL     1      -5.687   0.351 -32.713  1.00  0.00    -0.323 N 
HETATM   14  H   UNL     1      -5.398   1.133 -33.284  1.00  0.00     0.169 HD
HETATM   15  O   UNL     1      -6.317  -0.267 -30.557  1.00  0.00    -0.267 OA
BRANCH  13  16
HETATM   16  C   UNL     1      -5.741  -0.883 -33.399  1.00  0.00     0.035 A 
HETATM   17  C   UNL     1      -4.624  -1.660 -33.702  1.00  0.00     0.030 A 
HETATM   18  C   UNL     1      -4.764  -2.874 -34.385  1.00  0.00     0.009 A 
HETATM   19  C   UNL     1      -6.027  -3.333 -34.775  1.00  0.00    -0.062 A 
HETATM   20  C   UNL     1      -6.163  -4.611 -35.546  1.00  0.00     0.048 C 
HETATM   21  C   UNL     1      -7.146  -2.547 -34.487  1.00  0.00     0.009 A 
HETATM   22  C   UNL     1      -7.005  -1.340 -33.795  1.00  0.00     0.030 A 
ENDBRANCH  13  16
ENDBRANCH   1  12
BRANCH   2  23
HETATM   23  C   UNL     1      -8.056   2.792 -31.746  1.00  0.00    -0.011 A 
HETATM   24  C   UNL     1      -7.837   3.467 -32.947  1.00  0.00     0.125 A 
HETATM   25  N   UNL     1      -8.719   3.514 -33.967  1.00  0.00    -0.272 NA
HETATM   26  C   UNL     1      -9.875   2.837 -33.803  1.00  0.00     0.116 A 
HETATM   27  C   UNL     1     -10.184   2.112 -32.666  1.00  0.00     0.020 A 
HETATM   28  C   UNL     1      -9.259   2.086 -31.625  1.00  0.00     0.012 A 
ENDBRANCH   2  23
TORSDOF 3
ENDMDL
MODEL 3
REMARK VINA RESULT:      -7.9      2.233      5.419
REMARK  3 active torsions:
REMARK  status: ('A' for Active; 'I' for Inactive)
REMARK    1  A    between atoms: C_5  and  N_6 
REMARK       I    between atoms: N_6  and  C_7 
REMARK    2  A    between atoms: C_7  and  C_8 
REMARK    3  A    between atoms: C_9  and  C_10 
ROOT
HETATM    1  C   UNL     1      -9.046   3.327 -33.405  1.00  0.00     0.062 A 
HETATM    2  C   UNL     1      -9.472   1.893 -33.091  1.00  0.00     0.199 A 
HETATM    3  N   UNL     1     -10.757   1.573 -33.708  1.00  0.00    -0.092 N 
HETATM    4  C   UNL     1     -11.503   2.445 -34.446  1.00  0.00     0.735 A 
HETATM    5  N   UNL     1     -11.023   3.681 -34.686  1.00  0.00    -0.191 N 
HETATM    6  N   UNL     1     -11.459   0.454 -33.466  1.00  0.00     0.012 NA
HETATM    7  N   UNL     1     -12.589   0.618 -34.146  1.00  0.00     0.033 NA
HETATM    8  N   UNL     1     -12.632   1.857 -34.757  1.00  0.00     0.030 NA
HETATM    9  C   UNL     1      -9.812   4.139 -34.178  1.00  0.00     0.037 A 
HETATM   10  C   UNL     1      -9.457   5.565 -34.531  1.00  0.00     0.070 C 
HETATM   11  H   UNL     1     -11.576   4.327 -35.243  1.00  0.00     0.184 HD
ENDROOT
BRANCH   1  12
HETATM   12  C   UNL     1      -7.698   3.775 -32.946  1.00  0.00     0.256 C 
HETATM   13  N   UNL     1      -6.692   3.557 -33.862  1.00  0.00    -0.323 N 
HETATM   14  H   UNL     1      -6.919   3.106 -34.737  1.00  0.00     0.169 HD
HETATM   15  O   UNL     1      -7.593   4.311 -31.850  1.00  0.00    -0.267 OA
BRANCH  13  16
HETATM   16  C   UNL     1      -5.332   3.916 -33.727  1.00  0.00     0.035 A 
HETATM   17  C   UNL     1      -4.447   3.311 -32.834  1.00  0.00     0.030 A 
HETATM   18  C   UNL     1      -3.112   3.726 -32.763  1.00  0.00     0.009 A 
HETATM   19  C   UNL     1      -2.638   4.752 -33.587  1.00  0.00    -0.062 A 
HETATM   20  C   UNL     1      -1.219   5.221 -33.471  1.00  0.00     0.048 C 
HETATM   21  C   UNL     1      -3.527   5.370 -34.470  1.00  0.00     0.009 A 
HETATM   22  C   UNL     1      -4.858   4.948 -34.547  1.00  0.00     0.030 A 
ENDBRANCH  13  16
ENDBRANCH   1  12
BRANCH   2  23
HETATM   23  C   UNL     1      -8.446   0.835 -33.446  1.00  0.00    -0.011 A 
HETATM   24  C   UNL     1      -7.710   0.216 -32.435  1.00  0.00     0.125 A 
HETATM   25  N   UNL     1      -6.761  -0.720 -32.646  1.00  0.00    -0.272 NA
HETATM   26  C   UNL     1      -6.539  -1.083 -33.927  1.00  0.00     0.116 A 
HETATM   27  C   UNL     1      -7.229  -0.554 -35.004  1.00  0.00     0.020 A 
HETATM   28  C   UNL     1      -8.199   0.415 -34.758  1.00  0.00     0.012 A 
ENDBRANCH   2  23
TORSDOF 3
ENDMDL
MODEL 4
REMARK VINA RESULT:      -7.8     15.890     19.157
REMARK  3 active torsions:
REMARK  status: ('A' for Active; 'I' for Inactive)
REMARK    1  A    between atoms: C_5  and  N_6 
REMARK       I    between atoms: N_6  and  C_7 
REMARK    2  A    between atoms: C_7  and  C_8 
REMARK    3  A    between atoms: C_9  and  C_10 
ROOT
HETATM    1  C   UNL     1      -1.801 -14.761 -38.656  1.00  0.00     0.062 A 
HETATM    2  C   UNL     1      -0.936 -14.913 -39.907  1.00  0.00     0.199 A 
HETATM    3  N   UNL     1       0.475 -15.069 -39.563  1.00  0.00    -0.092 N 
HETATM    4  C   UNL     1       0.971 -15.052 -38.291  1.00  0.00     0.735 A 
HETATM    5  N   UNL     1       0.117 -14.938 -37.255  1.00  0.00    -0.191 N 
HETATM    6  N   UNL     1       1.481 -15.050 -40.451  1.00  0.00     0.012 NA
HETATM    7  N   UNL     1       2.581 -15.123 -39.709  1.00  0.00     0.033 NA
HETATM    8  N   UNL     1       2.277 -15.120 -38.361  1.00  0.00     0.030 NA
HETATM    9  C   UNL     1      -1.257 -14.790 -37.412  1.00  0.00     0.037 A 
HETATM   10  C   UNL     1      -2.046 -14.646 -36.131  1.00  0.00     0.070 C 
HETATM   11  H   UNL     1       0.487 -14.935 -36.308  1.00  0.00     0.184 HD
ENDROOT
BRANCH   1  12
HETATM   12  C   UNL     1      -3.283 -14.709 -38.829  1.00  0.00     0.256 C 
HETATM   13  N   UNL     1      -3.757 -13.479 -39.232  1.00  0.00    -0.323 N 
HETATM   14  H   UNL     1      -3.101 -12.721 -39.355  1.00  0.00     0.169 HD
HETATM   15  O   UNL     1      -3.939 -15.726 -38.642  1.00  0.00    -0.267 OA
BRANCH  13  16
HETATM   16  C   UNL     1      -5.099 -13.143 -39.520  1.00  0.00     0.035 A 
HETATM   17  C   UNL     1      -5.631 -13.080 -40.808  1.00  0.00     0.030 A 
HETATM   18  C   UNL     1      -6.974 -12.740 -41.008  1.00  0.00     0.009 A 
HETATM   19  C   UNL     1      -7.809 -12.458 -39.923  1.00  0.00    -0.062 A 
HETATM   20  C   UNL     1      -9.233 -12.049 -40.149  1.00  0.00     0.048 C 
HETATM   21  C   UNL     1      -7.274 -12.504 -38.633  1.00  0.00     0.009 A 
HETATM   22  C   UNL     1      -5.935 -12.855 -38.433  1.00  0.00     0.030 A 
ENDBRANCH  13  16
ENDBRANCH   1  12
BRANCH   2  23
HETATM   23  C   UNL     1      -1.370 -16.022 -40.845  1.00  0.00    -0.011 A 
HETATM   24  C   UNL     1      -1.149 -17.353 -40.494  1.00  0.00     0.125 A 
HETATM   25  N   UNL     1      -1.477 -18.411 -41.267  1.00  0.00    -0.272 NA
HETATM   26  C   UNL     1      -2.078 -18.140 -42.444  1.00  0.00     0.116 A 
HETATM   27  C   UNL     1      -2.369 -16.860 -42.880  1.00  0.00     0.020 A 
HETATM   28  C   UNL     1      -2.013 -15.786 -42.066  1.00  0.00     0.012 A 
ENDBRANCH   2  23
TORSDOF 3
ENDMDL
MODEL 5
REMARK VINA RESULT:      -7.8      2.432      6.171
REMARK  3 active torsions:
REMARK  status: ('A' for Active; 'I' for Inactive)
REMARK    1  A    between atoms: C_5  and  N_6 
REMARK       I    between atoms: N_6  and  C_7 
REMARK    2  A    between atoms: C_7  and  C_8 
REMARK    3  A    between atoms: C_9  and  C_10 
ROOT
HETATM    1  C   UNL     1      -6.819   0.107 -33.411  1.00  0.00     0.062 A 
HETATM    2  C   UNL     1      -6.292   1.127 -32.403  1.00  0.00     0.199 A 
HETATM    3  N   UNL     1      -4.899   0.859 -32.054  1.00  0.00    -0.092 N 
HETATM    4  C   UNL     1      -4.164  -0.186 -32.537  1.00  0.00     0.735 A 
HETATM    5  N   UNL     1      -4.719  -1.014 -33.442  1.00  0.00    -0.191 N 
HETATM    6  N   UNL     1      -4.228   1.480 -31.071  1.00  0.00     0.012 NA
HETATM    7  N   UNL     1      -3.049   0.867 -31.035  1.00  0.00     0.033 NA
HETATM    8  N   UNL     1      -2.998  -0.176 -31.940  1.00  0.00     0.030 NA
HETATM    9  C   UNL     1      -6.031  -0.891 -33.887  1.00  0.00     0.037 A 
HETATM   10  C   UNL     1      -6.481  -1.935 -34.882  1.00  0.00     0.070 C 
HETATM   11  H   UNL     1      -4.167  -1.787 -33.808  1.00  0.00     0.184 HD
ENDROOT
BRANCH   1  12
HETATM   12  C   UNL     1      -8.193   0.309 -33.961  1.00  0.00     0.256 C 
HETATM   13  N   UNL     1      -9.180   0.354 -33.001  1.00  0.00    -0.323 N 
HETATM   14  H   UNL     1      -8.924   0.229 -32.032  1.00  0.00     0.169 HD
HETATM   15  O   UNL     1      -8.333   0.449 -35.170  1.00  0.00    -0.267 OA
BRANCH  13  16
HETATM   16  C   UNL     1     -10.559   0.580 -33.215  1.00  0.00     0.035 A 
HETATM   17  C   UNL     1     -11.127   1.840 -33.397  1.00  0.00     0.030 A 
HETATM   18  C   UNL     1     -12.504   1.977 -33.605  1.00  0.00     0.009 A 
HETATM   19  C   UNL     1     -13.337   0.855 -33.637  1.00  0.00    -0.062 A 
HETATM   20  C   UNL     1     -14.817   1.015 -33.815  1.00  0.00     0.048 C 
HETATM   21  C   UNL     1     -12.772  -0.408 -33.439  1.00  0.00     0.009 A 
HETATM   22  C   UNL     1     -11.394  -0.544 -33.242  1.00  0.00     0.030 A 
ENDBRANCH  13  16
ENDBRANCH   1  12
BRANCH   2  23
HETATM   23  C   UNL     1      -6.453   2.575 -32.824  1.00  0.00    -0.011 A 
HETATM   24  C   UNL     1      -5.780   3.049 -33.950  1.00  0.00     0.125 A 
HETATM   25  N   UNL     1      -5.840   4.322 -34.395  1.00  0.00    -0.272 NA
HETATM   26  C   UNL     1      -6.627   5.172 -33.702  1.00  0.00     0.116 A 
HETATM   27  C   UNL     1      -7.359   4.803 -32.588  1.00  0.00     0.020 A 
HETATM   28  C   UNL     1      -7.275   3.484 -32.146  1.00  0.00     0.012 A 
ENDBRANCH   2  23
TORSDOF 3
ENDMDL
MODEL 6
REMARK VINA RESULT:      -7.6      2.617      7.166
REMARK  3 active torsions:
REMARK  status: ('A' for Active; 'I' for Inactive)
REMARK    1  A    between atoms: C_5  and  N_6 
REMARK       I    between atoms: N_6  and  C_7 
REMARK    2  A    between atoms: C_7  and  C_8 
REMARK    3  A    between atoms: C_9  and  C_10 
ROOT
HETATM    1  C   UNL     1      -4.376   0.467 -32.640  1.00  0.00     0.062 A 
HETATM    2  C   UNL     1      -5.520   0.242 -33.628  1.00  0.00     0.199 A 
HETATM    3  N   UNL     1      -5.635  -1.166 -33.997  1.00  0.00    -0.092 N 
HETATM    4  C   UNL     1      -4.812  -2.158 -33.546  1.00  0.00     0.735 A 
HETATM    5  N   UNL     1      -3.848  -1.855 -32.655  1.00  0.00    -0.191 N 
HETATM    6  N   UNL     1      -6.431  -1.635 -34.971  1.00  0.00     0.012 NA
HETATM    7  N   UNL     1      -6.152  -2.933 -35.033  1.00  0.00     0.033 NA
HETATM    8  N   UNL     1      -5.141  -3.271 -34.153  1.00  0.00     0.030 NA
HETATM    9  C   UNL     1      -3.612  -0.564 -32.195  1.00  0.00     0.037 A 
HETATM   10  C   UNL     1      -2.466  -0.420 -31.221  1.00  0.00     0.070 C 
HETATM   11  H   UNL     1      -3.241  -2.596 -32.312  1.00  0.00     0.184 HD
ENDROOT
BRANCH   1  12
HETATM   12  C   UNL     1      -4.198   1.836 -32.072  1.00  0.00     0.256 C 
HETATM   13  N   UNL     1      -3.361   2.644 -32.810  1.00  0.00    -0.323 N 
HETATM   14  H   UNL     1      -2.923   2.266 -33.638  1.00  0.00     0.169 HD
HETATM   15  O   UNL     1      -4.808   2.141 -31.055  1.00  0.00    -0.267 OA
BRANCH  13  16
HETATM   16  C   UNL     1      -3.041   3.996 -32.548  1.00  0.00     0.035 A 
HETATM   17  C   UNL     1      -2.110   4.410 -31.596  1.00  0.00     0.030 A 
HETATM   18  C   UNL     1      -1.850   5.771 -31.399  1.00  0.00     0.009 A 
HETATM   19  C   UNL     1      -2.516   6.742 -32.153  1.00  0.00    -0.062 A 
HETATM   20  C   UNL     1      -2.264   8.199 -31.902  1.00  0.00     0.048 C 
HETATM   21  C   UNL     1      -3.461   6.330 -33.095  1.00  0.00     0.009 A 
HETATM   22  C   UNL     1      -3.712   4.970 -33.299  1.00  0.00     0.030 A 
ENDBRANCH  13  16
ENDBRANCH   1  12
BRANCH   2  23
HETATM   23  C   UNL     1      -6.864   0.773 -33.172  1.00  0.00    -0.011 A 
HETATM   24  C   UNL     1      -7.464   1.828 -33.861  1.00  0.00     0.125 A 
HETATM   25  N   UNL     1      -8.646   2.386 -33.523  1.00  0.00    -0.272 NA
HETATM   26  C   UNL     1      -9.285   1.858 -32.458  1.00  0.00     0.116 A 
HETATM   27  C   UNL     1      -8.796   0.796 -31.720  1.00  0.00     0.020 A 
HETATM   28  C   UNL     1      -7.570   0.243 -32.085  1.00  0.00     0.012 A 
ENDBRANCH   2  23
TORSDOF 3
ENDMDL
MODEL 7
REMARK VINA RESULT:      -7.5      2.495      4.805
REMARK  3 active torsions:
REMARK  status: ('A' for Active; 'I' for Inactive)
REMARK    1  A    between atoms: C_5  and  N_6 
REMARK       I    between atoms: N_6  and  C_7 
REMARK    2  A    between atoms: C_7  and  C_8 
REMARK    3  A    between atoms: C_9  and  C_10 
ROOT
HETATM    1  C   UNL     1      -5.075   3.481 -31.800  1.00  0.00     0.062 A 
HETATM    2  C   UNL     1      -6.039   3.744 -30.644  1.00  0.00     0.199 A 
HETATM    3  N   UNL     1      -5.621   4.900 -29.855  1.00  0.00    -0.092 N 
HETATM    4  C   UNL     1      -4.498   5.638 -30.094  1.00  0.00     0.735 A 
HETATM    5  N   UNL     1      -3.728   5.336 -31.157  1.00  0.00    -0.191 N 
HETATM    6  N   UNL     1      -6.172   5.263 -28.686  1.00  0.00     0.012 NA
HETATM    7  N   UNL     1      -5.433   6.288 -28.274  1.00  0.00     0.033 NA
HETATM    8  N   UNL     1      -4.383   6.529 -29.140  1.00  0.00     0.030 NA
HETATM    9  C   UNL     1      -3.992   4.272 -32.013  1.00  0.00     0.037 A 
HETATM   10  C   UNL     1      -2.997   4.074 -33.132  1.00  0.00     0.070 C 
HETATM   11  H   UNL     1      -2.896   5.892 -31.340  1.00  0.00     0.184 HD
ENDROOT
BRANCH   1  12
HETATM   12  C   UNL     1      -5.424   2.403 -32.773  1.00  0.00     0.256 C 
HETATM   13  N   UNL     1      -5.155   1.131 -32.320  1.00  0.00    -0.323 N 
HETATM   14  H   UNL     1      -4.736   1.016 -31.409  1.00  0.00     0.169 HD
HETATM   15  O   UNL     1      -5.934   2.713 -33.844  1.00  0.00    -0.267 OA
BRANCH  13  16
HETATM   16  C   UNL     1      -5.420  -0.082 -32.997  1.00  0.00     0.035 A 
HETATM   17  C   UNL     1      -4.433  -0.946 -33.471  1.00  0.00     0.030 A 
HETATM   18  C   UNL     1      -4.781  -2.131 -34.130  1.00  0.00     0.009 A 
HETATM   19  C   UNL     1      -6.123  -2.473 -34.325  1.00  0.00    -0.062 A 
HETATM   20  C   UNL     1      -6.485  -3.721 -35.072  1.00  0.00     0.048 C 
HETATM   21  C   UNL     1      -7.113  -1.601 -33.865  1.00  0.00     0.009 A 
HETATM   22  C   UNL     1      -6.764  -0.423 -33.197  1.00  0.00     0.030 A 
ENDBRANCH  13  16
ENDBRANCH   1  12
BRANCH   2  23
HETATM   23  C   UNL     1      -7.492   3.890 -31.052  1.00  0.00    -0.011 A 
HETATM   24  C   UNL     1      -8.441   2.986 -30.573  1.00  0.00     0.125 A 
HETATM   25  N   UNL     1      -9.753   3.017 -30.892  1.00  0.00    -0.272 NA
HETATM   26  C   UNL     1     -10.156   4.008 -31.713  1.00  0.00     0.116 A 
HETATM   27  C   UNL     1      -9.306   4.973 -32.225  1.00  0.00     0.020 A 
HETATM   28  C   UNL     1      -7.956   4.915 -31.885  1.00  0.00     0.012 A 
ENDBRANCH   2  23
TORSDOF 3
ENDMDL
MODEL 8
REMARK VINA RESULT:      -7.5      3.503      5.541
REMARK  3 active torsions:
REMARK  status: ('A' for Active; 'I' for Inactive)
REMARK    1  A    between atoms: C_5  and  N_6 
REMARK       I    between atoms: N_6  and  C_7 
REMARK    2  A    between atoms: C_7  and  C_8 
REMARK    3  A    between atoms: C_9  and  C_10 
ROOT
HETATM    1  C   UNL     1      -9.310   2.473 -33.334  1.00  0.00     0.062 A 
HETATM    2  C   UNL     1     -10.198   3.128 -34.391  1.00  0.00     0.199 A 
HETATM    3  N   UNL     1     -11.437   2.378 -34.584  1.00  0.00    -0.092 N 
HETATM    4  C   UNL     1     -11.755   1.222 -33.931  1.00  0.00     0.735 A 
HETATM    5  N   UNL     1     -10.911   0.742 -32.998  1.00  0.00    -0.191 N 
HETATM    6  N   UNL     1     -12.325   2.616 -35.562  1.00  0.00     0.012 NA
HETATM    7  N   UNL     1     -13.232   1.653 -35.428  1.00  0.00     0.033 NA
HETATM    8  N   UNL     1     -12.886   0.775 -34.419  1.00  0.00     0.030 NA
HETATM    9  C   UNL     1      -9.695   1.342 -32.688  1.00  0.00     0.037 A 
HETATM   10  C   UNL     1      -8.872   0.638 -31.635  1.00  0.00     0.070 C 
HETATM   11  H   UNL     1     -11.153  -0.114 -32.506  1.00  0.00     0.184 HD
ENDROOT
BRANCH   1  12
HETATM   12  C   UNL     1      -8.058   3.181 -32.933  1.00  0.00     0.256 C 
HETATM   13  N   UNL     1      -6.982   2.924 -33.755  1.00  0.00    -0.323 N 
HETATM   14  H   UNL     1      -7.100   2.284 -34.527  1.00  0.00     0.169 HD
HETATM   15  O   UNL     1      -8.084   3.931 -31.966  1.00  0.00    -0.267 OA
BRANCH  13  16
HETATM   16  C   UNL     1      -5.687   3.483 -33.654  1.00  0.00     0.035 A 
HETATM   17  C   UNL     1      -5.250   4.583 -34.392  1.00  0.00     0.030 A 
HETATM   18  C   UNL     1      -3.950   5.077 -34.231  1.00  0.00     0.009 A 
HETATM   19  C   UNL     1      -3.066   4.481 -33.327  1.00  0.00    -0.062 A 
HETATM   20  C   UNL     1      -1.661   4.988 -33.195  1.00  0.00     0.048 C 
HETATM   21  C   UNL     1      -3.497   3.369 -32.599  1.00  0.00     0.009 A 
HETATM   22  C   UNL     1      -4.799   2.883 -32.752  1.00  0.00     0.030 A 
ENDBRANCH  13  16
ENDBRANCH   1  12
BRANCH   2  23
HETATM   23  C   UNL     1     -10.509   4.591 -34.139  1.00  0.00    -0.011 A 
HETATM   24  C   UNL     1     -10.063   5.559 -35.038  1.00  0.00     0.125 A 
HETATM   25  N   UNL     1     -10.268   6.886 -34.894  1.00  0.00    -0.272 NA
HETATM   26  C   UNL     1     -10.973   7.278 -33.812  1.00  0.00     0.116 A 
HETATM   27  C   UNL     1     -11.485   6.402 -32.872  1.00  0.00     0.020 A 
HETATM   28  C   UNL     1     -11.253   5.039 -33.041  1.00  0.00     0.012 A 
ENDBRANCH   2  23
TORSDOF 3
ENDMDL
MODEL 9
REMARK VINA RESULT:      -7.5     15.615     17.839
REMARK  3 active torsions:
REMARK  status: ('A' for Active; 'I' for Inactive)
REMARK    1  A    between atoms: C_5  and  N_6 
REMARK       I    between atoms: N_6  and  C_7 
REMARK    2  A    between atoms: C_7  and  C_8 
REMARK    3  A    between atoms: C_9  and  C_10 
ROOT
HETATM    1  C   UNL     1      -3.141 -13.628 -37.249  1.00  0.00     0.062 A 
HETATM    2  C   UNL     1      -1.916 -14.044 -38.062  1.00  0.00     0.199 A 
HETATM    3  N   UNL     1      -0.996 -14.849 -37.263  1.00  0.00    -0.092 N 
HETATM    4  C   UNL     1      -1.182 -15.168 -35.949  1.00  0.00     0.735 A 
HETATM    5  N   UNL     1      -2.312 -14.772 -35.331  1.00  0.00    -0.191 N 
HETATM    6  N   UNL     1       0.237 -15.209 -37.654  1.00  0.00     0.012 NA
HETATM    7  N   UNL     1       0.751 -15.834 -36.601  1.00  0.00     0.033 NA
HETATM    8  N   UNL     1      -0.121 -15.811 -35.529  1.00  0.00     0.030 NA
HETATM    9  C   UNL     1      -3.293 -14.007 -35.953  1.00  0.00     0.037 A 
HETATM   10  C   UNL     1      -4.474 -13.635 -35.087  1.00  0.00     0.070 C 
HETATM   11  H   UNL     1      -2.454 -15.018 -34.355  1.00  0.00     0.184 HD
ENDROOT
BRANCH   1  12
HETATM   12  C   UNL     1      -4.237 -12.898 -37.953  1.00  0.00     0.256 C 
HETATM   13  N   UNL     1      -5.362 -13.660 -38.181  1.00  0.00    -0.323 N 
HETATM   14  H   UNL     1      -5.363 -14.627 -37.889  1.00  0.00     0.169 HD
HETATM   15  O   UNL     1      -4.076 -11.717 -38.236  1.00  0.00    -0.267 OA
BRANCH  13  16
HETATM   16  C   UNL     1      -6.568 -13.230 -38.781  1.00  0.00     0.035 A 
HETATM   17  C   UNL     1      -6.668 -12.770 -40.094  1.00  0.00     0.030 A 
HETATM   18  C   UNL     1      -7.902 -12.364 -40.613  1.00  0.00     0.009 A 
HETATM   19  C   UNL     1      -9.059 -12.413 -39.829  1.00  0.00    -0.062 A 
HETATM   20  C   UNL     1     -10.368 -11.932 -40.379  1.00  0.00     0.048 C 
HETATM   21  C   UNL     1      -8.957 -12.858 -38.509  1.00  0.00     0.009 A 
HETATM   22  C   UNL     1      -7.725 -13.274 -37.994  1.00  0.00     0.030 A 
ENDBRANCH  13  16
ENDBRANCH   1  12
BRANCH   2  23
HETATM   23  C   UNL     1      -2.231 -14.752 -39.364  1.00  0.00    -0.011 A 
HETATM   24  C   UNL     1      -2.843 -16.006 -39.342  1.00  0.00     0.125 A 
HETATM   25  N   UNL     1      -3.145 -16.726 -40.443  1.00  0.00    -0.272 NA
HETATM   26  C   UNL     1      -2.847 -16.170 -41.635  1.00  0.00     0.116 A 
HETATM   27  C   UNL     1      -2.265 -14.923 -41.775  1.00  0.00     0.020 A 
HETATM   28  C   UNL     1      -1.957 -14.202 -40.623  1.00  0.00     0.012 A 
ENDBRANCH   2  23
TORSDOF 3
ENDMDL
MODEL 10
REMARK VINA RESULT:      -7.5      2.400      6.246
REMARK  3 active torsions:
REMARK  status: ('A' for Active; 'I' for Inactive)
REMARK    1  A    between atoms: C_5  and  N_6 
REMARK       I    between atoms: N_6  and  C_7 
REMARK    2  A    between atoms: C_7  and  C_8 
REMARK    3  A    between atoms: C_9  and  C_10 
ROOT
HETATM    1  C   UNL     1      -6.583   0.065 -32.445  1.00  0.00     0.062 A 
HETATM    2  C   UNL     1      -5.560   0.765 -31.552  1.00  0.00     0.199 A 
HETATM    3  N   UNL     1      -4.246   0.136 -31.653  1.00  0.00    -0.092 N 
HETATM    4  C   UNL     1      -3.965  -0.958 -32.421  1.00  0.00     0.735 A 
HETATM    5  N   UNL     1      -4.936  -1.484 -33.192  1.00  0.00    -0.191 N 
HETATM    6  N   UNL     1      -3.201   0.424 -30.861  1.00  0.00     0.012 NA
HETATM    7  N   UNL     1      -2.258  -0.438 -31.228  1.00  0.00     0.033 NA
HETATM    8  N   UNL     1      -2.723  -1.308 -32.196  1.00  0.00     0.030 NA
HETATM    9  C   UNL     1      -6.239  -0.997 -33.218  1.00  0.00     0.037 A 
HETATM   10  C   UNL     1      -7.193  -1.740 -34.123  1.00  0.00     0.070 C 
HETATM   11  H   UNL     1      -4.724  -2.294 -33.771  1.00  0.00     0.184 HD
ENDROOT
BRANCH   1  12
HETATM   12  C   UNL     1      -7.950   0.658 -32.546  1.00  0.00     0.256 C 
HETATM   13  N   UNL     1      -8.136   1.451 -33.657  1.00  0.00    -0.323 N 
HETATM   14  H   UNL     1      -7.362   1.591 -34.291  1.00  0.00     0.169 HD
HETATM   15  O   UNL     1      -8.781   0.383 -31.689  1.00  0.00    -0.267 OA
BRANCH  13  16
HETATM   16  C   UNL     1      -9.329   2.103 -34.041  1.00  0.00     0.035 A 
HETATM   17  C   UNL     1     -10.510   1.441 -34.376  1.00  0.00     0.030 A 
HETATM   18  C   UNL     1     -11.651   2.163 -34.745  1.00  0.00     0.009 A 
HETATM   19  C   UNL     1     -11.632   3.561 -34.784  1.00  0.00    -0.062 A 
HETATM   20  C   UNL     1     -12.844   4.323 -35.224  1.00  0.00     0.048 C 
HETATM   21  C   UNL     1     -10.444   4.225 -34.465  1.00  0.00     0.009 A 
HETATM   22  C   UNL     1      -9.308   3.503 -34.086  1.00  0.00     0.030 A 
ENDBRANCH  13  16
ENDBRANCH   1  12
BRANCH   2  23
HETATM   23  C   UNL     1      -5.440   2.260 -31.778  1.00  0.00    -0.011 A 
HETATM   24  C   UNL     1      -5.805   3.146 -30.764  1.00  0.00     0.125 A 
HETATM   25  N   UNL     1      -5.756   4.490 -30.872  1.00  0.00    -0.272 NA
HETATM   26  C   UNL     1      -5.300   4.990 -32.039  1.00  0.00     0.116 A 
HETATM   27  C   UNL     1      -4.887   4.205 -33.100  1.00  0.00     0.020 A 
HETATM   28  C   UNL     1      -4.954   2.820 -32.965  1.00  0.00     0.012 A 
ENDBRANCH   2  23
TORSDOF 3
ENDMDL
