MODEL 1
REMARK VINA RESULT:      -8.3      0.000      0.000
REMARK  4 active torsions:
REMARK  status: ('A' for Active; 'I' for Inactive)
REMARK    1  A    between atoms: C_3  and  N_4 
REMARK       I    between atoms: N_4  and  C_5 
REMARK    2  A    between atoms: C_5  and  C_6 
REMARK    3  A    between atoms: C_6  and  C_7 
REMARK    4  A    between atoms: C_10  and  O_11 
ROOT
HETATM    1  N   UNL     1      -7.990  -0.310 -33.051  1.00  0.00    -0.326 N 
HETATM    2  C   UNL     1      -8.712   0.597 -33.813  1.00  0.00     0.226 C 
HETATM    3  O   UNL     1      -8.520   0.884 -34.990  1.00  0.00    -0.273 OA
HETATM    4  H   UNL     1      -8.327  -0.449 -32.110  1.00  0.00     0.169 HD
ENDROOT
BRANCH   1   5
HETATM    5  C   UNL     1      -6.859  -1.080 -33.442  1.00  0.00     0.047 A 
HETATM    6  C   UNL     1      -6.935  -2.000 -34.495  1.00  0.00     0.030 A 
HETATM    7  C   UNL     1      -5.822  -2.746 -34.868  1.00  0.00     0.005 A 
HETATM    8  C   UNL     1      -4.619  -2.577 -34.194  1.00  0.00     0.032 A 
HETATM    9  C   UNL     1      -4.491  -1.679 -33.149  1.00  0.00     0.069 A 
HETATM   10  C   UNL     1      -5.615  -0.912 -32.750  1.00  0.00     0.019 A 
HETATM   11  N   UNL     1      -3.283  -1.586 -32.568  1.00  0.00    -0.260 NA
HETATM   12  C   UNL     1      -5.387  -0.016 -31.676  1.00  0.00     0.017 A 
HETATM   13  C   UNL     1      -4.135   0.083 -31.073  1.00  0.00     0.020 A 
HETATM   14  C   UNL     1      -3.124  -0.717 -31.552  1.00  0.00     0.117 A 
ENDBRANCH   1   5
BRANCH   2  15
HETATM   15  C   UNL     1      -9.834   1.266 -33.032  1.00  0.00     0.141 C 
BRANCH  15  16
HETATM   16  C   UNL     1     -11.229   1.014 -33.561  1.00  0.00    -0.049 A 
HETATM   17  C   UNL     1     -11.883  -0.181 -33.214  1.00  0.00     0.010 A 
HETATM   18  C   UNL     1     -13.196  -0.426 -33.626  1.00  0.00     0.037 A 
HETATM   19  C   UNL     1     -13.863   0.530 -34.383  1.00  0.00     0.065 A 
HETATM   20  C   UNL     1     -13.240   1.721 -34.729  1.00  0.00     0.037 A 
HETATM   21  C   UNL     1     -11.931   1.970 -34.310  1.00  0.00     0.010 A 
BRANCH  19  22
HETATM   22  O   UNL     1     -15.147   0.340 -34.799  1.00  0.00    -0.361 OA
HETATM   23  H   UNL     1     -15.529   1.202 -35.034  1.00  0.00     0.217 HD
ENDBRANCH  19  22
ENDBRANCH  15  16
ENDBRANCH   2  15
TORSDOF 4
ENDMDL
MODEL 2
REMARK VINA RESULT:      -8.0      3.314      6.935
REMARK  4 active torsions:
REMARK  status: ('A' for Active; 'I' for Inactive)
REMARK    1  A    between atoms: C_3  and  N_4 
REMARK       I    between atoms: N_4  and  C_5 
REMARK    2  A    between atoms: C_5  and  C_6 
REMARK    3  A    between atoms: C_6  and  C_7 
REMARK    4  A    between atoms: C_10  and  O_11 
ROOT
HETATM    1  N   UNL     1      -5.197  -0.402 -31.543  1.00  0.00    -0.326 N 
HETATM    2  C   UNL     1      -4.028  -0.326 -32.286  1.00  0.00     0.226 C 
HETATM    3  O   UNL     1      -3.504   0.691 -32.728  1.00  0.00    -0.273 OA
HETATM    4  H   UNL     1      -5.447  -1.327 -31.226  1.00  0.00     0.169 HD
ENDROOT
BRANCH   1   5
HETATM    5  C   UNL     1      -6.062   0.659 -31.158  1.00  0.00     0.047 A 
HETATM    6  C   UNL     1      -5.680   1.593 -30.189  1.00  0.00     0.030 A 
HETATM    7  C   UNL     1      -6.534   2.628 -29.821  1.00  0.00     0.005 A 
HETATM    8  C   UNL     1      -7.781   2.740 -30.423  1.00  0.00     0.032 A 
HETATM    9  C   UNL     1      -8.205   1.845 -31.388  1.00  0.00     0.069 A 
HETATM   10  C   UNL     1      -7.351   0.781 -31.774  1.00  0.00     0.019 A 
HETATM   11  N   UNL     1      -9.426   2.046 -31.914  1.00  0.00    -0.260 NA
HETATM   12  C   UNL     1      -7.869  -0.081 -32.773  1.00  0.00     0.017 A 
HETATM   13  C   UNL     1      -9.133   0.126 -33.320  1.00  0.00     0.020 A 
HETATM   14  C   UNL     1      -9.867   1.196 -32.860  1.00  0.00     0.117 A 
ENDBRANCH   1   5
BRANCH   2  15
HETATM   15  C   UNL     1      -3.396  -1.688 -32.539  1.00  0.00     0.141 C 
BRANCH  15  16
HETATM   16  C   UNL     1      -4.201  -2.620 -33.417  1.00  0.00    -0.049 A 
HETATM   17  C   UNL     1      -3.861  -3.984 -33.453  1.00  0.00     0.010 A 
HETATM   18  C   UNL     1      -4.617  -4.892 -34.199  1.00  0.00     0.037 A 
HETATM   19  C   UNL     1      -5.723  -4.439 -34.909  1.00  0.00     0.065 A 
HETATM   20  C   UNL     1      -6.083  -3.098 -34.880  1.00  0.00     0.037 A 
HETATM   21  C   UNL     1      -5.332  -2.192 -34.128  1.00  0.00     0.010 A 
BRANCH  19  22
HETATM   22  O   UNL     1      -6.496  -5.289 -35.642  1.00  0.00    -0.361 OA
HETATM   23  H   UNL     1      -7.036  -5.821 -35.034  1.00  0.00     0.217 HD
ENDBRANCH  19  22
ENDBRANCH  15  16
ENDBRANCH   2  15
TORSDOF 4
ENDMDL
MODEL 3
REMARK VINA RESULT:      -7.9      1.611      2.969
REMARK  4 active torsions:
REMARK  status: ('A' for Active; 'I' for Inactive)
REMARK    1  A    between atoms: C_3  and  N_4 
REMARK       I    between atoms: N_4  and  C_5 
REMARK    2  A    between atoms: C_5  and  C_6 
REMARK    3  A    between atoms: C_6  and  C_7 
REMARK    4  A    between atoms: C_10  and  O_11 
ROOT
HETATM    1  N   UNL     1      -8.845   1.135 -33.384  1.00  0.00    -0.326 N 
HETATM    2  C   UNL     1     -10.131   0.616 -33.408  1.00  0.00     0.226 C 
HETATM    3  O   UNL     1     -10.556  -0.323 -32.743  1.00  0.00    -0.273 OA
HETATM    4  H   UNL     1      -8.693   1.943 -33.969  1.00  0.00     0.169 HD
ENDROOT
BRANCH   1   5
HETATM    5  C   UNL     1      -7.731   0.686 -32.620  1.00  0.00     0.047 A 
HETATM    6  C   UNL     1      -7.477   1.190 -31.340  1.00  0.00     0.030 A 
HETATM    7  C   UNL     1      -6.386   0.742 -30.602  1.00  0.00     0.005 A 
HETATM    8  C   UNL     1      -5.539  -0.221 -31.138  1.00  0.00     0.032 A 
HETATM    9  C   UNL     1      -5.748  -0.753 -32.397  1.00  0.00     0.069 A 
HETATM   10  C   UNL     1      -6.852  -0.306 -33.166  1.00  0.00     0.019 A 
HETATM   11  N   UNL     1      -4.875  -1.683 -32.819  1.00  0.00    -0.260 NA
HETATM   12  C   UNL     1      -6.988  -0.913 -34.440  1.00  0.00     0.017 A 
HETATM   13  C   UNL     1      -6.085  -1.878 -34.880  1.00  0.00     0.020 A 
HETATM   14  C   UNL     1      -5.053  -2.226 -34.038  1.00  0.00     0.117 A 
ENDBRANCH   1   5
BRANCH   2  15
HETATM   15  C   UNL     1     -11.042   1.338 -34.391  1.00  0.00     0.141 C 
BRANCH  15  16
HETATM   16  C   UNL     1     -12.493   1.435 -33.975  1.00  0.00    -0.049 A 
HETATM   17  C   UNL     1     -12.888   2.479 -33.120  1.00  0.00     0.010 A 
HETATM   18  C   UNL     1     -14.228   2.645 -32.763  1.00  0.00     0.037 A 
HETATM   19  C   UNL     1     -15.183   1.769 -33.265  1.00  0.00     0.065 A 
HETATM   20  C   UNL     1     -14.818   0.736 -34.118  1.00  0.00     0.037 A 
HETATM   21  C   UNL     1     -13.479   0.575 -34.482  1.00  0.00     0.010 A 
BRANCH  19  22
HETATM   22  O   UNL     1     -16.503   1.898 -32.953  1.00  0.00    -0.361 OA
HETATM   23  H   UNL     1     -16.631   1.637 -32.025  1.00  0.00     0.217 HD
ENDBRANCH  19  22
ENDBRANCH  15  16
ENDBRANCH   2  15
TORSDOF 4
ENDMDL
MODEL 4
REMARK VINA RESULT:      -7.9      1.770      3.017
REMARK  4 active torsions:
REMARK  status: ('A' for Active; 'I' for Inactive)
REMARK    1  A    between atoms: C_3  and  N_4 
REMARK       I    between atoms: N_4  and  C_5 
REMARK    2  A    between atoms: C_5  and  C_6 
REMARK    3  A    between atoms: C_6  and  C_7 
REMARK    4  A    between atoms: C_10  and  O_11 
ROOT
HETATM    1  N   UNL     1      -8.114  -0.351 -33.104  1.00  0.00    -0.326 N 
HETATM    2  C   UNL     1      -8.884   0.567 -33.802  1.00  0.00     0.226 C 
HETATM    3  O   UNL     1      -8.501   1.321 -34.692  1.00  0.00    -0.273 OA
HETATM    4  H   UNL     1      -8.617  -0.918 -32.438  1.00  0.00     0.169 HD
ENDROOT
BRANCH   1   5
HETATM    5  C   UNL     1      -6.720  -0.604 -33.231  1.00  0.00     0.047 A 
HETATM    6  C   UNL     1      -5.769   0.309 -32.758  1.00  0.00     0.030 A 
HETATM    7  C   UNL     1      -4.409   0.049 -32.886  1.00  0.00     0.005 A 
HETATM    8  C   UNL     1      -3.984  -1.129 -33.487  1.00  0.00     0.032 A 
HETATM    9  C   UNL     1      -4.883  -2.064 -33.968  1.00  0.00     0.069 A 
HETATM   10  C   UNL     1      -6.274  -1.817 -33.851  1.00  0.00     0.019 A 
HETATM   11  N   UNL     1      -4.369  -3.174 -34.526  1.00  0.00    -0.260 NA
HETATM   12  C   UNL     1      -7.116  -2.834 -34.366  1.00  0.00     0.017 A 
HETATM   13  C   UNL     1      -6.586  -3.985 -34.943  1.00  0.00     0.020 A 
HETATM   14  C   UNL     1      -5.216  -4.107 -34.999  1.00  0.00     0.117 A 
ENDBRANCH   1   5
BRANCH   2  15
HETATM   15  C   UNL     1     -10.339   0.583 -33.355  1.00  0.00     0.141 C 
BRANCH  15  16
HETATM   16  C   UNL     1     -11.140   1.785 -33.804  1.00  0.00    -0.049 A 
HETATM   17  C   UNL     1     -11.960   1.670 -34.940  1.00  0.00     0.010 A 
HETATM   18  C   UNL     1     -12.767   2.734 -35.353  1.00  0.00     0.037 A 
HETATM   19  C   UNL     1     -12.762   3.917 -34.625  1.00  0.00     0.065 A 
HETATM   20  C   UNL     1     -11.967   4.050 -33.495  1.00  0.00     0.037 A 
HETATM   21  C   UNL     1     -11.167   2.984 -33.077  1.00  0.00     0.010 A 
BRANCH  19  22
HETATM   22  O   UNL     1     -13.540   4.978 -34.983  1.00  0.00    -0.361 OA
HETATM   23  H   UNL     1     -14.088   5.232 -34.222  1.00  0.00     0.217 HD
ENDBRANCH  19  22
ENDBRANCH  15  16
ENDBRANCH   2  15
TORSDOF 4
ENDMDL
MODEL 5
REMARK VINA RESULT:      -7.9      4.115      6.745
REMARK  4 active torsions:
REMARK  status: ('A' for Active; 'I' for Inactive)
REMARK    1  A    between atoms: C_3  and  N_4 
REMARK       I    between atoms: N_4  and  C_5 
REMARK    2  A    between atoms: C_5  and  C_6 
REMARK    3  A    between atoms: C_6  and  C_7 
REMARK    4  A    between atoms: C_10  and  O_11 
ROOT
HETATM    1  N   UNL     1      -5.571   1.965 -33.323  1.00  0.00    -0.326 N 
HETATM    2  C   UNL     1      -6.043   2.612 -32.190  1.00  0.00     0.226 C 
HETATM    3  O   UNL     1      -6.730   2.124 -31.299  1.00  0.00    -0.273 OA
HETATM    4  H   UNL     1      -4.979   2.520 -33.923  1.00  0.00     0.169 HD
ENDROOT
BRANCH   1   5
HETATM    5  C   UNL     1      -5.798   0.618 -33.723  1.00  0.00     0.047 A 
HETATM    6  C   UNL     1      -6.849   0.283 -34.584  1.00  0.00     0.030 A 
HETATM    7  C   UNL     1      -7.060  -1.036 -34.970  1.00  0.00     0.005 A 
HETATM    8  C   UNL     1      -6.218  -2.036 -34.499  1.00  0.00     0.032 A 
HETATM    9  C   UNL     1      -5.164  -1.757 -33.649  1.00  0.00     0.069 A 
HETATM   10  C   UNL     1      -4.934  -0.419 -33.241  1.00  0.00     0.019 A 
HETATM   11  N   UNL     1      -4.404  -2.795 -33.257  1.00  0.00    -0.260 NA
HETATM   12  C   UNL     1      -3.828  -0.230 -32.375  1.00  0.00     0.017 A 
HETATM   13  C   UNL     1      -3.039  -1.303 -31.968  1.00  0.00     0.020 A 
HETATM   14  C   UNL     1      -3.366  -2.557 -32.434  1.00  0.00     0.117 A 
ENDBRANCH   1   5
BRANCH   2  15
HETATM   15  C   UNL     1      -5.627   4.075 -32.127  1.00  0.00     0.141 C 
BRANCH  15  16
HETATM   16  C   UNL     1      -4.433   4.445 -32.978  1.00  0.00    -0.049 A 
HETATM   17  C   UNL     1      -3.141   4.190 -32.486  1.00  0.00     0.010 A 
HETATM   18  C   UNL     1      -2.011   4.454 -33.265  1.00  0.00     0.037 A 
HETATM   19  C   UNL     1      -2.170   4.970 -34.545  1.00  0.00     0.065 A 
HETATM   20  C   UNL     1      -3.437   5.221 -35.056  1.00  0.00     0.037 A 
HETATM   21  C   UNL     1      -4.566   4.948 -34.281  1.00  0.00     0.010 A 
BRANCH  19  22
HETATM   22  O   UNL     1      -1.099   5.234 -35.346  1.00  0.00    -0.361 OA
HETATM   23  H   UNL     1      -1.043   6.194 -35.484  1.00  0.00     0.217 HD
ENDBRANCH  19  22
ENDBRANCH  15  16
ENDBRANCH   2  15
TORSDOF 4
ENDMDL
MODEL 6
REMARK VINA RESULT:      -7.9      3.674      6.402
REMARK  4 active torsions:
REMARK  status: ('A' for Active; 'I' for Inactive)
REMARK    1  A    between atoms: C_3  and  N_4 
REMARK       I    between atoms: N_4  and  C_5 
REMARK    2  A    between atoms: C_5  and  C_6 
REMARK    3  A    between atoms: C_6  and  C_7 
REMARK    4  A    between atoms: C_10  and  O_11 
ROOT
HETATM    1  N   UNL     1      -7.311   0.004 -32.934  1.00  0.00    -0.326 N 
HETATM    2  C   UNL     1      -7.200  -0.057 -34.315  1.00  0.00     0.226 C 
HETATM    3  O   UNL     1      -6.930   0.869 -35.073  1.00  0.00    -0.273 OA
HETATM    4  H   UNL     1      -7.495  -0.875 -32.476  1.00  0.00     0.169 HD
ENDROOT
BRANCH   1   5
HETATM    5  C   UNL     1      -7.172   1.143 -32.093  1.00  0.00     0.047 A 
HETATM    6  C   UNL     1      -8.282   1.730 -31.475  1.00  0.00     0.030 A 
HETATM    7  C   UNL     1      -8.133   2.842 -30.653  1.00  0.00     0.005 A 
HETATM    8  C   UNL     1      -6.869   3.378 -30.438  1.00  0.00     0.032 A 
HETATM    9  C   UNL     1      -5.740   2.833 -31.022  1.00  0.00     0.069 A 
HETATM   10  C   UNL     1      -5.871   1.702 -31.867  1.00  0.00     0.019 A 
HETATM   11  N   UNL     1      -4.564   3.422 -30.744  1.00  0.00    -0.260 NA
HETATM   12  C   UNL     1      -4.660   1.211 -32.415  1.00  0.00     0.017 A 
HETATM   13  C   UNL     1      -3.440   1.818 -32.127  1.00  0.00     0.020 A 
HETATM   14  C   UNL     1      -3.445   2.913 -31.293  1.00  0.00     0.117 A 
ENDBRANCH   1   5
BRANCH   2  15
HETATM   15  C   UNL     1      -7.462  -1.451 -34.869  1.00  0.00     0.141 C 
BRANCH  15  16
HETATM   16  C   UNL     1      -6.383  -2.472 -34.588  1.00  0.00    -0.049 A 
HETATM   17  C   UNL     1      -6.629  -3.823 -34.888  1.00  0.00     0.010 A 
HETATM   18  C   UNL     1      -5.637  -4.790 -34.706  1.00  0.00     0.037 A 
HETATM   19  C   UNL     1      -4.390  -4.408 -34.227  1.00  0.00     0.065 A 
HETATM   20  C   UNL     1      -4.121  -3.078 -33.932  1.00  0.00     0.037 A 
HETATM   21  C   UNL     1      -5.109  -2.110 -34.123  1.00  0.00     0.010 A 
BRANCH  19  22
HETATM   22  O   UNL     1      -3.388  -5.314 -34.043  1.00  0.00    -0.361 OA
HETATM   23  H   UNL     1      -3.373  -5.576 -33.107  1.00  0.00     0.217 HD
ENDBRANCH  19  22
ENDBRANCH  15  16
ENDBRANCH   2  15
TORSDOF 4
ENDMDL
MODEL 7
REMARK VINA RESULT:      -7.8      3.171      7.051
REMARK  4 active torsions:
REMARK  status: ('A' for Active; 'I' for Inactive)
REMARK    1  A    between atoms: C_3  and  N_4 
REMARK       I    between atoms: N_4  and  C_5 
REMARK    2  A    between atoms: C_5  and  C_6 
REMARK    3  A    between atoms: C_6  and  C_7 
REMARK    4  A    between atoms: C_10  and  O_11 
ROOT
HETATM    1  N   UNL     1      -7.392  -0.016 -32.815  1.00  0.00    -0.326 N 
HETATM    2  C   UNL     1      -6.922   0.091 -34.115  1.00  0.00     0.226 C 
HETATM    3  O   UNL     1      -6.366   1.063 -34.617  1.00  0.00    -0.273 OA
HETATM    4  H   UNL     1      -7.781  -0.914 -32.569  1.00  0.00     0.169 HD
ENDROOT
BRANCH   1   5
HETATM    5  C   UNL     1      -7.369   0.969 -31.789  1.00  0.00     0.047 A 
HETATM    6  C   UNL     1      -6.308   1.047 -30.879  1.00  0.00     0.030 A 
HETATM    7  C   UNL     1      -6.296   2.016 -29.882  1.00  0.00     0.005 A 
HETATM    8  C   UNL     1      -7.346   2.921 -29.786  1.00  0.00     0.032 A 
HETATM    9  C   UNL     1      -8.415   2.889 -30.662  1.00  0.00     0.069 A 
HETATM   10  C   UNL     1      -8.449   1.907 -31.683  1.00  0.00     0.019 A 
HETATM   11  N   UNL     1      -9.375   3.814 -30.488  1.00  0.00    -0.260 NA
HETATM   12  C   UNL     1      -9.580   1.956 -32.535  1.00  0.00     0.017 A 
HETATM   13  C   UNL     1     -10.575   2.914 -32.358  1.00  0.00     0.020 A 
HETATM   14  C   UNL     1     -10.427   3.814 -31.327  1.00  0.00     0.117 A 
ENDBRANCH   1   5
BRANCH   2  15
HETATM   15  C   UNL     1      -7.166  -1.165 -34.940  1.00  0.00     0.141 C 
BRANCH  15  16
HETATM   16  C   UNL     1      -6.250  -2.328 -34.632  1.00  0.00    -0.049 A 
HETATM   17  C   UNL     1      -6.664  -3.628 -34.970  1.00  0.00     0.010 A 
HETATM   18  C   UNL     1      -5.822  -4.725 -34.764  1.00  0.00     0.037 A 
HETATM   19  C   UNL     1      -4.559  -4.524 -34.222  1.00  0.00     0.065 A 
HETATM   20  C   UNL     1      -4.125  -3.248 -33.889  1.00  0.00     0.037 A 
HETATM   21  C   UNL     1      -4.962  -2.151 -34.104  1.00  0.00     0.010 A 
BRANCH  19  22
HETATM   22  O   UNL     1      -3.700  -5.561 -34.013  1.00  0.00    -0.361 OA
HETATM   23  H   UNL     1      -4.211  -6.388 -33.983  1.00  0.00     0.217 HD
ENDBRANCH  19  22
ENDBRANCH  15  16
ENDBRANCH   2  15
TORSDOF 4
ENDMDL
MODEL 8
REMARK VINA RESULT:      -7.8      4.609      7.483
REMARK  4 active torsions:
REMARK  status: ('A' for Active; 'I' for Inactive)
REMARK    1  A    between atoms: C_3  and  N_4 
REMARK       I    between atoms: N_4  and  C_5 
REMARK    2  A    between atoms: C_5  and  C_6 
REMARK    3  A    between atoms: C_6  and  C_7 
REMARK    4  A    between atoms: C_10  and  O_11 
ROOT
HETATM    1  N   UNL     1      -4.305   1.757 -32.551  1.00  0.00    -0.326 N 
HETATM    2  C   UNL     1      -4.757   2.541 -31.500  1.00  0.00     0.226 C 
HETATM    3  O   UNL     1      -5.050   2.159 -30.372  1.00  0.00    -0.273 OA
HETATM    4  H   UNL     1      -4.068   2.259 -33.394  1.00  0.00     0.169 HD
ENDROOT
BRANCH   1   5
HETATM    5  C   UNL     1      -4.111   0.347 -32.574  1.00  0.00     0.047 A 
HETATM    6  C   UNL     1      -3.097  -0.259 -31.824  1.00  0.00     0.030 A 
HETATM    7  C   UNL     1      -2.918  -1.638 -31.854  1.00  0.00     0.005 A 
HETATM    8  C   UNL     1      -3.757  -2.427 -32.633  1.00  0.00     0.032 A 
HETATM    9  C   UNL     1      -4.775  -1.877 -33.389  1.00  0.00     0.069 A 
HETATM   10  C   UNL     1      -4.971  -0.472 -33.376  1.00  0.00     0.019 A 
HETATM   11  N   UNL     1      -5.534  -2.727 -34.101  1.00  0.00    -0.260 NA
HETATM   12  C   UNL     1      -6.042  -0.002 -34.176  1.00  0.00     0.017 A 
HETATM   13  C   UNL     1      -6.831  -0.881 -34.914  1.00  0.00     0.020 A 
HETATM   14  C   UNL     1      -6.539  -2.224 -34.844  1.00  0.00     0.117 A 
ENDBRANCH   1   5
BRANCH   2  15
HETATM   15  C   UNL     1      -4.880   4.013 -31.869  1.00  0.00     0.141 C 
BRANCH  15  16
HETATM   16  C   UNL     1      -3.804   4.541 -32.791  1.00  0.00    -0.049 A 
HETATM   17  C   UNL     1      -2.470   4.547 -32.346  1.00  0.00     0.010 A 
HETATM   18  C   UNL     1      -1.435   4.964 -33.188  1.00  0.00     0.037 A 
HETATM   19  C   UNL     1      -1.731   5.371 -34.483  1.00  0.00     0.065 A 
HETATM   20  C   UNL     1      -3.039   5.363 -34.947  1.00  0.00     0.037 A 
HETATM   21  C   UNL     1      -4.072   4.938 -34.109  1.00  0.00     0.010 A 
BRANCH  19  22
HETATM   22  O   UNL     1      -0.754   5.776 -35.344  1.00  0.00    -0.361 OA
HETATM   23  H   UNL     1      -0.945   5.412 -36.224  1.00  0.00     0.217 HD
ENDBRANCH  19  22
ENDBRANCH  15  16
ENDBRANCH   2  15
TORSDOF 4
ENDMDL
MODEL 9
REMARK VINA RESULT:      -7.8      2.962      6.953
REMARK  4 active torsions:
REMARK  status: ('A' for Active; 'I' for Inactive)
REMARK    1  A    between atoms: C_3  and  N_4 
REMARK       I    between atoms: N_4  and  C_5 
REMARK    2  A    between atoms: C_5  and  C_6 
REMARK    3  A    between atoms: C_6  and  C_7 
REMARK    4  A    between atoms: C_10  and  O_11 
ROOT
HETATM    1  N   UNL     1      -6.019   1.428 -33.770  1.00  0.00    -0.326 N 
HETATM    2  C   UNL     1      -5.650   0.632 -32.696  1.00  0.00     0.226 C 
HETATM    3  O   UNL     1      -6.074   0.708 -31.547  1.00  0.00    -0.273 OA
HETATM    4  H   UNL     1      -5.596   1.184 -34.654  1.00  0.00     0.169 HD
ENDROOT
BRANCH   1   5
HETATM    5  C   UNL     1      -6.933   2.518 -33.783  1.00  0.00     0.047 A 
HETATM    6  C   UNL     1      -6.484   3.843 -33.799  1.00  0.00     0.030 A 
HETATM    7  C   UNL     1      -7.387   4.901 -33.812  1.00  0.00     0.005 A 
HETATM    8  C   UNL     1      -8.753   4.642 -33.813  1.00  0.00     0.032 A 
HETATM    9  C   UNL     1      -9.248   3.351 -33.800  1.00  0.00     0.069 A 
HETATM   10  C   UNL     1      -8.344   2.259 -33.783  1.00  0.00     0.019 A 
HETATM   11  N   UNL     1     -10.585   3.210 -33.810  1.00  0.00    -0.260 NA
HETATM   12  C   UNL     1      -8.943   0.975 -33.777  1.00  0.00     0.017 A 
HETATM   13  C   UNL     1     -10.328   0.826 -33.788  1.00  0.00     0.020 A 
HETATM   14  C   UNL     1     -11.099   1.966 -33.804  1.00  0.00     0.117 A 
ENDBRANCH   1   5
BRANCH   2  15
HETATM   15  C   UNL     1      -4.604  -0.411 -33.062  1.00  0.00     0.141 C 
BRANCH  15  16
HETATM   16  C   UNL     1      -5.140  -1.654 -33.737  1.00  0.00    -0.049 A 
HETATM   17  C   UNL     1      -4.277  -2.746 -33.937  1.00  0.00     0.010 A 
HETATM   18  C   UNL     1      -4.746  -3.937 -34.497  1.00  0.00     0.037 A 
HETATM   19  C   UNL     1      -6.085  -4.044 -34.852  1.00  0.00     0.065 A 
HETATM   20  C   UNL     1      -6.958  -2.983 -34.654  1.00  0.00     0.037 A 
HETATM   21  C   UNL     1      -6.491  -1.795 -34.087  1.00  0.00     0.010 A 
BRANCH  19  22
HETATM   22  O   UNL     1      -6.590  -5.190 -35.391  1.00  0.00    -0.361 OA
HETATM   23  H   UNL     1      -7.275  -4.954 -36.039  1.00  0.00     0.217 HD
ENDBRANCH  19  22
ENDBRANCH  15  16
ENDBRANCH   2  15
TORSDOF 4
ENDMDL
MODEL 10
REMARK VINA RESULT:      -7.6      2.236      3.131
REMARK  4 active torsions:
REMARK  status: ('A' for Active; 'I' for Inactive)
REMARK    1  A    between atoms: C_3  and  N_4 
REMARK       I    between atoms: N_4  and  C_5 
REMARK    2  A    between atoms: C_5  and  C_6 
REMARK    3  A    between atoms: C_6  and  C_7 
REMARK    4  A    between atoms: C_10  and  O_11 
ROOT
HETATM    1  N   UNL     1      -8.119  -0.672 -33.421  1.00  0.00    -0.326 N 
HETATM    2  C   UNL     1      -8.613   0.489 -33.997  1.00  0.00     0.226 C 
HETATM    3  O   UNL     1      -8.051   1.190 -34.833  1.00  0.00    -0.273 OA
HETATM    4  H   UNL     1      -8.748  -1.139 -32.784  1.00  0.00     0.169 HD
ENDROOT
BRANCH   1   5
HETATM    5  C   UNL     1      -6.857  -1.291 -33.637  1.00  0.00     0.047 A 
HETATM    6  C   UNL     1      -6.671  -2.222 -34.666  1.00  0.00     0.030 A 
HETATM    7  C   UNL     1      -5.431  -2.820 -34.869  1.00  0.00     0.005 A 
HETATM    8  C   UNL     1      -4.362  -2.489 -34.045  1.00  0.00     0.032 A 
HETATM    9  C   UNL     1      -4.493  -1.572 -33.017  1.00  0.00     0.069 A 
HETATM   10  C   UNL     1      -5.749  -0.955 -32.792  1.00  0.00     0.019 A 
HETATM   11  N   UNL     1      -3.396  -1.317 -32.284  1.00  0.00    -0.260 NA
HETATM   12  C   UNL     1      -5.785  -0.027 -31.721  1.00  0.00     0.017 A 
HETATM   13  C   UNL     1      -4.649   0.240 -30.960  1.00  0.00     0.020 A 
HETATM   14  C   UNL     1      -3.488  -0.425 -31.279  1.00  0.00     0.117 A 
ENDBRANCH   1   5
BRANCH   2  15
HETATM   15  C   UNL     1      -9.994   0.867 -33.479  1.00  0.00     0.141 C 
BRANCH  15  16
HETATM   16  C   UNL     1     -10.020   1.999 -32.476  1.00  0.00    -0.049 A 
HETATM   17  C   UNL     1      -9.086   1.999 -31.426  1.00  0.00     0.010 A 
HETATM   18  C   UNL     1      -9.031   3.058 -30.515  1.00  0.00     0.037 A 
HETATM   19  C   UNL     1      -9.910   4.125 -30.655  1.00  0.00     0.065 A 
HETATM   20  C   UNL     1     -10.835   4.151 -31.690  1.00  0.00     0.037 A 
HETATM   21  C   UNL     1     -10.883   3.097 -32.606  1.00  0.00     0.010 A 
BRANCH  19  22
HETATM   22  O   UNL     1      -9.887   5.184 -29.797  1.00  0.00    -0.361 OA
HETATM   23  H   UNL     1      -8.970   5.492 -29.707  1.00  0.00     0.217 HD
ENDBRANCH  19  22
ENDBRANCH  15  16
ENDBRANCH   2  15
TORSDOF 4
ENDMDL
