MODEL 1
REMARK VINA RESULT:      -9.4      0.000      0.000
REMARK  7 active torsions:
REMARK  status: ('A' for Active; 'I' for Inactive)
REMARK    1  A    between atoms: C_2  and  N_3 
REMARK       I    between atoms: N_3  and  C_4 
REMARK    2  A    between atoms: C_4  and  C_5 
REMARK    3  A    between atoms: C_8  and  C_9 
REMARK       I    between atoms: C_9  and  N_10 
REMARK    4  A    between atoms: N_13  and  C_14 
REMARK    5  A    between atoms: C_15  and  O_16 
REMARK    6  A    between atoms: N_26  and  C_27 
REMARK    7  A    between atoms: C_27  and  C_28 
ROOT
HETATM    1  C   UNL     1     -10.247   2.022 -33.944  1.00  0.00     0.098 A 
HETATM    2  C   UNL     1      -9.752   3.125 -33.071  1.00  0.00     0.206 A 
HETATM    3  O   UNL     1     -10.490   4.056 -32.751  1.00  0.00    -0.286 OA
HETATM    4  C   UNL     1      -8.331   3.071 -32.624  1.00  0.00     0.098 A 
HETATM    5  C   UNL     1      -7.563   2.083 -33.113  1.00  0.00     0.111 A 
HETATM    6  N   UNL     1      -7.990   1.117 -34.016  1.00  0.00    -0.364 N 
HETATM    7  C   UNL     1      -9.339   1.122 -34.362  1.00  0.00     0.111 A 
ENDROOT
BRANCH   4   8
HETATM    8  C   UNL     1      -7.849   3.883 -31.487  1.00  0.00     0.259 C 
HETATM    9  N   UNL     1      -7.145   5.048 -31.721  1.00  0.00    -0.345 N 
HETATM   10  C   UNL     1      -6.502   5.714 -30.582  1.00  0.00     0.146 C 
HETATM   11  C   UNL     1      -6.726   5.613 -33.014  1.00  0.00     0.146 C 
HETATM   12  C   UNL     1      -4.972   5.592 -30.693  1.00  0.00     0.143 C 
HETATM   13  N   UNL     1      -4.515   6.151 -31.995  1.00  0.00    -0.376 N 
HETATM   14  C   UNL     1      -5.185   5.546 -33.167  1.00  0.00     0.143 C 
HETATM   15  O   UNL     1      -8.052   3.455 -30.351  1.00  0.00    -0.267 OA
BRANCH  13  16
HETATM   16  C   UNL     1      -3.117   6.353 -32.038  1.00  0.00     0.064 A 
HETATM   17  C   UNL     1      -2.561   7.647 -31.846  1.00  0.00     0.094 A 
HETATM   18  C   UNL     1      -1.171   7.837 -31.869  1.00  0.00     0.039 A 
HETATM   19  C   UNL     1      -0.313   6.758 -32.075  1.00  0.00     0.003 A 
HETATM   20  C   UNL     1      -0.837   5.488 -32.277  1.00  0.00     0.002 A 
HETATM   21  C   UNL     1      -2.221   5.290 -32.263  1.00  0.00     0.032 A 
BRANCH  17  22
HETATM   22  O   UNL     1      -3.454   8.686 -31.703  1.00  0.00    -0.354 OA
HETATM   23  C   UNL     1      -3.264   9.558 -30.597  1.00  0.00     0.210 C 
ENDBRANCH  17  22
ENDBRANCH  13  16
ENDBRANCH   4   8
BRANCH   1  24
HETATM   24  C   UNL     1     -11.672   1.832 -34.345  1.00  0.00     0.257 C 
HETATM   25  N   UNL     1     -12.574   1.803 -33.312  1.00  0.00    -0.353 N 
HETATM   26  H   UNL     1     -12.213   1.937 -32.366  1.00  0.00     0.163 HD
HETATM   27  O   UNL     1     -11.985   1.684 -35.524  1.00  0.00    -0.267 OA
BRANCH  25  28
HETATM   28  C   UNL     1     -13.989   1.484 -33.444  1.00  0.00     0.076 C 
HETATM   29  C   UNL     1     -14.820   2.110 -32.325  1.00  0.00     0.032 C 
HETATM   30  C   UNL     1     -14.247  -0.016 -33.564  1.00  0.00     0.032 C 
ENDBRANCH  25  28
ENDBRANCH   1  24
BRANCH   6  31
HETATM   31  C   UNL     1      -7.083   0.074 -34.545  1.00  0.00     0.132 C 
BRANCH  31  32
HETATM   32  C   UNL     1      -6.913  -1.139 -33.600  1.00  0.00     0.004 C 
HETATM   33  C   UNL     1      -6.932  -2.499 -34.316  1.00  0.00     0.006 C 
HETATM   34  C   UNL     1      -5.668  -2.760 -35.129  1.00  0.00     0.000 C 
HETATM   35  C   UNL     1      -4.419  -2.636 -34.265  1.00  0.00     0.000 C 
HETATM   36  C   UNL     1      -4.353  -1.287 -33.555  1.00  0.00     0.000 C 
HETATM   37  C   UNL     1      -5.628  -0.999 -32.762  1.00  0.00     0.006 C 
ENDBRANCH  31  32
ENDBRANCH   6  31
TORSDOF 7
ENDMDL
MODEL 2
REMARK VINA RESULT:      -8.9      2.264      8.551
REMARK  7 active torsions:
REMARK  status: ('A' for Active; 'I' for Inactive)
REMARK    1  A    between atoms: C_2  and  N_3 
REMARK       I    between atoms: N_3  and  C_4 
REMARK    2  A    between atoms: C_4  and  C_5 
REMARK    3  A    between atoms: C_8  and  C_9 
REMARK       I    between atoms: C_9  and  N_10 
REMARK    4  A    between atoms: N_13  and  C_14 
REMARK    5  A    between atoms: C_15  and  O_16 
REMARK    6  A    between atoms: N_26  and  C_27 
REMARK    7  A    between atoms: C_27  and  C_28 
ROOT
HETATM    1  C   UNL     1      -5.522   1.650 -32.729  1.00  0.00     0.098 A 
HETATM    2  C   UNL     1      -6.634   2.401 -33.381  1.00  0.00     0.206 A 
HETATM    3  O   UNL     1      -7.514   1.810 -34.004  1.00  0.00    -0.286 OA
HETATM    4  C   UNL     1      -6.624   3.888 -33.271  1.00  0.00     0.098 A 
HETATM    5  C   UNL     1      -5.565   4.460 -32.674  1.00  0.00     0.111 A 
HETATM    6  N   UNL     1      -4.471   3.771 -32.165  1.00  0.00    -0.364 N 
HETATM    7  C   UNL     1      -4.527   2.379 -32.193  1.00  0.00     0.111 A 
ENDROOT
BRANCH   4   8
HETATM    8  C   UNL     1      -7.835   4.688 -33.547  1.00  0.00     0.259 C 
HETATM    9  N   UNL     1      -8.989   4.467 -32.821  1.00  0.00    -0.345 N 
HETATM   10  C   UNL     1     -10.225   5.125 -33.260  1.00  0.00     0.146 C 
HETATM   11  C   UNL     1      -9.229   3.450 -31.784  1.00  0.00     0.146 C 
HETATM   12  C   UNL     1     -11.209   4.083 -33.819  1.00  0.00     0.143 C 
HETATM   13  N   UNL     1     -11.471   3.035 -32.794  1.00  0.00    -0.376 N 
HETATM   14  C   UNL     1     -10.242   2.389 -32.282  1.00  0.00     0.143 C 
HETATM   15  O   UNL     1      -7.785   5.504 -34.468  1.00  0.00    -0.267 OA
BRANCH  13  16
HETATM   16  C   UNL     1     -12.583   2.225 -33.117  1.00  0.00     0.064 A 
HETATM   17  C   UNL     1     -13.880   2.539 -32.624  1.00  0.00     0.094 A 
HETATM   18  C   UNL     1     -14.983   1.743 -32.966  1.00  0.00     0.039 A 
HETATM   19  C   UNL     1     -14.827   0.636 -33.797  1.00  0.00     0.003 A 
HETATM   20  C   UNL     1     -13.567   0.306 -34.279  1.00  0.00     0.002 A 
HETATM   21  C   UNL     1     -12.460   1.089 -33.938  1.00  0.00     0.032 A 
BRANCH  17  22
HETATM   22  O   UNL     1     -13.969   3.609 -31.761  1.00  0.00    -0.354 OA
HETATM   23  C   UNL     1     -14.611   4.780 -32.244  1.00  0.00     0.210 C 
ENDBRANCH  17  22
ENDBRANCH  13  16
ENDBRANCH   4   8
BRANCH   1  24
HETATM   24  C   UNL     1      -5.463   0.164 -32.600  1.00  0.00     0.257 C 
HETATM   25  N   UNL     1      -5.519  -0.530 -33.781  1.00  0.00    -0.353 N 
HETATM   26  H   UNL     1      -5.570   0.011 -34.646  1.00  0.00     0.163 HD
HETATM   27  O   UNL     1      -5.399  -0.375 -31.498  1.00  0.00    -0.267 OA
BRANCH  25  28
HETATM   28  C   UNL     1      -5.626  -1.979 -33.898  1.00  0.00     0.076 C 
HETATM   29  C   UNL     1      -4.372  -2.593 -34.518  1.00  0.00     0.032 C 
HETATM   30  C   UNL     1      -6.890  -2.420 -34.630  1.00  0.00     0.032 C 
ENDBRANCH  25  28
ENDBRANCH   1  24
BRANCH   6  31
HETATM   31  C   UNL     1      -3.317   4.463 -31.549  1.00  0.00     0.132 C 
BRANCH  31  32
HETATM   32  C   UNL     1      -2.016   4.362 -32.379  1.00  0.00     0.004 C 
HETATM   33  C   UNL     1      -2.181   4.765 -33.854  1.00  0.00     0.006 C 
HETATM   34  C   UNL     1      -2.367   6.267 -34.042  1.00  0.00     0.000 C 
HETATM   35  C   UNL     1      -1.225   7.049 -33.405  1.00  0.00     0.000 C 
HETATM   36  C   UNL     1      -1.045   6.693 -31.933  1.00  0.00     0.000 C 
HETATM   37  C   UNL     1      -0.890   5.186 -31.727  1.00  0.00     0.006 C 
ENDBRANCH  31  32
ENDBRANCH   6  31
TORSDOF 7
ENDMDL
MODEL 3
REMARK VINA RESULT:      -8.7      2.970      4.667
REMARK  7 active torsions:
REMARK  status: ('A' for Active; 'I' for Inactive)
REMARK    1  A    between atoms: C_2  and  N_3 
REMARK       I    between atoms: N_3  and  C_4 
REMARK    2  A    between atoms: C_4  and  C_5 
REMARK    3  A    between atoms: C_8  and  C_9 
REMARK       I    between atoms: C_9  and  N_10 
REMARK    4  A    between atoms: N_13  and  C_14 
REMARK    5  A    between atoms: C_15  and  O_16 
REMARK    6  A    between atoms: N_26  and  C_27 
REMARK    7  A    between atoms: C_27  and  C_28 
ROOT
HETATM    1  C   UNL     1      -7.470   4.228 -32.676  1.00  0.00     0.098 A 
HETATM    2  C   UNL     1      -6.335   5.014 -33.242  1.00  0.00     0.206 A 
HETATM    3  O   UNL     1      -6.187   6.202 -32.959  1.00  0.00    -0.286 OA
HETATM    4  C   UNL     1      -5.409   4.316 -34.178  1.00  0.00     0.098 A 
HETATM    5  C   UNL     1      -5.709   3.054 -34.525  1.00  0.00     0.111 A 
HETATM    6  N   UNL     1      -6.828   2.355 -34.089  1.00  0.00    -0.364 N 
HETATM    7  C   UNL     1      -7.642   2.981 -33.148  1.00  0.00     0.111 A 
ENDROOT
BRANCH   4   8
HETATM    8  C   UNL     1      -4.076   4.870 -34.498  1.00  0.00     0.259 C 
HETATM    9  N   UNL     1      -3.002   4.604 -33.671  1.00  0.00    -0.345 N 
HETATM   10  C   UNL     1      -1.752   5.337 -33.897  1.00  0.00     0.146 C 
HETATM   11  C   UNL     1      -2.993   3.849 -32.408  1.00  0.00     0.146 C 
HETATM   12  C   UNL     1      -1.500   6.324 -32.743  1.00  0.00     0.143 C 
HETATM   13  N   UNL     1      -1.489   5.591 -31.447  1.00  0.00    -0.376 N 
HETATM   14  C   UNL     1      -2.711   4.791 -31.210  1.00  0.00     0.143 C 
HETATM   15  O   UNL     1      -3.983   5.607 -35.480  1.00  0.00    -0.267 OA
BRANCH  13  16
HETATM   16  C   UNL     1      -0.967   6.368 -30.388  1.00  0.00     0.064 A 
HETATM   17  C   UNL     1       0.121   5.895 -29.605  1.00  0.00     0.094 A 
HETATM   18  C   UNL     1       0.649   6.681 -28.569  1.00  0.00     0.039 A 
HETATM   19  C   UNL     1       0.117   7.940 -28.295  1.00  0.00     0.003 A 
HETATM   20  C   UNL     1      -0.953   8.415 -29.041  1.00  0.00     0.002 A 
HETATM   21  C   UNL     1      -1.491   7.636 -30.071  1.00  0.00     0.032 A 
BRANCH  17  22
HETATM   22  O   UNL     1       0.571   4.622 -29.880  1.00  0.00    -0.354 OA
HETATM   23  C   UNL     1       1.678   4.501 -30.762  1.00  0.00     0.210 C 
ENDBRANCH  17  22
ENDBRANCH  13  16
ENDBRANCH   4   8
BRANCH   1  24
HETATM   24  C   UNL     1      -8.390   4.716 -31.606  1.00  0.00     0.257 C 
HETATM   25  N   UNL     1      -7.849   5.634 -30.742  1.00  0.00    -0.353 N 
HETATM   26  H   UNL     1      -6.886   5.930 -30.908  1.00  0.00     0.163 HD
HETATM   27  O   UNL     1      -9.536   4.285 -31.509  1.00  0.00    -0.267 OA
BRANCH  25  28
HETATM   28  C   UNL     1      -8.501   6.139 -29.540  1.00  0.00     0.076 C 
HETATM   29  C   UNL     1      -8.927   7.597 -29.694  1.00  0.00     0.032 C 
HETATM   30  C   UNL     1      -7.663   5.928 -28.282  1.00  0.00     0.032 C 
ENDBRANCH  25  28
ENDBRANCH   1  24
BRANCH   6  31
HETATM   31  C   UNL     1      -7.122   0.974 -34.536  1.00  0.00     0.132 C 
BRANCH  31  32
HETATM   32  C   UNL     1      -7.055  -0.074 -33.400  1.00  0.00     0.004 C 
HETATM   33  C   UNL     1      -7.368  -1.509 -33.854  1.00  0.00     0.006 C 
HETATM   34  C   UNL     1      -6.254  -2.123 -34.696  1.00  0.00     0.000 C 
HETATM   35  C   UNL     1      -4.919  -2.081 -33.961  1.00  0.00     0.000 C 
HETATM   36  C   UNL     1      -4.563  -0.666 -33.515  1.00  0.00     0.000 C 
HETATM   37  C   UNL     1      -5.685  -0.027 -32.697  1.00  0.00     0.006 C 
ENDBRANCH  31  32
ENDBRANCH   6  31
TORSDOF 7
ENDMDL
MODEL 4
REMARK VINA RESULT:      -8.5      1.964      5.234
REMARK  7 active torsions:
REMARK  status: ('A' for Active; 'I' for Inactive)
REMARK    1  A    between atoms: C_2  and  N_3 
REMARK       I    between atoms: N_3  and  C_4 
REMARK    2  A    between atoms: C_4  and  C_5 
REMARK    3  A    between atoms: C_8  and  C_9 
REMARK       I    between atoms: C_9  and  N_10 
REMARK    4  A    between atoms: N_13  and  C_14 
REMARK    5  A    between atoms: C_15  and  O_16 
REMARK    6  A    between atoms: N_26  and  C_27 
REMARK    7  A    between atoms: C_27  and  C_28 
ROOT
HETATM    1  C   UNL     1      -6.868   0.021 -32.992  1.00  0.00     0.098 A 
HETATM    2  C   UNL     1      -6.540   0.968 -31.888  1.00  0.00     0.206 A 
HETATM    3  O   UNL     1      -5.412   0.998 -31.397  1.00  0.00    -0.286 OA
HETATM    4  C   UNL     1      -7.630   1.854 -31.388  1.00  0.00     0.098 A 
HETATM    5  C   UNL     1      -8.859   1.676 -31.897  1.00  0.00     0.111 A 
HETATM    6  N   UNL     1      -9.195   0.717 -32.846  1.00  0.00    -0.364 N 
HETATM    7  C   UNL     1      -8.157  -0.049 -33.372  1.00  0.00     0.111 A 
ENDROOT
BRANCH   4   8
HETATM    8  C   UNL     1      -7.335   3.056 -30.580  1.00  0.00     0.259 C 
HETATM    9  N   UNL     1      -6.750   4.158 -31.171  1.00  0.00    -0.345 N 
HETATM   10  C   UNL     1      -6.279   5.245 -30.305  1.00  0.00     0.146 C 
HETATM   11  C   UNL     1      -6.294   4.308 -32.563  1.00  0.00     0.146 C 
HETATM   12  C   UNL     1      -4.741   5.297 -30.310  1.00  0.00     0.143 C 
HETATM   13  N   UNL     1      -4.246   5.445 -31.707  1.00  0.00    -0.376 N 
HETATM   14  C   UNL     1      -4.748   4.400 -32.626  1.00  0.00     0.143 C 
HETATM   15  O   UNL     1      -7.579   3.009 -29.374  1.00  0.00    -0.267 OA
BRANCH  13  16
HETATM   16  C   UNL     1      -2.881   5.804 -31.764  1.00  0.00     0.064 A 
HETATM   17  C   UNL     1      -2.488   7.169 -31.820  1.00  0.00     0.094 A 
HETATM   18  C   UNL     1      -1.130   7.519 -31.855  1.00  0.00     0.039 A 
HETATM   19  C   UNL     1      -0.144   6.535 -31.830  1.00  0.00     0.003 A 
HETATM   20  C   UNL     1      -0.507   5.195 -31.786  1.00  0.00     0.002 A 
HETATM   21  C   UNL     1      -1.859   4.836 -31.759  1.00  0.00     0.032 A 
BRANCH  17  22
HETATM   22  O   UNL     1      -3.501   8.099 -31.900  1.00  0.00    -0.354 OA
HETATM   23  C   UNL     1      -3.652   8.991 -30.805  1.00  0.00     0.210 C 
ENDBRANCH  17  22
ENDBRANCH  13  16
ENDBRANCH   4   8
BRANCH   1  24
HETATM   24  C   UNL     1      -5.868  -0.815 -33.720  1.00  0.00     0.257 C 
HETATM   25  N   UNL     1      -6.331  -2.025 -34.169  1.00  0.00    -0.353 N 
HETATM   26  H   UNL     1      -7.313  -2.249 -33.999  1.00  0.00     0.163 HD
HETATM   27  O   UNL     1      -4.709  -0.435 -33.866  1.00  0.00    -0.267 OA
BRANCH  25  28
HETATM   28  C   UNL     1      -5.508  -3.066 -34.771  1.00  0.00     0.076 C 
HETATM   29  C   UNL     1      -6.339  -4.279 -35.186  1.00  0.00     0.032 C 
HETATM   30  C   UNL     1      -4.328  -3.468 -33.891  1.00  0.00     0.032 C 
ENDBRANCH  25  28
ENDBRANCH   1  24
BRANCH   6  31
HETATM   31  C   UNL     1     -10.579   0.548 -33.343  1.00  0.00     0.132 C 
BRANCH  31  32
HETATM   32  C   UNL     1     -11.001   1.615 -34.380  1.00  0.00     0.004 C 
HETATM   33  C   UNL     1     -12.318   1.296 -35.107  1.00  0.00     0.006 C 
HETATM   34  C   UNL     1     -13.544   1.456 -34.214  1.00  0.00     0.000 C 
HETATM   35  C   UNL     1     -13.603   2.850 -33.601  1.00  0.00     0.000 C 
HETATM   36  C   UNL     1     -12.321   3.194 -32.850  1.00  0.00     0.000 C 
HETATM   37  C   UNL     1     -11.082   3.007 -33.725  1.00  0.00     0.006 C 
ENDBRANCH  31  32
ENDBRANCH   6  31
TORSDOF 7
ENDMDL
MODEL 5
REMARK VINA RESULT:      -8.5      2.924      4.471
REMARK  7 active torsions:
REMARK  status: ('A' for Active; 'I' for Inactive)
REMARK    1  A    between atoms: C_2  and  N_3 
REMARK       I    between atoms: N_3  and  C_4 
REMARK    2  A    between atoms: C_4  and  C_5 
REMARK    3  A    between atoms: C_8  and  C_9 
REMARK       I    between atoms: C_9  and  N_10 
REMARK    4  A    between atoms: N_13  and  C_14 
REMARK    5  A    between atoms: C_15  and  O_16 
REMARK    6  A    between atoms: N_26  and  C_27 
REMARK    7  A    between atoms: C_27  and  C_28 
ROOT
HETATM    1  C   UNL     1      -7.317   4.384 -32.629  1.00  0.00     0.098 A 
HETATM    2  C   UNL     1      -6.177   5.169 -33.183  1.00  0.00     0.206 A 
HETATM    3  O   UNL     1      -6.027   6.355 -32.890  1.00  0.00    -0.286 OA
HETATM    4  C   UNL     1      -5.247   4.476 -34.119  1.00  0.00     0.098 A 
HETATM    5  C   UNL     1      -5.548   3.217 -34.477  1.00  0.00     0.111 A 
HETATM    6  N   UNL     1      -6.672   2.518 -34.052  1.00  0.00    -0.364 N 
HETATM    7  C   UNL     1      -7.490   3.140 -33.111  1.00  0.00     0.111 A 
ENDROOT
BRANCH   4   8
HETATM    8  C   UNL     1      -3.910   5.028 -34.426  1.00  0.00     0.259 C 
HETATM    9  N   UNL     1      -2.870   4.855 -33.535  1.00  0.00    -0.345 N 
HETATM   10  C   UNL     1      -1.623   5.592 -33.768  1.00  0.00     0.146 C 
HETATM   11  C   UNL     1      -2.904   4.210 -32.212  1.00  0.00     0.146 C 
HETATM   12  C   UNL     1      -1.441   6.677 -32.693  1.00  0.00     0.143 C 
HETATM   13  N   UNL     1      -1.475   6.057 -31.339  1.00  0.00    -0.376 N 
HETATM   14  C   UNL     1      -2.692   5.255 -31.088  1.00  0.00     0.143 C 
HETATM   15  O   UNL     1      -3.786   5.681 -35.463  1.00  0.00    -0.267 OA
BRANCH  13  16
HETATM   16  C   UNL     1      -1.014   6.931 -30.329  1.00  0.00     0.064 A 
HETATM   17  C   UNL     1      -1.829   7.999 -29.863  1.00  0.00     0.094 A 
HETATM   18  C   UNL     1      -1.373   8.850 -28.844  1.00  0.00     0.039 A 
HETATM   19  C   UNL     1      -0.118   8.659 -28.270  1.00  0.00     0.003 A 
HETATM   20  C   UNL     1       0.697   7.628 -28.720  1.00  0.00     0.002 A 
HETATM   21  C   UNL     1       0.255   6.779 -29.740  1.00  0.00     0.032 A 
BRANCH  17  22
HETATM   22  O   UNL     1      -3.035   8.179 -30.502  1.00  0.00    -0.354 OA
HETATM   23  C   UNL     1      -3.518   9.510 -30.616  1.00  0.00     0.210 C 
ENDBRANCH  17  22
ENDBRANCH  13  16
ENDBRANCH   4   8
BRANCH   1  24
HETATM   24  C   UNL     1      -8.241   4.866 -31.561  1.00  0.00     0.257 C 
HETATM   25  N   UNL     1      -7.645   5.559 -30.538  1.00  0.00    -0.353 N 
HETATM   26  H   UNL     1      -6.637   5.713 -30.596  1.00  0.00     0.163 HD
HETATM   27  O   UNL     1      -9.444   4.619 -31.603  1.00  0.00    -0.267 OA
BRANCH  25  28
HETATM   28  C   UNL     1      -8.315   5.997 -29.321  1.00  0.00     0.076 C 
HETATM   29  C   UNL     1      -8.875   7.411 -29.456  1.00  0.00     0.032 C 
HETATM   30  C   UNL     1      -7.435   5.857 -28.081  1.00  0.00     0.032 C 
ENDBRANCH  25  28
ENDBRANCH   1  24
BRANCH   6  31
HETATM   31  C   UNL     1      -6.967   1.142 -34.510  1.00  0.00     0.132 C 
BRANCH  31  32
HETATM   32  C   UNL     1      -6.959   0.093 -33.373  1.00  0.00     0.004 C 
HETATM   33  C   UNL     1      -7.379  -1.317 -33.820  1.00  0.00     0.006 C 
HETATM   34  C   UNL     1      -6.324  -2.010 -34.674  1.00  0.00     0.000 C 
HETATM   35  C   UNL     1      -4.979  -2.061 -33.958  1.00  0.00     0.000 C 
HETATM   36  C   UNL     1      -4.517  -0.675 -33.520  1.00  0.00     0.000 C 
HETATM   37  C   UNL     1      -5.580   0.043 -32.689  1.00  0.00     0.006 C 
ENDBRANCH  31  32
ENDBRANCH   6  31
TORSDOF 7
ENDMDL
MODEL 6
REMARK VINA RESULT:      -8.2     17.390     19.803
REMARK  7 active torsions:
REMARK  status: ('A' for Active; 'I' for Inactive)
REMARK    1  A    between atoms: C_2  and  N_3 
REMARK       I    between atoms: N_3  and  C_4 
REMARK    2  A    between atoms: C_4  and  C_5 
REMARK    3  A    between atoms: C_8  and  C_9 
REMARK       I    between atoms: C_9  and  N_10 
REMARK    4  A    between atoms: N_13  and  C_14 
REMARK    5  A    between atoms: C_15  and  O_16 
REMARK    6  A    between atoms: N_26  and  C_27 
REMARK    7  A    between atoms: C_27  and  C_28 
ROOT
HETATM    1  C   UNL     1      -4.821 -13.754 -37.543  1.00  0.00     0.098 A 
HETATM    2  C   UNL     1      -5.128 -14.999 -36.781  1.00  0.00     0.206 A 
HETATM    3  O   UNL     1      -4.229 -15.764 -36.435  1.00  0.00    -0.286 OA
HETATM    4  C   UNL     1      -6.558 -15.293 -36.480  1.00  0.00     0.098 A 
HETATM    5  C   UNL     1      -7.484 -14.469 -36.995  1.00  0.00     0.111 A 
HETATM    6  N   UNL     1      -7.210 -13.370 -37.801  1.00  0.00    -0.364 N 
HETATM    7  C   UNL     1      -5.870 -13.051 -38.007  1.00  0.00     0.111 A 
ENDROOT
BRANCH   4   8
HETATM    8  C   UNL     1      -6.940 -16.272 -35.441  1.00  0.00     0.259 C 
HETATM    9  N   UNL     1      -6.945 -15.900 -34.111  1.00  0.00    -0.345 N 
HETATM   10  C   UNL     1      -7.121 -16.946 -33.096  1.00  0.00     0.146 C 
HETATM   11  C   UNL     1      -6.547 -14.609 -33.527  1.00  0.00     0.146 C 
HETATM   12  C   UNL     1      -5.812 -17.148 -32.313  1.00  0.00     0.143 C 
HETATM   13  N   UNL     1      -5.378 -15.857 -31.711  1.00  0.00    -0.376 N 
HETATM   14  C   UNL     1      -5.247 -14.761 -32.697  1.00  0.00     0.143 C 
HETATM   15  O   UNL     1      -7.195 -17.421 -35.803  1.00  0.00    -0.267 OA
BRANCH  13  16
HETATM   16  C   UNL     1      -4.368 -16.023 -30.738  1.00  0.00     0.064 A 
HETATM   17  C   UNL     1      -4.695 -16.385 -29.403  1.00  0.00     0.094 A 
HETATM   18  C   UNL     1      -3.685 -16.569 -28.446  1.00  0.00     0.039 A 
HETATM   19  C   UNL     1      -2.345 -16.406 -28.792  1.00  0.00     0.003 A 
HETATM   20  C   UNL     1      -2.006 -16.042 -30.088  1.00  0.00     0.002 A 
HETATM   21  C   UNL     1      -3.005 -15.849 -31.047  1.00  0.00     0.032 A 
BRANCH  17  22
HETATM   22  O   UNL     1      -6.036 -16.477 -29.100  1.00  0.00    -0.354 OA
HETATM   23  C   UNL     1      -6.498 -17.712 -28.571  1.00  0.00     0.210 C 
ENDBRANCH  17  22
ENDBRANCH  13  16
ENDBRANCH   4   8
BRANCH   1  24
HETATM   24  C   UNL     1      -3.447 -13.224 -37.786  1.00  0.00     0.257 C 
HETATM   25  N   UNL     1      -2.530 -14.149 -38.216  1.00  0.00    -0.353 N 
HETATM   26  H   UNL     1      -2.855 -15.106 -38.358  1.00  0.00     0.163 HD
HETATM   27  O   UNL     1      -3.176 -12.044 -37.580  1.00  0.00    -0.267 OA
BRANCH  25  28
HETATM   28  C   UNL     1      -1.103 -13.901 -38.376  1.00  0.00     0.076 C 
HETATM   29  C   UNL     1      -0.695 -13.858 -39.847  1.00  0.00     0.032 C 
HETATM   30  C   UNL     1      -0.241 -14.880 -37.583  1.00  0.00     0.032 C 
ENDBRANCH  25  28
ENDBRANCH   1  24
BRANCH   6  31
HETATM   31  C   UNL     1      -8.280 -12.518 -38.368  1.00  0.00     0.132 C 
BRANCH  31  32
HETATM   32  C   UNL     1      -8.391 -12.603 -39.908  1.00  0.00     0.004 C 
HETATM   33  C   UNL     1      -8.334 -14.036 -40.462  1.00  0.00     0.006 C 
HETATM   34  C   UNL     1      -9.599 -14.837 -40.172  1.00  0.00     0.000 C 
HETATM   35  C   UNL     1     -10.839 -14.118 -40.693  1.00  0.00     0.000 C 
HETATM   36  C   UNL     1     -10.943 -12.698 -40.145  1.00  0.00     0.000 C 
HETATM   37  C   UNL     1      -9.668 -11.895 -40.401  1.00  0.00     0.006 C 
ENDBRANCH  31  32
ENDBRANCH   6  31
TORSDOF 7
ENDMDL
MODEL 7
REMARK VINA RESULT:      -8.0      2.808      8.532
REMARK  7 active torsions:
REMARK  status: ('A' for Active; 'I' for Inactive)
REMARK    1  A    between atoms: C_2  and  N_3 
REMARK       I    between atoms: N_3  and  C_4 
REMARK    2  A    between atoms: C_4  and  C_5 
REMARK    3  A    between atoms: C_8  and  C_9 
REMARK       I    between atoms: C_9  and  N_10 
REMARK    4  A    between atoms: N_13  and  C_14 
REMARK    5  A    between atoms: C_15  and  O_16 
REMARK    6  A    between atoms: N_26  and  C_27 
REMARK    7  A    between atoms: C_27  and  C_28 
ROOT
HETATM    1  C   UNL     1      -6.237   5.928 -29.447  1.00  0.00     0.098 A 
HETATM    2  C   UNL     1      -7.083   5.053 -30.310  1.00  0.00     0.206 A 
HETATM    3  O   UNL     1      -8.266   4.854 -30.038  1.00  0.00    -0.286 OA
HETATM    4  C   UNL     1      -6.437   4.412 -31.490  1.00  0.00     0.098 A 
HETATM    5  C   UNL     1      -5.115   4.588 -31.648  1.00  0.00     0.111 A 
HETATM    6  N   UNL     1      -4.301   5.310 -30.784  1.00  0.00    -0.364 N 
HETATM    7  C   UNL     1      -4.924   5.977 -29.731  1.00  0.00     0.111 A 
ENDROOT
BRANCH   4   8
HETATM    8  C   UNL     1      -7.240   3.844 -32.593  1.00  0.00     0.259 C 
HETATM    9  N   UNL     1      -7.686   2.539 -32.522  1.00  0.00    -0.345 N 
HETATM   10  C   UNL     1      -8.293   1.944 -33.717  1.00  0.00     0.146 C 
HETATM   11  C   UNL     1      -7.420   1.544 -31.470  1.00  0.00     0.146 C 
HETATM   12  C   UNL     1      -7.368   0.860 -34.296  1.00  0.00     0.143 C 
HETATM   13  N   UNL     1      -7.074  -0.163 -33.255  1.00  0.00    -0.376 N 
HETATM   14  C   UNL     1      -6.515   0.407 -32.008  1.00  0.00     0.143 C 
HETATM   15  O   UNL     1      -7.441   4.554 -33.580  1.00  0.00    -0.267 OA
BRANCH  13  16
HETATM   16  C   UNL     1      -6.491  -1.333 -33.790  1.00  0.00     0.064 A 
HETATM   17  C   UNL     1      -5.078  -1.478 -33.856  1.00  0.00     0.094 A 
HETATM   18  C   UNL     1      -4.506  -2.652 -34.370  1.00  0.00     0.039 A 
HETATM   19  C   UNL     1      -5.313  -3.696 -34.818  1.00  0.00     0.003 A 
HETATM   20  C   UNL     1      -6.695  -3.568 -34.772  1.00  0.00     0.002 A 
HETATM   21  C   UNL     1      -7.275  -2.399 -34.269  1.00  0.00     0.032 A 
BRANCH  17  22
HETATM   22  O   UNL     1      -4.328  -0.396 -33.453  1.00  0.00    -0.354 OA
HETATM   23  C   UNL     1      -3.130  -0.666 -32.740  1.00  0.00     0.210 C 
ENDBRANCH  17  22
ENDBRANCH  13  16
ENDBRANCH   4   8
BRANCH   1  24
HETATM   24  C   UNL     1      -6.754   6.773 -28.329  1.00  0.00     0.257 C 
HETATM   25  N   UNL     1      -7.951   7.397 -28.571  1.00  0.00    -0.353 N 
HETATM   26  H   UNL     1      -8.403   7.221 -29.470  1.00  0.00     0.163 HD
HETATM   27  O   UNL     1      -6.117   6.906 -27.287  1.00  0.00    -0.267 OA
BRANCH  25  28
HETATM   28  C   UNL     1      -8.575   8.380 -27.695  1.00  0.00     0.076 C 
HETATM   29  C   UNL     1     -10.073   8.131 -27.537  1.00  0.00     0.032 C 
HETATM   30  C   UNL     1      -8.286   9.817 -28.122  1.00  0.00     0.032 C 
ENDBRANCH  25  28
ENDBRANCH   1  24
BRANCH   6  31
HETATM   31  C   UNL     1      -2.841   5.438 -30.994  1.00  0.00     0.132 C 
BRANCH  31  32
HETATM   32  C   UNL     1      -2.265   6.799 -30.538  1.00  0.00     0.004 C 
HETATM   33  C   UNL     1      -1.186   6.689 -29.448  1.00  0.00     0.006 C 
HETATM   34  C   UNL     1       0.133   6.131 -29.971  1.00  0.00     0.000 C 
HETATM   35  C   UNL     1       0.652   6.951 -31.146  1.00  0.00     0.000 C 
HETATM   36  C   UNL     1      -0.383   7.063 -32.260  1.00  0.00     0.000 C 
HETATM   37  C   UNL     1      -1.721   7.591 -31.743  1.00  0.00     0.006 C 
ENDBRANCH  31  32
ENDBRANCH   6  31
TORSDOF 7
ENDMDL
MODEL 8
REMARK VINA RESULT:      -8.0      3.289      9.348
REMARK  7 active torsions:
REMARK  status: ('A' for Active; 'I' for Inactive)
REMARK    1  A    between atoms: C_2  and  N_3 
REMARK       I    between atoms: N_3  and  C_4 
REMARK    2  A    between atoms: C_4  and  C_5 
REMARK    3  A    between atoms: C_8  and  C_9 
REMARK       I    between atoms: C_9  and  N_10 
REMARK    4  A    between atoms: N_13  and  C_14 
REMARK    5  A    between atoms: C_15  and  O_16 
REMARK    6  A    between atoms: N_26  and  C_27 
REMARK    7  A    between atoms: C_27  and  C_28 
ROOT
HETATM    1  C   UNL     1      -4.331   7.623 -28.264  1.00  0.00     0.098 A 
HETATM    2  C   UNL     1      -5.377   6.562 -28.192  1.00  0.00     0.206 A 
HETATM    3  O   UNL     1      -5.956   6.318 -27.134  1.00  0.00    -0.286 OA
HETATM    4  C   UNL     1      -5.674   5.796 -29.436  1.00  0.00     0.098 A 
HETATM    5  C   UNL     1      -4.915   6.045 -30.516  1.00  0.00     0.111 A 
HETATM    6  N   UNL     1      -3.864   6.954 -30.556  1.00  0.00    -0.364 N 
HETATM    7  C   UNL     1      -3.648   7.727 -29.418  1.00  0.00     0.111 A 
ENDROOT
BRANCH   4   8
HETATM    8  C   UNL     1      -6.914   5.003 -29.575  1.00  0.00     0.259 C 
HETATM    9  N   UNL     1      -6.843   3.633 -29.727  1.00  0.00    -0.345 N 
HETATM   10  C   UNL     1      -8.070   2.907 -30.074  1.00  0.00     0.146 C 
HETATM   11  C   UNL     1      -5.640   2.791 -29.835  1.00  0.00     0.146 C 
HETATM   12  C   UNL     1      -7.978   2.370 -31.513  1.00  0.00     0.143 C 
HETATM   13  N   UNL     1      -6.767   1.516 -31.658  1.00  0.00    -0.376 N 
HETATM   14  C   UNL     1      -5.514   2.196 -31.260  1.00  0.00     0.143 C 
HETATM   15  O   UNL     1      -7.983   5.613 -29.603  1.00  0.00    -0.267 OA
BRANCH  13  16
HETATM   16  C   UNL     1      -6.780   0.751 -32.845  1.00  0.00     0.064 A 
HETATM   17  C   UNL     1      -6.099  -0.495 -32.917  1.00  0.00     0.094 A 
HETATM   18  C   UNL     1      -6.134  -1.259 -34.093  1.00  0.00     0.039 A 
HETATM   19  C   UNL     1      -6.841  -0.812 -35.207  1.00  0.00     0.003 A 
HETATM   20  C   UNL     1      -7.504   0.407 -35.161  1.00  0.00     0.002 A 
HETATM   21  C   UNL     1      -7.468   1.180 -33.996  1.00  0.00     0.032 A 
BRANCH  17  22
HETATM   22  O   UNL     1      -5.368  -0.862 -31.808  1.00  0.00    -0.354 OA
HETATM   23  C   UNL     1      -4.097  -1.454 -32.035  1.00  0.00     0.210 C 
ENDBRANCH  17  22
ENDBRANCH  13  16
ENDBRANCH   4   8
BRANCH   1  24
HETATM   24  C   UNL     1      -4.025   8.589 -27.168  1.00  0.00     0.257 C 
HETATM   25  N   UNL     1      -2.820   8.402 -26.541  1.00  0.00    -0.353 N 
HETATM   26  H   UNL     1      -2.222   7.647 -26.881  1.00  0.00     0.163 HD
HETATM   27  O   UNL     1      -4.827   9.464 -26.850  1.00  0.00    -0.267 OA
BRANCH  25  28
HETATM   28  C   UNL     1      -2.371   9.121 -25.356  1.00  0.00     0.076 C 
HETATM   29  C   UNL     1      -0.858   9.328 -25.354  1.00  0.00     0.032 C 
HETATM   30  C   UNL     1      -2.852   8.476 -24.058  1.00  0.00     0.032 C 
ENDBRANCH  25  28
ENDBRANCH   1  24
BRANCH   6  31
HETATM   31  C   UNL     1      -3.042   7.158 -31.770  1.00  0.00     0.132 C 
BRANCH  31  32
HETATM   32  C   UNL     1      -1.784   6.259 -31.827  1.00  0.00     0.004 C 
HETATM   33  C   UNL     1      -2.068   4.812 -32.262  1.00  0.00     0.006 C 
HETATM   34  C   UNL     1      -2.410   4.692 -33.743  1.00  0.00     0.000 C 
HETATM   35  C   UNL     1      -1.317   5.300 -34.613  1.00  0.00     0.000 C 
HETATM   36  C   UNL     1      -1.023   6.746 -34.227  1.00  0.00     0.000 C 
HETATM   37  C   UNL     1      -0.710   6.885 -32.737  1.00  0.00     0.006 C 
ENDBRANCH  31  32
ENDBRANCH   6  31
TORSDOF 7
ENDMDL
MODEL 9
REMARK VINA RESULT:      -7.9      2.335      5.324
REMARK  7 active torsions:
REMARK  status: ('A' for Active; 'I' for Inactive)
REMARK    1  A    between atoms: C_2  and  N_3 
REMARK       I    between atoms: N_3  and  C_4 
REMARK    2  A    between atoms: C_4  and  C_5 
REMARK    3  A    between atoms: C_8  and  C_9 
REMARK       I    between atoms: C_9  and  N_10 
REMARK    4  A    between atoms: N_13  and  C_14 
REMARK    5  A    between atoms: C_15  and  O_16 
REMARK    6  A    between atoms: N_26  and  C_27 
REMARK    7  A    between atoms: C_27  and  C_28 
ROOT
HETATM    1  C   UNL     1      -7.232   1.678 -31.357  1.00  0.00     0.098 A 
HETATM    2  C   UNL     1      -6.834   2.725 -30.372  1.00  0.00     0.206 A 
HETATM    3  O   UNL     1      -5.806   2.607 -29.707  1.00  0.00    -0.286 OA
HETATM    4  C   UNL     1      -7.736   3.900 -30.207  1.00  0.00     0.098 A 
HETATM    5  C   UNL     1      -8.895   3.895 -30.886  1.00  0.00     0.111 A 
HETATM    6  N   UNL     1      -9.323   2.868 -31.719  1.00  0.00    -0.364 N 
HETATM    7  C   UNL     1      -8.438   1.814 -31.936  1.00  0.00     0.111 A 
ENDROOT
BRANCH   4   8
HETATM    8  C   UNL     1      -7.271   5.143 -29.556  1.00  0.00     0.259 C 
HETATM    9  N   UNL     1      -6.397   5.983 -30.217  1.00  0.00    -0.345 N 
HETATM   10  C   UNL     1      -5.793   7.089 -29.466  1.00  0.00     0.146 C 
HETATM   11  C   UNL     1      -5.773   5.791 -31.537  1.00  0.00     0.146 C 
HETATM   12  C   UNL     1      -4.289   6.831 -29.261  1.00  0.00     0.143 C 
HETATM   13  N   UNL     1      -3.628   6.627 -30.580  1.00  0.00    -0.376 N 
HETATM   14  C   UNL     1      -4.248   5.558 -31.393  1.00  0.00     0.143 C 
HETATM   15  O   UNL     1      -7.646   5.360 -28.403  1.00  0.00    -0.267 OA
BRANCH  13  16
HETATM   16  C   UNL     1      -2.219   6.690 -30.496  1.00  0.00     0.064 A 
HETATM   17  C   UNL     1      -1.414   6.574 -31.663  1.00  0.00     0.094 A 
HETATM   18  C   UNL     1      -0.016   6.658 -31.576  1.00  0.00     0.039 A 
HETATM   19  C   UNL     1       0.605   6.863 -30.345  1.00  0.00     0.003 A 
HETATM   20  C   UNL     1      -0.163   6.967 -29.193  1.00  0.00     0.002 A 
HETATM   21  C   UNL     1      -1.557   6.877 -29.268  1.00  0.00     0.032 A 
BRANCH  17  22
HETATM   22  O   UNL     1      -2.075   6.316 -32.844  1.00  0.00    -0.354 OA
HETATM   23  C   UNL     1      -1.885   7.238 -33.908  1.00  0.00     0.210 C 
ENDBRANCH  17  22
ENDBRANCH  13  16
ENDBRANCH   4   8
BRANCH   1  24
HETATM   24  C   UNL     1      -6.374   0.527 -31.766  1.00  0.00     0.257 C 
HETATM   25  N   UNL     1      -5.856   0.603 -33.034  1.00  0.00    -0.353 N 
HETATM   26  H   UNL     1      -6.070   1.437 -33.583  1.00  0.00     0.163 HD
HETATM   27  O   UNL     1      -6.185  -0.424 -31.011  1.00  0.00    -0.267 OA
BRANCH  25  28
HETATM   28  C   UNL     1      -5.118  -0.460 -33.702  1.00  0.00     0.076 C 
HETATM   29  C   UNL     1      -6.005  -1.667 -34.002  1.00  0.00     0.032 C 
HETATM   30  C   UNL     1      -3.854  -0.865 -32.948  1.00  0.00     0.032 C 
ENDBRANCH  25  28
ENDBRANCH   1  24
BRANCH   6  31
HETATM   31  C   UNL     1     -10.630   2.906 -32.413  1.00  0.00     0.132 C 
BRANCH  31  32
HETATM   32  C   UNL     1     -10.649   2.117 -33.744  1.00  0.00     0.004 C 
HETATM   33  C   UNL     1     -11.420   0.788 -33.673  1.00  0.00     0.006 C 
HETATM   34  C   UNL     1     -12.930   0.980 -33.586  1.00  0.00     0.000 C 
HETATM   35  C   UNL     1     -13.446   1.829 -34.742  1.00  0.00     0.000 C 
HETATM   36  C   UNL     1     -12.721   3.168 -34.831  1.00  0.00     0.000 C 
HETATM   37  C   UNL     1     -11.204   2.990 -34.886  1.00  0.00     0.006 C 
ENDBRANCH  31  32
ENDBRANCH   6  31
TORSDOF 7
ENDMDL
MODEL 10
REMARK VINA RESULT:      -7.7      2.626      5.992
REMARK  7 active torsions:
REMARK  status: ('A' for Active; 'I' for Inactive)
REMARK    1  A    between atoms: C_2  and  N_3 
REMARK       I    between atoms: N_3  and  C_4 
REMARK    2  A    between atoms: C_4  and  C_5 
REMARK    3  A    between atoms: C_8  and  C_9 
REMARK       I    between atoms: C_9  and  N_10 
REMARK    4  A    between atoms: N_13  and  C_14 
REMARK    5  A    between atoms: C_15  and  O_16 
REMARK    6  A    between atoms: N_26  and  C_27 
REMARK    7  A    between atoms: C_27  and  C_28 
ROOT
HETATM    1  C   UNL     1      -6.257   1.608 -32.795  1.00  0.00     0.098 A 
HETATM    2  C   UNL     1      -5.053   2.486 -32.868  1.00  0.00     0.206 A 
HETATM    3  O   UNL     1      -3.932   2.038 -32.632  1.00  0.00    -0.286 OA
HETATM    4  C   UNL     1      -5.262   3.921 -33.209  1.00  0.00     0.098 A 
HETATM    5  C   UNL     1      -6.527   4.353 -33.336  1.00  0.00     0.111 A 
HETATM    6  N   UNL     1      -7.657   3.564 -33.158  1.00  0.00    -0.364 N 
HETATM    7  C   UNL     1      -7.455   2.206 -32.925  1.00  0.00     0.111 A 
ENDROOT
BRANCH   4   8
HETATM    8  C   UNL     1      -4.144   4.775 -33.664  1.00  0.00     0.259 C 
HETATM    9  N   UNL     1      -3.191   5.204 -32.761  1.00  0.00    -0.345 N 
HETATM   10  C   UNL     1      -2.223   6.216 -33.198  1.00  0.00     0.146 C 
HETATM   11  C   UNL     1      -3.146   4.970 -31.308  1.00  0.00     0.146 C 
HETATM   12  C   UNL     1      -2.493   7.551 -32.483  1.00  0.00     0.143 C 
HETATM   13  N   UNL     1      -2.459   7.349 -31.008  1.00  0.00    -0.376 N 
HETATM   14  C   UNL     1      -3.381   6.292 -30.534  1.00  0.00     0.143 C 
HETATM   15  O   UNL     1      -4.133   5.122 -34.845  1.00  0.00    -0.267 OA
BRANCH  13  16
HETATM   16  C   UNL     1      -2.394   8.567 -30.295  1.00  0.00     0.064 A 
HETATM   17  C   UNL     1      -1.560   8.697 -29.150  1.00  0.00     0.094 A 
HETATM   18  C   UNL     1      -1.484   9.915 -28.459  1.00  0.00     0.039 A 
HETATM   19  C   UNL     1      -2.220  11.019 -28.886  1.00  0.00     0.003 A 
HETATM   20  C   UNL     1      -3.049  10.908 -29.994  1.00  0.00     0.002 A 
HETATM   21  C   UNL     1      -3.138   9.696 -30.686  1.00  0.00     0.032 A 
BRANCH  17  22
HETATM   22  O   UNL     1      -0.898   7.561 -28.738  1.00  0.00    -0.354 OA
HETATM   23  C   UNL     1       0.500   7.501 -28.979  1.00  0.00     0.210 C 
ENDBRANCH  17  22
ENDBRANCH  13  16
ENDBRANCH   4   8
BRANCH   1  24
HETATM   24  C   UNL     1      -6.218   0.125 -32.630  1.00  0.00     0.257 C 
HETATM   25  N   UNL     1      -5.675  -0.568 -33.682  1.00  0.00    -0.353 N 
HETATM   26  H   UNL     1      -5.321  -0.027 -34.472  1.00  0.00     0.163 HD
HETATM   27  O   UNL     1      -6.675  -0.414 -31.625  1.00  0.00    -0.267 OA
BRANCH  25  28
HETATM   28  C   UNL     1      -5.664  -2.019 -33.813  1.00  0.00     0.076 C 
HETATM   29  C   UNL     1      -4.325  -2.533 -34.336  1.00  0.00     0.032 C 
HETATM   30  C   UNL     1      -6.831  -2.545 -34.644  1.00  0.00     0.032 C 
ENDBRANCH  25  28
ENDBRANCH   1  24
BRANCH   6  31
HETATM   31  C   UNL     1      -9.028   4.109 -33.278  1.00  0.00     0.132 C 
BRANCH  31  32
HETATM   32  C   UNL     1      -9.861   3.453 -34.405  1.00  0.00     0.004 C 
HETATM   33  C   UNL     1     -10.911   2.449 -33.904  1.00  0.00     0.006 C 
HETATM   34  C   UNL     1     -12.093   3.119 -33.212  1.00  0.00     0.000 C 
HETATM   35  C   UNL     1     -12.745   4.160 -34.115  1.00  0.00     0.000 C 
HETATM   36  C   UNL     1     -11.736   5.189 -34.614  1.00  0.00     0.000 C 
HETATM   37  C   UNL     1     -10.531   4.528 -35.282  1.00  0.00     0.006 C 
ENDBRANCH  31  32
ENDBRANCH   6  31
TORSDOF 7
ENDMDL
