MODEL 1
REMARK VINA RESULT:      -7.9      0.000      0.000
REMARK  6 active torsions:
REMARK  status: ('A' for Active; 'I' for Inactive)
REMARK    1  A    between atoms: C_2  and  N_3 
REMARK    2  A    between atoms: C_5  and  C_6 
REMARK    3  A    between atoms: C_6  and  N_7 
REMARK       I    between atoms: N_7  and  C_8 
REMARK    4  A    between atoms: C_8  and  C_9 
REMARK    5  A    between atoms: C_9  and  C_10 
REMARK    6  A    between atoms: C_11  and  C_12 
ROOT
HETATM    1  C   UNL     1      -4.831  -2.585 -34.009  1.00  0.00     0.005 C 
HETATM    2  C   UNL     1      -6.172  -2.341 -34.318  1.00  0.00     0.069 C 
HETATM    3  N   UNL     1      -6.656  -3.543 -34.770  1.00  0.00    -0.277 N 
HETATM    4  H   UNL     1      -7.567  -3.740 -35.175  1.00  0.00     0.189 HD
HETATM    5  N   UNL     1      -5.811  -4.562 -34.598  1.00  0.00    -0.179 NA
HETATM    6  C   UNL     1      -4.651  -3.975 -34.292  1.00  0.00     0.059 C 
HETATM    7  C   UNL     1      -3.413  -4.800 -34.264  1.00  0.00     0.073 C 
ENDROOT
BRANCH   1   8
HETATM    8  C   UNL     1      -3.800  -1.602 -33.531  1.00  0.00     0.146 C 
BRANCH   8   9
HETATM    9  C   UNL     1      -3.381  -1.815 -32.090  1.00  0.00     0.222 C 
HETATM   10  N   UNL     1      -3.281  -0.769 -31.217  1.00  0.00    -0.359 N 
HETATM   11  H   UNL     1      -2.881  -1.104 -30.344  1.00  0.00     0.162 HD
HETATM   12  O   UNL     1      -3.150  -2.938 -31.640  1.00  0.00    -0.273 OA
BRANCH  10  13
HETATM   13  C   UNL     1      -3.198   0.662 -31.477  1.00  0.00     0.155 C 
BRANCH  13  14
HETATM   14  C   UNL     1      -4.392   1.475 -30.971  1.00  0.00     0.206 C 
HETATM   15  N   UNL     1      -4.164   2.968 -30.783  1.00  0.00    -0.066 N 
HETATM   16  H   UNL     1      -3.572   3.103 -29.946  1.00  0.00     0.280 HD
HETATM   17  C   UNL     1      -5.569   3.440 -30.451  1.00  0.00     0.235 C 
HETATM   18  C   UNL     1      -6.471   2.622 -31.371  1.00  0.00     0.030 C 
HETATM   19  C   UNL     1      -5.651   1.416 -31.822  1.00  0.00     0.036 C 
BRANCH  15  20
HETATM   20  C   UNL     1      -3.573   3.766 -31.928  1.00  0.00     0.231 C 
HETATM   21  C   UNL     1      -2.231   4.372 -31.567  1.00  0.00     0.034 C 
ENDBRANCH  15  20
ENDBRANCH  13  14
ENDBRANCH  10  13
ENDBRANCH   8   9
ENDBRANCH   1   8
BRANCH   2  22
HETATM   22  C   UNL     1      -7.008  -1.140 -34.286  1.00  0.00    -0.007 A 
HETATM   23  C   UNL     1      -6.785  -0.076 -35.169  1.00  0.00     0.015 A 
HETATM   24  C   UNL     1      -7.566   1.083 -35.102  1.00  0.00     0.024 A 
HETATM   25  C   UNL     1      -8.584   1.180 -34.159  1.00  0.00     0.034 A 
HETATM   26 CL   UNL     1      -9.536   2.608 -34.069  1.00  0.00    -0.084 Cl
HETATM   27  C   UNL     1      -8.836   0.125 -33.288  1.00  0.00     0.024 A 
HETATM   28  C   UNL     1      -8.052  -1.031 -33.351  1.00  0.00     0.015 A 
ENDBRANCH   2  22
TORSDOF 6
ENDMDL
MODEL 2
REMARK VINA RESULT:      -7.4      3.401      6.445
REMARK  6 active torsions:
REMARK  status: ('A' for Active; 'I' for Inactive)
REMARK    1  A    between atoms: C_2  and  N_3 
REMARK    2  A    between atoms: C_5  and  C_6 
REMARK    3  A    between atoms: C_6  and  N_7 
REMARK       I    between atoms: N_7  and  C_8 
REMARK    4  A    between atoms: C_8  and  C_9 
REMARK    5  A    between atoms: C_9  and  C_10 
REMARK    6  A    between atoms: C_11  and  C_12 
ROOT
HETATM    1  C   UNL     1      -4.827   1.479 -32.574  1.00  0.00     0.005 C 
HETATM    2  C   UNL     1      -4.445   0.137 -32.655  1.00  0.00     0.069 C 
HETATM    3  N   UNL     1      -3.276   0.057 -31.939  1.00  0.00    -0.277 N 
HETATM    4  H   UNL     1      -2.651  -0.738 -31.848  1.00  0.00     0.189 HD
HETATM    5  N   UNL     1      -2.985   1.169 -31.260  1.00  0.00    -0.179 NA
HETATM    6  C   UNL     1      -3.819   2.084 -31.759  1.00  0.00     0.059 C 
HETATM    7  C   UNL     1      -3.615   3.514 -31.402  1.00  0.00     0.073 C 
ENDROOT
BRANCH   1   8
HETATM    8  C   UNL     1      -6.001   2.146 -33.231  1.00  0.00     0.146 C 
BRANCH   8   9
HETATM    9  C   UNL     1      -7.205   2.289 -32.320  1.00  0.00     0.222 C 
HETATM   10  N   UNL     1      -8.442   1.854 -32.704  1.00  0.00    -0.359 N 
HETATM   11  H   UNL     1      -9.124   2.142 -32.006  1.00  0.00     0.162 HD
HETATM   12  O   UNL     1      -7.110   2.768 -31.190  1.00  0.00    -0.273 OA
BRANCH  10  13
HETATM   13  C   UNL     1      -8.948   1.523 -34.029  1.00  0.00     0.155 C 
BRANCH  13  14
HETATM   14  C   UNL     1     -10.030   2.469 -34.555  1.00  0.00     0.206 C 
HETATM   15  N   UNL     1     -11.358   1.832 -34.940  1.00  0.00    -0.066 N 
HETATM   16  H   UNL     1     -11.225   1.311 -35.822  1.00  0.00     0.280 HD
HETATM   17  C   UNL     1     -12.198   3.063 -35.237  1.00  0.00     0.235 C 
HETATM   18  C   UNL     1     -11.786   4.072 -34.168  1.00  0.00     0.030 C 
HETATM   19  C   UNL     1     -10.439   3.601 -33.625  1.00  0.00     0.036 C 
BRANCH  15  20
HETATM   20  C   UNL     1     -12.049   0.925 -33.941  1.00  0.00     0.231 C 
HETATM   21  C   UNL     1     -13.500   0.677 -34.306  1.00  0.00     0.034 C 
ENDBRANCH  15  20
ENDBRANCH  13  14
ENDBRANCH  10  13
ENDBRANCH   8   9
ENDBRANCH   1   8
BRANCH   2  22
HETATM   22  C   UNL     1      -5.005  -1.027 -33.343  1.00  0.00    -0.007 A 
HETATM   23  C   UNL     1      -4.178  -2.038 -33.849  1.00  0.00     0.015 A 
HETATM   24  C   UNL     1      -4.723  -3.127 -34.538  1.00  0.00     0.024 A 
HETATM   25  C   UNL     1      -6.100  -3.217 -34.715  1.00  0.00     0.034 A 
HETATM   26 CL   UNL     1      -6.769  -4.548 -35.573  1.00  0.00    -0.084 Cl
HETATM   27  C   UNL     1      -6.940  -2.234 -34.201  1.00  0.00     0.024 A 
HETATM   28  C   UNL     1      -6.395  -1.144 -33.516  1.00  0.00     0.015 A 
ENDBRANCH   2  22
TORSDOF 6
ENDMDL
MODEL 3
REMARK VINA RESULT:      -7.4      3.258      5.632
REMARK  6 active torsions:
REMARK  status: ('A' for Active; 'I' for Inactive)
REMARK    1  A    between atoms: C_2  and  N_3 
REMARK    2  A    between atoms: C_5  and  C_6 
REMARK    3  A    between atoms: C_6  and  N_7 
REMARK       I    between atoms: N_7  and  C_8 
REMARK    4  A    between atoms: C_8  and  C_9 
REMARK    5  A    between atoms: C_9  and  C_10 
REMARK    6  A    between atoms: C_11  and  C_12 
ROOT
HETATM    1  C   UNL     1      -7.267   2.585 -31.632  1.00  0.00     0.005 C 
HETATM    2  C   UNL     1      -7.589   1.258 -31.930  1.00  0.00     0.069 C 
HETATM    3  N   UNL     1      -8.830   1.061 -31.376  1.00  0.00    -0.277 N 
HETATM    4  H   UNL     1      -9.354   0.194 -31.305  1.00  0.00     0.189 HD
HETATM    5  N   UNL     1      -9.402   2.181 -30.927  1.00  0.00    -0.179 NA
HETATM    6  C   UNL     1      -8.410   3.075 -30.926  1.00  0.00     0.059 C 
HETATM    7  C   UNL     1      -8.625   4.386 -30.255  1.00  0.00     0.073 C 
ENDROOT
BRANCH   1   8
HETATM    8  C   UNL     1      -5.993   3.317 -31.942  1.00  0.00     0.146 C 
BRANCH   8   9
HETATM    9  C   UNL     1      -4.967   3.248 -30.828  1.00  0.00     0.222 C 
HETATM   10  N   UNL     1      -3.640   3.463 -31.070  1.00  0.00    -0.359 N 
HETATM   11  H   UNL     1      -3.112   3.262 -30.224  1.00  0.00     0.162 HD
HETATM   12  O   UNL     1      -5.291   3.032 -29.660  1.00  0.00    -0.273 OA
BRANCH  10  13
HETATM   13  C   UNL     1      -2.904   3.452 -32.327  1.00  0.00     0.155 C 
BRANCH  13  14
HETATM   14  C   UNL     1      -2.614   4.836 -32.912  1.00  0.00     0.206 C 
HETATM   15  N   UNL     1      -1.791   5.779 -32.046  1.00  0.00    -0.066 N 
HETATM   16  H   UNL     1      -2.386   6.108 -31.268  1.00  0.00     0.280 HD
HETATM   17  C   UNL     1      -1.575   6.941 -33.001  1.00  0.00     0.235 C 
HETATM   18  C   UNL     1      -1.336   6.279 -34.356  1.00  0.00     0.030 C 
HETATM   19  C   UNL     1      -1.887   4.859 -34.247  1.00  0.00     0.036 C 
BRANCH  15  20
HETATM   20  C   UNL     1      -0.476   5.286 -31.476  1.00  0.00     0.231 C 
HETATM   21  C   UNL     1       0.435   6.429 -31.074  1.00  0.00     0.034 C 
ENDBRANCH  15  20
ENDBRANCH  13  14
ENDBRANCH  10  13
ENDBRANCH   8   9
ENDBRANCH   1   8
BRANCH   2  22
HETATM   22  C   UNL     1      -6.871   0.178 -32.608  1.00  0.00    -0.007 A 
HETATM   23  C   UNL     1      -5.627  -0.269 -32.146  1.00  0.00     0.015 A 
HETATM   24  C   UNL     1      -4.933  -1.276 -32.825  1.00  0.00     0.024 A 
HETATM   25  C   UNL     1      -5.485  -1.851 -33.965  1.00  0.00     0.034 A 
HETATM   26 CL   UNL     1      -4.626  -3.079 -34.807  1.00  0.00    -0.084 Cl
HETATM   27  C   UNL     1      -6.730  -1.437 -34.428  1.00  0.00     0.024 A 
HETATM   28  C   UNL     1      -7.421  -0.427 -33.752  1.00  0.00     0.015 A 
ENDBRANCH   2  22
TORSDOF 6
ENDMDL
MODEL 4
REMARK VINA RESULT:      -7.4      3.172      5.033
REMARK  6 active torsions:
REMARK  status: ('A' for Active; 'I' for Inactive)
REMARK    1  A    between atoms: C_2  and  N_3 
REMARK    2  A    between atoms: C_5  and  C_6 
REMARK    3  A    between atoms: C_6  and  N_7 
REMARK       I    between atoms: N_7  and  C_8 
REMARK    4  A    between atoms: C_8  and  C_9 
REMARK    5  A    between atoms: C_9  and  C_10 
REMARK    6  A    between atoms: C_11  and  C_12 
ROOT
HETATM    1  C   UNL     1      -6.203  -2.010 -34.109  1.00  0.00     0.005 C 
HETATM    2  C   UNL     1      -5.300  -1.405 -33.231  1.00  0.00     0.069 C 
HETATM    3  N   UNL     1      -4.204  -2.232 -33.223  1.00  0.00    -0.277 N 
HETATM    4  H   UNL     1      -3.380  -2.173 -32.633  1.00  0.00     0.189 HD
HETATM    5  N   UNL     1      -4.249  -3.192 -34.149  1.00  0.00    -0.179 NA
HETATM    6  C   UNL     1      -5.513  -3.172 -34.579  1.00  0.00     0.059 C 
HETATM    7  C   UNL     1      -5.993  -4.276 -35.453  1.00  0.00     0.073 C 
ENDROOT
BRANCH   1   8
HETATM    8  C   UNL     1      -7.598  -1.569 -34.449  1.00  0.00     0.146 C 
BRANCH   8   9
HETATM    9  C   UNL     1      -7.699  -0.099 -34.806  1.00  0.00     0.222 C 
HETATM   10  N   UNL     1      -8.487   0.754 -34.087  1.00  0.00    -0.359 N 
HETATM   11  H   UNL     1      -8.504   1.659 -34.551  1.00  0.00     0.162 HD
HETATM   12  O   UNL     1      -7.051   0.390 -35.731  1.00  0.00    -0.273 OA
BRANCH  10  13
HETATM   13  C   UNL     1      -9.569   0.467 -33.155  1.00  0.00     0.155 C 
BRANCH  13  14
HETATM   14  C   UNL     1     -10.809   1.349 -33.323  1.00  0.00     0.206 C 
HETATM   15  N   UNL     1     -11.029   2.417 -32.260  1.00  0.00    -0.066 N 
HETATM   16  H   UNL     1     -11.338   1.951 -31.391  1.00  0.00     0.280 HD
HETATM   17  C   UNL     1     -12.214   3.169 -32.843  1.00  0.00     0.235 C 
HETATM   18  C   UNL     1     -11.932   3.220 -34.342  1.00  0.00     0.030 C 
HETATM   19  C   UNL     1     -10.907   2.124 -34.627  1.00  0.00     0.036 C 
BRANCH  15  20
HETATM   20  C   UNL     1      -9.891   3.360 -31.927  1.00  0.00     0.231 C 
HETATM   21  C   UNL     1      -9.276   3.054 -30.575  1.00  0.00     0.034 C 
ENDBRANCH  15  20
ENDBRANCH  13  14
ENDBRANCH  10  13
ENDBRANCH   8   9
ENDBRANCH   1   8
BRANCH   2  22
HETATM   22  C   UNL     1      -5.365  -0.208 -32.391  1.00  0.00    -0.007 A 
HETATM   23  C   UNL     1      -4.680   0.962 -32.742  1.00  0.00     0.015 A 
HETATM   24  C   UNL     1      -4.719   2.088 -31.911  1.00  0.00     0.024 A 
HETATM   25  C   UNL     1      -5.452   2.053 -30.729  1.00  0.00     0.034 A 
HETATM   26 CL   UNL     1      -5.488   3.431 -29.702  1.00  0.00    -0.084 Cl
HETATM   27  C   UNL     1      -6.156   0.907 -30.374  1.00  0.00     0.024 A 
HETATM   28  C   UNL     1      -6.113  -0.219 -31.202  1.00  0.00     0.015 A 
ENDBRANCH   2  22
TORSDOF 6
ENDMDL
MODEL 5
REMARK VINA RESULT:      -7.4      3.309      5.659
REMARK  6 active torsions:
REMARK  status: ('A' for Active; 'I' for Inactive)
REMARK    1  A    between atoms: C_2  and  N_3 
REMARK    2  A    between atoms: C_5  and  C_6 
REMARK    3  A    between atoms: C_6  and  N_7 
REMARK       I    between atoms: N_7  and  C_8 
REMARK    4  A    between atoms: C_8  and  C_9 
REMARK    5  A    between atoms: C_9  and  C_10 
REMARK    6  A    between atoms: C_11  and  C_12 
ROOT
HETATM    1  C   UNL     1      -5.550   2.141 -31.665  1.00  0.00     0.005 C 
HETATM    2  C   UNL     1      -6.016   0.826 -31.597  1.00  0.00     0.069 C 
HETATM    3  N   UNL     1      -6.581   0.713 -30.351  1.00  0.00    -0.277 N 
HETATM    4  H   UNL     1      -6.944  -0.122 -29.902  1.00  0.00     0.189 HD
HETATM    5  N   UNL     1      -6.686   1.875 -29.702  1.00  0.00    -0.179 NA
HETATM    6  C   UNL     1      -5.925   2.713 -30.409  1.00  0.00     0.059 C 
HETATM    7  C   UNL     1      -5.612   4.052 -29.840  1.00  0.00     0.073 C 
ENDROOT
BRANCH   1   8
HETATM    8  C   UNL     1      -4.786   2.795 -32.781  1.00  0.00     0.146 C 
BRANCH   8   9
HETATM    9  C   UNL     1      -5.662   3.588 -33.732  1.00  0.00     0.222 C 
HETATM   10  N   UNL     1      -5.452   4.921 -33.945  1.00  0.00    -0.359 N 
HETATM   11  H   UNL     1      -6.207   5.286 -34.521  1.00  0.00     0.162 HD
HETATM   12  O   UNL     1      -6.568   3.058 -34.374  1.00  0.00    -0.273 OA
BRANCH  10  13
HETATM   13  C   UNL     1      -4.690   5.885 -33.163  1.00  0.00     0.155 C 
BRANCH  13  14
HETATM   14  C   UNL     1      -3.293   6.191 -33.709  1.00  0.00     0.206 C 
HETATM   15  N   UNL     1      -2.151   6.163 -32.702  1.00  0.00    -0.066 N 
HETATM   16  H   UNL     1      -2.225   7.003 -32.104  1.00  0.00     0.280 HD
HETATM   17  C   UNL     1      -0.950   6.336 -33.617  1.00  0.00     0.235 C 
HETATM   18  C   UNL     1      -1.287   5.500 -34.848  1.00  0.00     0.030 C 
HETATM   19  C   UNL     1      -2.799   5.287 -34.827  1.00  0.00     0.036 C 
BRANCH  15  20
HETATM   20  C   UNL     1      -1.992   4.946 -31.813  1.00  0.00     0.231 C 
HETATM   21  C   UNL     1      -0.850   5.106 -30.828  1.00  0.00     0.034 C 
ENDBRANCH  15  20
ENDBRANCH  13  14
ENDBRANCH  10  13
ENDBRANCH   8   9
ENDBRANCH   1   8
BRANCH   2  22
HETATM   22  C   UNL     1      -5.953  -0.311 -32.517  1.00  0.00    -0.007 A 
HETATM   23  C   UNL     1      -4.759  -1.014 -32.720  1.00  0.00     0.015 A 
HETATM   24  C   UNL     1      -4.701  -2.075 -33.631  1.00  0.00     0.024 A 
HETATM   25  C   UNL     1      -5.841  -2.446 -34.337  1.00  0.00     0.034 A 
HETATM   26 CL   UNL     1      -5.767  -3.740 -35.465  1.00  0.00    -0.084 Cl
HETATM   27  C   UNL     1      -7.042  -1.774 -34.133  1.00  0.00     0.024 A 
HETATM   28  C   UNL     1      -7.098  -0.711 -33.227  1.00  0.00     0.015 A 
ENDBRANCH   2  22
TORSDOF 6
ENDMDL
MODEL 6
REMARK VINA RESULT:      -7.4      3.555      6.269
REMARK  6 active torsions:
REMARK  status: ('A' for Active; 'I' for Inactive)
REMARK    1  A    between atoms: C_2  and  N_3 
REMARK    2  A    between atoms: C_5  and  C_6 
REMARK    3  A    between atoms: C_6  and  N_7 
REMARK       I    between atoms: N_7  and  C_8 
REMARK    4  A    between atoms: C_8  and  C_9 
REMARK    5  A    between atoms: C_9  and  C_10 
REMARK    6  A    between atoms: C_11  and  C_12 
ROOT
HETATM    1  C   UNL     1      -5.243   1.578 -32.459  1.00  0.00     0.005 C 
HETATM    2  C   UNL     1      -4.674   0.328 -32.718  1.00  0.00     0.069 C 
HETATM    3  N   UNL     1      -3.413   0.394 -32.179  1.00  0.00    -0.277 N 
HETATM    4  H   UNL     1      -2.666  -0.290 -32.249  1.00  0.00     0.189 HD
HETATM    5  N   UNL     1      -3.200   1.487 -31.442  1.00  0.00    -0.179 NA
HETATM    6  C   UNL     1      -4.232   2.283 -31.734  1.00  0.00     0.059 C 
HETATM    7  C   UNL     1      -4.201   3.697 -31.274  1.00  0.00     0.073 C 
ENDROOT
BRANCH   1   8
HETATM    8  C   UNL     1      -6.592   2.084 -32.884  1.00  0.00     0.146 C 
BRANCH   8   9
HETATM    9  C   UNL     1      -7.684   1.830 -31.864  1.00  0.00     0.222 C 
HETATM   10  N   UNL     1      -8.912   1.362 -32.239  1.00  0.00    -0.359 N 
HETATM   11  H   UNL     1      -9.529   1.368 -31.430  1.00  0.00     0.162 HD
HETATM   12  O   UNL     1      -7.499   2.000 -30.659  1.00  0.00    -0.273 OA
BRANCH  10  13
HETATM   13  C   UNL     1      -9.542   1.335 -33.552  1.00  0.00     0.155 C 
BRANCH  13  14
HETATM   14  C   UNL     1     -11.069   1.436 -33.532  1.00  0.00     0.206 C 
HETATM   15  N   UNL     1     -11.661   2.586 -32.729  1.00  0.00    -0.066 N 
HETATM   16  H   UNL     1     -11.548   2.373 -31.724  1.00  0.00     0.280 HD
HETATM   17  C   UNL     1     -13.134   2.460 -33.079  1.00  0.00     0.235 C 
HETATM   18  C   UNL     1     -13.142   2.098 -34.562  1.00  0.00     0.030 C 
HETATM   19  C   UNL     1     -11.749   1.564 -34.885  1.00  0.00     0.036 C 
BRANCH  15  20
HETATM   20  C   UNL     1     -11.155   3.992 -32.986  1.00  0.00     0.231 C 
HETATM   21  C   UNL     1     -10.448   4.572 -31.777  1.00  0.00     0.034 C 
ENDBRANCH  15  20
ENDBRANCH  13  14
ENDBRANCH  10  13
ENDBRANCH   8   9
ENDBRANCH   1   8
BRANCH   2  22
HETATM   22  C   UNL     1      -5.143  -0.861 -33.432  1.00  0.00    -0.007 A 
HETATM   23  C   UNL     1      -6.503  -1.057 -33.699  1.00  0.00     0.015 A 
HETATM   24  C   UNL     1      -6.943  -2.217 -34.348  1.00  0.00     0.024 A 
HETATM   25  C   UNL     1      -6.022  -3.183 -34.743  1.00  0.00     0.034 A 
HETATM   26 CL   UNL     1      -6.563  -4.613 -35.527  1.00  0.00    -0.084 Cl
HETATM   27  C   UNL     1      -4.664  -2.996 -34.504  1.00  0.00     0.024 A 
HETATM   28  C   UNL     1      -4.226  -1.840 -33.852  1.00  0.00     0.015 A 
ENDBRANCH   2  22
TORSDOF 6
ENDMDL
MODEL 7
REMARK VINA RESULT:      -7.3      2.392      4.519
REMARK  6 active torsions:
REMARK  status: ('A' for Active; 'I' for Inactive)
REMARK    1  A    between atoms: C_2  and  N_3 
REMARK    2  A    between atoms: C_5  and  C_6 
REMARK    3  A    between atoms: C_6  and  N_7 
REMARK       I    between atoms: N_7  and  C_8 
REMARK    4  A    between atoms: C_8  and  C_9 
REMARK    5  A    between atoms: C_9  and  C_10 
REMARK    6  A    between atoms: C_11  and  C_12 
ROOT
HETATM    1  C   UNL     1      -4.119  -2.322 -33.420  1.00  0.00     0.005 C 
HETATM    2  C   UNL     1      -3.798  -1.593 -32.272  1.00  0.00     0.069 C 
HETATM    3  N   UNL     1      -3.176  -2.491 -31.442  1.00  0.00    -0.277 N 
HETATM    4  H   UNL     1      -2.882  -2.355 -30.480  1.00  0.00     0.189 HD
HETATM    5  N   UNL     1      -2.904  -3.661 -32.024  1.00  0.00    -0.179 NA
HETATM    6  C   UNL     1      -3.608  -3.632 -33.159  1.00  0.00     0.059 C 
HETATM    7  C   UNL     1      -3.735  -4.881 -33.958  1.00  0.00     0.073 C 
ENDROOT
BRANCH   1   8
HETATM    8  C   UNL     1      -4.870  -1.853 -34.633  1.00  0.00     0.146 C 
BRANCH   8   9
HETATM    9  C   UNL     1      -6.376  -1.950 -34.489  1.00  0.00     0.222 C 
HETATM   10  N   UNL     1      -7.175  -0.850 -34.629  1.00  0.00    -0.359 N 
HETATM   11  H   UNL     1      -8.130  -1.103 -34.386  1.00  0.00     0.162 HD
HETATM   12  O   UNL     1      -6.940  -3.023 -34.278  1.00  0.00    -0.273 OA
BRANCH  10  13
HETATM   13  C   UNL     1      -6.834   0.565 -34.590  1.00  0.00     0.155 C 
BRANCH  13  14
HETATM   14  C   UNL     1      -7.294   1.300 -33.328  1.00  0.00     0.206 C 
HETATM   15  N   UNL     1      -8.262   2.457 -33.533  1.00  0.00    -0.066 N 
HETATM   16  H   UNL     1      -7.739   3.250 -33.941  1.00  0.00     0.280 HD
HETATM   17  C   UNL     1      -8.609   2.807 -32.096  1.00  0.00     0.235 C 
HETATM   18  C   UNL     1      -8.717   1.457 -31.392  1.00  0.00     0.030 C 
HETATM   19  C   UNL     1      -7.980   0.449 -32.271  1.00  0.00     0.036 C 
BRANCH  15  20
HETATM   20  C   UNL     1      -9.513   2.225 -34.357  1.00  0.00     0.231 C 
HETATM   21  C   UNL     1     -10.298   3.504 -34.573  1.00  0.00     0.034 C 
ENDBRANCH  15  20
ENDBRANCH  13  14
ENDBRANCH  10  13
ENDBRANCH   8   9
ENDBRANCH   1   8
BRANCH   2  22
HETATM   22  C   UNL     1      -4.043  -0.209 -31.860  1.00  0.00    -0.007 A 
HETATM   23  C   UNL     1      -4.775   0.085 -30.703  1.00  0.00     0.015 A 
HETATM   24  C   UNL     1      -5.035   1.411 -30.341  1.00  0.00     0.024 A 
HETATM   25  C   UNL     1      -4.555   2.452 -31.128  1.00  0.00     0.034 A 
HETATM   26 CL   UNL     1      -4.886   4.081 -30.691  1.00  0.00    -0.084 Cl
HETATM   27  C   UNL     1      -3.808   2.181 -32.270  1.00  0.00     0.024 A 
HETATM   28  C   UNL     1      -3.552   0.856 -32.635  1.00  0.00     0.015 A 
ENDBRANCH   2  22
TORSDOF 6
ENDMDL
MODEL 8
REMARK VINA RESULT:      -7.2     13.672     15.003
REMARK  6 active torsions:
REMARK  status: ('A' for Active; 'I' for Inactive)
REMARK    1  A    between atoms: C_2  and  N_3 
REMARK    2  A    between atoms: C_5  and  C_6 
REMARK    3  A    between atoms: C_6  and  N_7 
REMARK       I    between atoms: N_7  and  C_8 
REMARK    4  A    between atoms: C_8  and  C_9 
REMARK    5  A    between atoms: C_9  and  C_10 
REMARK    6  A    between atoms: C_11  and  C_12 
ROOT
HETATM    1  C   UNL     1      -4.133 -14.114 -40.351  1.00  0.00     0.005 C 
HETATM    2  C   UNL     1      -5.224 -13.883 -41.192  1.00  0.00     0.069 C 
HETATM    3  N   UNL     1      -4.689 -13.800 -42.453  1.00  0.00    -0.277 N 
HETATM    4  H   UNL     1      -5.158 -13.547 -43.318  1.00  0.00     0.189 HD
HETATM    5  N   UNL     1      -3.400 -14.143 -42.514  1.00  0.00    -0.179 NA
HETATM    6  C   UNL     1      -3.012 -14.177 -41.236  1.00  0.00     0.059 C 
HETATM    7  C   UNL     1      -1.561 -14.294 -40.929  1.00  0.00     0.073 C 
ENDROOT
BRANCH   1   8
HETATM    8  C   UNL     1      -4.130 -14.226 -38.853  1.00  0.00     0.146 C 
BRANCH   8   9
HETATM    9  C   UNL     1      -3.896 -12.904 -38.147  1.00  0.00     0.222 C 
HETATM   10  N   UNL     1      -3.604 -12.854 -36.813  1.00  0.00    -0.359 N 
HETATM   11  H   UNL     1      -3.597 -11.882 -36.513  1.00  0.00     0.162 HD
HETATM   12  O   UNL     1      -3.924 -11.832 -38.750  1.00  0.00    -0.273 OA
BRANCH  10  13
HETATM   13  C   UNL     1      -3.776 -13.865 -35.778  1.00  0.00     0.155 C 
BRANCH  13  14
HETATM   14  C   UNL     1      -4.882 -13.562 -34.765  1.00  0.00     0.206 C 
HETATM   15  N   UNL     1      -6.262 -13.266 -35.335  1.00  0.00    -0.066 N 
HETATM   16  H   UNL     1      -6.241 -12.325 -35.764  1.00  0.00     0.280 HD
HETATM   17  C   UNL     1      -7.094 -13.190 -34.066  1.00  0.00     0.235 C 
HETATM   18  C   UNL     1      -6.538 -14.302 -33.181  1.00  0.00     0.030 C 
HETATM   19  C   UNL     1      -5.154 -14.641 -33.729  1.00  0.00     0.036 C 
BRANCH  15  20
HETATM   20  C   UNL     1      -6.865 -14.238 -36.329  1.00  0.00     0.231 C 
HETATM   21  C   UNL     1      -7.962 -13.599 -37.157  1.00  0.00     0.034 C 
ENDBRANCH  15  20
ENDBRANCH  13  14
ENDBRANCH  10  13
ENDBRANCH   8   9
ENDBRANCH   1   8
BRANCH   2  22
HETATM   22  C   UNL     1      -6.656 -13.690 -40.952  1.00  0.00    -0.007 A 
HETATM   23  C   UNL     1      -7.178 -12.423 -40.663  1.00  0.00     0.015 A 
HETATM   24  C   UNL     1      -8.542 -12.258 -40.397  1.00  0.00     0.024 A 
HETATM   25  C   UNL     1      -9.394 -13.357 -40.430  1.00  0.00     0.034 A 
HETATM   26 CL   UNL     1     -11.067 -13.156 -40.090  1.00  0.00    -0.084 Cl
HETATM   27  C   UNL     1      -8.897 -14.621 -40.736  1.00  0.00     0.024 A 
HETATM   28  C   UNL     1      -7.534 -14.786 -40.996  1.00  0.00     0.015 A 
ENDBRANCH   2  22
TORSDOF 6
ENDMDL
MODEL 9
REMARK VINA RESULT:      -7.2      4.465      8.982
REMARK  6 active torsions:
REMARK  status: ('A' for Active; 'I' for Inactive)
REMARK    1  A    between atoms: C_2  and  N_3 
REMARK    2  A    between atoms: C_5  and  C_6 
REMARK    3  A    between atoms: C_6  and  N_7 
REMARK       I    between atoms: N_7  and  C_8 
REMARK    4  A    between atoms: C_8  and  C_9 
REMARK    5  A    between atoms: C_9  and  C_10 
REMARK    6  A    between atoms: C_11  and  C_12 
ROOT
HETATM    1  C   UNL     1      -2.241   5.542 -32.620  1.00  0.00     0.005 C 
HETATM    2  C   UNL     1      -1.288   6.435 -32.124  1.00  0.00     0.069 C 
HETATM    3  N   UNL     1      -0.959   7.233 -33.192  1.00  0.00    -0.277 N 
HETATM    4  H   UNL     1      -0.232   7.940 -33.245  1.00  0.00     0.189 HD
HETATM    5  N   UNL     1      -1.746   7.057 -34.256  1.00  0.00    -0.179 NA
HETATM    6  C   UNL     1      -2.415   5.934 -33.985  1.00  0.00     0.059 C 
HETATM    7  C   UNL     1      -3.218   5.297 -35.064  1.00  0.00     0.073 C 
ENDROOT
BRANCH   1   8
HETATM    8  C   UNL     1      -2.901   4.401 -31.900  1.00  0.00     0.146 C 
BRANCH   8   9
HETATM    9  C   UNL     1      -4.229   4.770 -31.267  1.00  0.00     0.222 C 
HETATM   10  N   UNL     1      -5.373   4.089 -31.570  1.00  0.00    -0.359 N 
HETATM   11  H   UNL     1      -6.163   4.559 -31.132  1.00  0.00     0.162 HD
HETATM   12  O   UNL     1      -4.322   5.670 -30.432  1.00  0.00    -0.273 OA
BRANCH  10  13
HETATM   13  C   UNL     1      -5.667   3.202 -32.687  1.00  0.00     0.155 C 
BRANCH  13  14
HETATM   14  C   UNL     1      -5.648   1.711 -32.344  1.00  0.00     0.206 C 
HETATM   15  N   UNL     1      -6.673   0.839 -33.056  1.00  0.00    -0.066 N 
HETATM   16  H   UNL     1      -7.604   1.036 -32.652  1.00  0.00     0.280 HD
HETATM   17  C   UNL     1      -6.243  -0.547 -32.603  1.00  0.00     0.235 C 
HETATM   18  C   UNL     1      -4.718  -0.493 -32.614  1.00  0.00     0.030 C 
HETATM   19  C   UNL     1      -4.335   0.985 -32.590  1.00  0.00     0.036 C 
BRANCH  15  20
HETATM   20  C   UNL     1      -6.773   0.916 -34.566  1.00  0.00     0.231 C 
HETATM   21  C   UNL     1      -7.445  -0.309 -35.155  1.00  0.00     0.034 C 
ENDBRANCH  15  20
ENDBRANCH  13  14
ENDBRANCH  10  13
ENDBRANCH   8   9
ENDBRANCH   1   8
BRANCH   2  22
HETATM   22  C   UNL     1      -0.636   6.588 -30.822  1.00  0.00    -0.007 A 
HETATM   23  C   UNL     1       0.113   5.547 -30.259  1.00  0.00     0.015 A 
HETATM   24  C   UNL     1       0.698   5.692 -28.996  1.00  0.00     0.024 A 
HETATM   25  C   UNL     1       0.548   6.884 -28.294  1.00  0.00     0.034 A 
HETATM   26 CL   UNL     1       1.256   7.058 -26.738  1.00  0.00    -0.084 Cl
HETATM   27  C   UNL     1      -0.174   7.937 -28.847  1.00  0.00     0.024 A 
HETATM   28  C   UNL     1      -0.763   7.790 -30.106  1.00  0.00     0.015 A 
ENDBRANCH   2  22
TORSDOF 6
ENDMDL
MODEL 10
REMARK VINA RESULT:      -7.1      4.696      7.622
REMARK  6 active torsions:
REMARK  status: ('A' for Active; 'I' for Inactive)
REMARK    1  A    between atoms: C_2  and  N_3 
REMARK    2  A    between atoms: C_5  and  C_6 
REMARK    3  A    between atoms: C_6  and  N_7 
REMARK       I    between atoms: N_7  and  C_8 
REMARK    4  A    between atoms: C_8  and  C_9 
REMARK    5  A    between atoms: C_9  and  C_10 
REMARK    6  A    between atoms: C_11  and  C_12 
ROOT
HETATM    1  C   UNL     1      -7.778   1.646 -33.919  1.00  0.00     0.005 C 
HETATM    2  C   UNL     1      -6.486   1.151 -33.725  1.00  0.00     0.069 C 
HETATM    3  N   UNL     1      -5.720   2.255 -33.445  1.00  0.00    -0.277 N 
HETATM    4  H   UNL     1      -4.712   2.307 -33.336  1.00  0.00     0.189 HD
HETATM    5  N   UNL     1      -6.432   3.369 -33.257  1.00  0.00    -0.179 NA
HETATM    6  C   UNL     1      -7.652   3.054 -33.697  1.00  0.00     0.059 C 
HETATM    7  C   UNL     1      -8.659   4.137 -33.863  1.00  0.00     0.073 C 
ENDROOT
BRANCH   1   8
HETATM    8  C   UNL     1      -9.010   0.884 -34.316  1.00  0.00     0.146 C 
BRANCH   8   9
HETATM    9  C   UNL     1      -9.992   0.683 -33.178  1.00  0.00     0.222 C 
HETATM   10  N   UNL     1     -11.252   1.209 -33.228  1.00  0.00    -0.359 N 
HETATM   11  H   UNL     1     -11.707   1.060 -32.330  1.00  0.00     0.162 HD
HETATM   12  O   UNL     1      -9.708   0.012 -32.187  1.00  0.00    -0.273 OA
BRANCH  10  13
HETATM   13  C   UNL     1     -11.796   2.258 -34.080  1.00  0.00     0.155 C 
BRANCH  13  14
HETATM   14  C   UNL     1     -12.669   3.284 -33.354  1.00  0.00     0.206 C 
HETATM   15  N   UNL     1     -14.171   3.034 -33.378  1.00  0.00    -0.066 N 
HETATM   16  H   UNL     1     -14.519   3.242 -34.329  1.00  0.00     0.280 HD
HETATM   17  C   UNL     1     -14.664   4.126 -32.444  1.00  0.00     0.235 C 
HETATM   18  C   UNL     1     -13.624   4.170 -31.328  1.00  0.00     0.030 C 
HETATM   19  C   UNL     1     -12.370   3.492 -31.878  1.00  0.00     0.036 C 
BRANCH  15  20
HETATM   20  C   UNL     1     -14.691   1.675 -32.957  1.00  0.00     0.231 C 
HETATM   21  C   UNL     1     -15.140   0.844 -34.144  1.00  0.00     0.034 C 
ENDBRANCH  15  20
ENDBRANCH  13  14
ENDBRANCH  10  13
ENDBRANCH   8   9
ENDBRANCH   1   8
BRANCH   2  22
HETATM   22  C   UNL     1      -5.899  -0.188 -33.816  1.00  0.00    -0.007 A 
HETATM   23  C   UNL     1      -4.797  -0.551 -33.032  1.00  0.00     0.015 A 
HETATM   24  C   UNL     1      -4.221  -1.820 -33.156  1.00  0.00     0.024 A 
HETATM   25  C   UNL     1      -4.751  -2.738 -34.057  1.00  0.00     0.034 A 
HETATM   26 CL   UNL     1      -4.036  -4.292 -34.219  1.00  0.00    -0.084 Cl
HETATM   27  C   UNL     1      -5.859  -2.403 -34.830  1.00  0.00     0.024 A 
HETATM   28  C   UNL     1      -6.431  -1.133 -34.709  1.00  0.00     0.015 A 
ENDBRANCH   2  22
TORSDOF 6
ENDMDL
