MODEL 1
REMARK VINA RESULT:      -7.8      0.000      0.000
REMARK  5 active torsions:
REMARK  status: ('A' for Active; 'I' for Inactive)
REMARK    1  A    between atoms: C_3  and  N_4 
REMARK       I    between atoms: N_4  and  C_5 
REMARK       I    between atoms: C_5  and  N_6 
REMARK    2  A    between atoms: N_6  and  C_7 
REMARK    3  A    between atoms: C_7  and  C_8 
REMARK    4  A    between atoms: C_8  and  C_9 
REMARK    5  A    between atoms: N_15  and  C_16 
ROOT
HETATM    1  C   UNL     1      -8.851   2.022 -31.602  1.00  0.00     0.054 C 
HETATM    2  C   UNL     1      -7.952   1.281 -32.518  1.00  0.00     0.003 A 
HETATM    3  C   UNL     1      -7.180   1.769 -33.598  1.00  0.00     0.159 A 
HETATM    4  N   UNL     1      -6.465   0.797 -34.168  1.00  0.00    -0.149 NA
HETATM    5  N   UNL     1      -6.791  -0.345 -33.501  1.00  0.00    -0.241 N 
HETATM    6  C   UNL     1      -7.647  -0.063 -32.463  1.00  0.00     0.129 A 
ENDROOT
BRANCH   3   7
HETATM    7  N   UNL     1      -7.165   3.084 -34.009  1.00  0.00    -0.291 N 
HETATM    8  C   UNL     1      -6.255   4.061 -33.737  1.00  0.00     0.322 C 
HETATM    9  N   UNL     1      -5.258   3.755 -32.863  1.00  0.00    -0.339 N 
HETATM   10  O   UNL     1      -6.380   5.165 -34.261  1.00  0.00    -0.247 OA
HETATM   11  H   UNL     1      -5.175   2.763 -32.652  1.00  0.00     0.164 HD
HETATM   12  H   UNL     1      -7.906   3.393 -34.620  1.00  0.00     0.172 HD
BRANCH   9  13
HETATM   13  C   UNL     1      -4.138   4.644 -32.600  1.00  0.00     0.082 C 
HETATM   14  C   UNL     1      -3.886   4.744 -31.099  1.00  0.00     0.032 C 
BRANCH  13  15
HETATM   15  C   UNL     1      -2.880   4.229 -33.390  1.00  0.00     0.029 C 
BRANCH  15  16
HETATM   16  C   UNL     1      -2.532   5.162 -34.519  1.00  0.00    -0.013 A 
HETATM   17  C   UNL     1      -1.985   6.531 -34.204  1.00  0.00     0.005 A 
HETATM   18  C   UNL     1      -1.093   5.494 -34.825  1.00  0.00     0.005 A 
ENDBRANCH  15  16
ENDBRANCH  13  15
ENDBRANCH   9  13
ENDBRANCH   3   7
BRANCH   5  19
HETATM   19  C   UNL     1      -6.204  -1.587 -33.897  1.00  0.00     0.079 A 
HETATM   20  C   UNL     1      -4.836  -1.889 -33.821  1.00  0.00     0.062 A 
HETATM   21 CL   UNL     1      -3.626  -0.905 -33.073  1.00  0.00    -0.082 Cl
HETATM   22  C   UNL     1      -4.367  -3.131 -34.286  1.00  0.00     0.026 A 
HETATM   23  C   UNL     1      -5.243  -4.082 -34.808  1.00  0.00     0.002 A 
HETATM   24  C   UNL     1      -6.602  -3.807 -34.858  1.00  0.00     0.002 A 
HETATM   25  C   UNL     1      -7.080  -2.575 -34.403  1.00  0.00     0.033 A 
ENDBRANCH   5  19
TORSDOF 5
ENDMDL
MODEL 2
REMARK VINA RESULT:      -7.6      2.900      5.829
REMARK  5 active torsions:
REMARK  status: ('A' for Active; 'I' for Inactive)
REMARK    1  A    between atoms: C_3  and  N_4 
REMARK       I    between atoms: N_4  and  C_5 
REMARK       I    between atoms: C_5  and  N_6 
REMARK    2  A    between atoms: N_6  and  C_7 
REMARK    3  A    between atoms: C_7  and  C_8 
REMARK    4  A    between atoms: C_8  and  C_9 
REMARK    5  A    between atoms: N_15  and  C_16 
ROOT
HETATM    1  C   UNL     1      -4.971   3.281 -31.096  1.00  0.00     0.054 C 
HETATM    2  C   UNL     1      -5.497   1.978 -31.568  1.00  0.00     0.003 A 
HETATM    3  C   UNL     1      -6.795   1.435 -31.418  1.00  0.00     0.159 A 
HETATM    4  N   UNL     1      -6.899   0.244 -32.012  1.00  0.00    -0.149 NA
HETATM    5  N   UNL     1      -5.664  -0.028 -32.518  1.00  0.00    -0.241 N 
HETATM    6  C   UNL     1      -4.818   1.034 -32.308  1.00  0.00     0.129 A 
ENDROOT
BRANCH   3   7
HETATM    7  N   UNL     1      -7.825   2.057 -30.746  1.00  0.00    -0.291 N 
HETATM    8  C   UNL     1      -9.043   2.450 -31.211  1.00  0.00     0.322 C 
HETATM    9  N   UNL     1      -9.274   2.308 -32.544  1.00  0.00    -0.339 N 
HETATM   10  O   UNL     1      -9.861   2.929 -30.430  1.00  0.00    -0.247 OA
HETATM   11  H   UNL     1      -8.587   1.737 -33.031  1.00  0.00     0.164 HD
HETATM   12  H   UNL     1      -7.699   2.239 -29.762  1.00  0.00     0.172 HD
BRANCH   9  13
HETATM   13  C   UNL     1     -10.575   2.541 -33.149  1.00  0.00     0.082 C 
HETATM   14  C   UNL     1     -10.470   3.615 -34.228  1.00  0.00     0.032 C 
BRANCH  13  15
HETATM   15  C   UNL     1     -11.207   1.234 -33.669  1.00  0.00     0.029 C 
BRANCH  15  16
HETATM   16  C   UNL     1     -12.694   1.144 -33.447  1.00  0.00    -0.013 A 
HETATM   17  C   UNL     1     -13.620   1.138 -34.636  1.00  0.00     0.005 A 
HETATM   18  C   UNL     1     -13.450  -0.108 -33.815  1.00  0.00     0.005 A 
ENDBRANCH  15  16
ENDBRANCH  13  15
ENDBRANCH   9  13
ENDBRANCH   3   7
BRANCH   5  19
HETATM   19  C   UNL     1      -5.436  -1.263 -33.202  1.00  0.00     0.079 A 
HETATM   20  C   UNL     1      -4.281  -2.051 -33.076  1.00  0.00     0.062 A 
HETATM   21 CL   UNL     1      -2.999  -1.786 -31.946  1.00  0.00    -0.082 Cl
HETATM   22  C   UNL     1      -4.150  -3.225 -33.838  1.00  0.00     0.026 A 
HETATM   23  C   UNL     1      -5.158  -3.635 -34.709  1.00  0.00     0.002 A 
HETATM   24  C   UNL     1      -6.318  -2.882 -34.817  1.00  0.00     0.002 A 
HETATM   25  C   UNL     1      -6.460  -1.711 -34.069  1.00  0.00     0.033 A 
ENDBRANCH   5  19
TORSDOF 5
ENDMDL
MODEL 3
REMARK VINA RESULT:      -7.5      2.613      7.388
REMARK  5 active torsions:
REMARK  status: ('A' for Active; 'I' for Inactive)
REMARK    1  A    between atoms: C_3  and  N_4 
REMARK       I    between atoms: N_4  and  C_5 
REMARK       I    between atoms: C_5  and  N_6 
REMARK    2  A    between atoms: N_6  and  C_7 
REMARK    3  A    between atoms: C_7  and  C_8 
REMARK    4  A    between atoms: C_8  and  C_9 
REMARK    5  A    between atoms: N_15  and  C_16 
ROOT
HETATM    1  C   UNL     1      -4.336   0.347 -30.633  1.00  0.00     0.054 C 
HETATM    2  C   UNL     1      -4.305   1.707 -31.220  1.00  0.00     0.003 A 
HETATM    3  C   UNL     1      -5.384   2.562 -31.546  1.00  0.00     0.159 A 
HETATM    4  N   UNL     1      -4.956   3.731 -32.026  1.00  0.00    -0.149 NA
HETATM    5  N   UNL     1      -3.596   3.642 -32.064  1.00  0.00    -0.241 N 
HETATM    6  C   UNL     1      -3.182   2.446 -31.527  1.00  0.00     0.129 A 
ENDROOT
BRANCH   3   7
HETATM    7  N   UNL     1      -6.712   2.231 -31.385  1.00  0.00    -0.291 N 
HETATM    8  C   UNL     1      -7.465   1.328 -32.073  1.00  0.00     0.322 C 
HETATM    9  N   UNL     1      -6.881   0.715 -33.137  1.00  0.00    -0.339 N 
HETATM   10  O   UNL     1      -8.626   1.123 -31.728  1.00  0.00    -0.247 OA
HETATM   11  H   UNL     1      -5.872   0.844 -33.194  1.00  0.00     0.164 HD
HETATM   12  H   UNL     1      -7.221   2.688 -30.644  1.00  0.00     0.172 HD
BRANCH   9  13
HETATM   13  C   UNL     1      -7.509  -0.376 -33.864  1.00  0.00     0.082 C 
HETATM   14  C   UNL     1      -7.681  -0.000 -35.333  1.00  0.00     0.032 C 
BRANCH  13  15
HETATM   15  C   UNL     1      -6.750  -1.704 -33.672  1.00  0.00     0.029 C 
BRANCH  15  16
HETATM   16  C   UNL     1      -6.725  -2.576 -34.899  1.00  0.00    -0.013 A 
HETATM   17  C   UNL     1      -5.506  -3.416 -35.185  1.00  0.00     0.005 A 
HETATM   18  C   UNL     1      -6.792  -4.078 -34.775  1.00  0.00     0.005 A 
ENDBRANCH  15  16
ENDBRANCH  13  15
ENDBRANCH   9  13
ENDBRANCH   3   7
BRANCH   5  19
HETATM   19  C   UNL     1      -2.830   4.740 -32.563  1.00  0.00     0.079 A 
HETATM   20  C   UNL     1      -2.696   5.983 -31.925  1.00  0.00     0.062 A 
HETATM   21 CL   UNL     1      -3.271   6.370 -30.340  1.00  0.00    -0.082 Cl
HETATM   22  C   UNL     1      -1.953   7.007 -32.538  1.00  0.00     0.026 A 
HETATM   23  C   UNL     1      -1.325   6.805 -33.767  1.00  0.00     0.002 A 
HETATM   24  C   UNL     1      -1.423   5.571 -34.391  1.00  0.00     0.002 A 
HETATM   25  C   UNL     1      -2.163   4.546 -33.795  1.00  0.00     0.033 A 
ENDBRANCH   5  19
TORSDOF 5
ENDMDL
MODEL 4
REMARK VINA RESULT:      -7.5      3.477      6.112
REMARK  5 active torsions:
REMARK  status: ('A' for Active; 'I' for Inactive)
REMARK    1  A    between atoms: C_3  and  N_4 
REMARK       I    between atoms: N_4  and  C_5 
REMARK       I    between atoms: C_5  and  N_6 
REMARK    2  A    between atoms: N_6  and  C_7 
REMARK    3  A    between atoms: C_7  and  C_8 
REMARK    4  A    between atoms: C_8  and  C_9 
REMARK    5  A    between atoms: N_15  and  C_16 
ROOT
HETATM    1  C   UNL     1      -9.139   2.268 -31.009  1.00  0.00     0.054 C 
HETATM    2  C   UNL     1      -8.367   1.603 -32.086  1.00  0.00     0.003 A 
HETATM    3  C   UNL     1      -8.007   2.101 -33.360  1.00  0.00     0.159 A 
HETATM    4  N   UNL     1      -7.275   1.217 -34.042  1.00  0.00    -0.149 NA
HETATM    5  N   UNL     1      -7.186   0.115 -33.246  1.00  0.00    -0.241 N 
HETATM    6  C   UNL     1      -7.793   0.351 -32.036  1.00  0.00     0.129 A 
ENDROOT
BRANCH   3   7
HETATM    7  N   UNL     1      -8.361   3.344 -33.838  1.00  0.00    -0.291 N 
HETATM    8  C   UNL     1      -9.575   3.786 -34.269  1.00  0.00     0.322 C 
HETATM    9  N   UNL     1     -10.580   2.873 -34.341  1.00  0.00    -0.339 N 
HETATM   10  O   UNL     1      -9.707   4.965 -34.593  1.00  0.00    -0.247 OA
HETATM   11  H   UNL     1     -10.379   1.990 -33.875  1.00  0.00     0.164 HD
HETATM   12  H   UNL     1      -7.649   4.057 -33.860  1.00  0.00     0.172 HD
BRANCH   9  13
HETATM   13  C   UNL     1     -11.956   3.234 -34.636  1.00  0.00     0.082 C 
HETATM   14  C   UNL     1     -12.217   3.140 -36.136  1.00  0.00     0.032 C 
BRANCH  13  15
HETATM   15  C   UNL     1     -12.957   2.407 -33.803  1.00  0.00     0.029 C 
BRANCH  15  16
HETATM   16  C   UNL     1     -13.497   1.198 -34.521  1.00  0.00    -0.013 A 
HETATM   17  C   UNL     1     -13.552  -0.125 -33.802  1.00  0.00     0.005 A 
HETATM   18  C   UNL     1     -14.826   0.603 -34.129  1.00  0.00     0.005 A 
ENDBRANCH  15  16
ENDBRANCH  13  15
ENDBRANCH   9  13
ENDBRANCH   3   7
BRANCH   5  19
HETATM   19  C   UNL     1      -6.478  -1.037 -33.710  1.00  0.00     0.079 A 
HETATM   20  C   UNL     1      -5.083  -1.192 -33.672  1.00  0.00     0.062 A 
HETATM   21 CL   UNL     1      -3.970  -0.117 -32.899  1.00  0.00    -0.082 Cl
HETATM   22  C   UNL     1      -4.495  -2.353 -34.203  1.00  0.00     0.026 A 
HETATM   23  C   UNL     1      -5.275  -3.369 -34.754  1.00  0.00     0.002 A 
HETATM   24  C   UNL     1      -6.656  -3.241 -34.767  1.00  0.00     0.002 A 
HETATM   25  C   UNL     1      -7.253  -2.091 -34.247  1.00  0.00     0.033 A 
ENDBRANCH   5  19
TORSDOF 5
ENDMDL
MODEL 5
REMARK VINA RESULT:      -7.4      1.887      2.282
REMARK  5 active torsions:
REMARK  status: ('A' for Active; 'I' for Inactive)
REMARK    1  A    between atoms: C_3  and  N_4 
REMARK       I    between atoms: N_4  and  C_5 
REMARK       I    between atoms: C_5  and  N_6 
REMARK    2  A    between atoms: N_6  and  C_7 
REMARK    3  A    between atoms: C_7  and  C_8 
REMARK    4  A    between atoms: C_8  and  C_9 
REMARK    5  A    between atoms: N_15  and  C_16 
ROOT
HETATM    1  C   UNL     1      -7.068   2.890 -30.202  1.00  0.00     0.054 C 
HETATM    2  C   UNL     1      -6.551   2.131 -31.366  1.00  0.00     0.003 A 
HETATM    3  C   UNL     1      -5.932   2.616 -32.542  1.00  0.00     0.159 A 
HETATM    4  N   UNL     1      -5.567   1.619 -33.351  1.00  0.00    -0.149 NA
HETATM    5  N   UNL     1      -5.982   0.474 -32.740  1.00  0.00    -0.241 N 
HETATM    6  C   UNL     1      -6.529   0.760 -31.512  1.00  0.00     0.129 A 
ENDROOT
BRANCH   3   7
HETATM    7  N   UNL     1      -5.726   3.951 -32.817  1.00  0.00    -0.291 N 
HETATM    8  C   UNL     1      -4.555   4.620 -33.007  1.00  0.00     0.322 C 
HETATM    9  N   UNL     1      -3.403   3.924 -32.812  1.00  0.00    -0.339 N 
HETATM   10  O   UNL     1      -4.583   5.809 -33.317  1.00  0.00    -0.247 OA
HETATM   11  H   UNL     1      -3.528   2.916 -32.738  1.00  0.00     0.164 HD
HETATM   12  H   UNL     1      -6.539   4.537 -32.924  1.00  0.00     0.172 HD
BRANCH   9  13
HETATM   13  C   UNL     1      -2.091   4.464 -33.126  1.00  0.00     0.082 C 
HETATM   14  C   UNL     1      -2.046   4.930 -34.578  1.00  0.00     0.032 C 
BRANCH  13  15
HETATM   15  C   UNL     1      -1.672   5.567 -32.132  1.00  0.00     0.029 C 
BRANCH  15  16
HETATM   16  C   UNL     1      -0.275   5.405 -31.593  1.00  0.00    -0.013 A 
HETATM   17  C   UNL     1       0.499   6.627 -31.168  1.00  0.00     0.005 A 
HETATM   18  C   UNL     1       0.016   5.650 -30.133  1.00  0.00     0.005 A 
ENDBRANCH  15  16
ENDBRANCH  13  15
ENDBRANCH   9  13
ENDBRANCH   3   7
BRANCH   5  19
HETATM   19  C   UNL     1      -5.762  -0.787 -33.377  1.00  0.00     0.079 A 
HETATM   20  C   UNL     1      -4.537  -1.473 -33.397  1.00  0.00     0.062 A 
HETATM   21 CL   UNL     1      -3.118  -1.030 -32.513  1.00  0.00    -0.082 Cl
HETATM   22  C   UNL     1      -4.428  -2.687 -34.098  1.00  0.00     0.026 A 
HETATM   23  C   UNL     1      -5.524  -3.236 -34.763  1.00  0.00     0.002 A 
HETATM   24  C   UNL     1      -6.747  -2.583 -34.723  1.00  0.00     0.002 A 
HETATM   25  C   UNL     1      -6.868  -1.374 -34.033  1.00  0.00     0.033 A 
ENDBRANCH   5  19
TORSDOF 5
ENDMDL
MODEL 6
REMARK VINA RESULT:      -7.3      2.756      5.298
REMARK  5 active torsions:
REMARK  status: ('A' for Active; 'I' for Inactive)
REMARK    1  A    between atoms: C_3  and  N_4 
REMARK       I    between atoms: N_4  and  C_5 
REMARK       I    between atoms: C_5  and  N_6 
REMARK    2  A    between atoms: N_6  and  C_7 
REMARK    3  A    between atoms: C_7  and  C_8 
REMARK    4  A    between atoms: C_8  and  C_9 
REMARK    5  A    between atoms: N_15  and  C_16 
ROOT
HETATM    1  C   UNL     1      -3.369   2.519 -31.517  1.00  0.00     0.054 C 
HETATM    2  C   UNL     1      -4.052   1.236 -31.808  1.00  0.00     0.003 A 
HETATM    3  C   UNL     1      -5.364   0.829 -31.471  1.00  0.00     0.159 A 
HETATM    4  N   UNL     1      -5.634  -0.392 -31.940  1.00  0.00    -0.149 NA
HETATM    5  N   UNL     1      -4.491  -0.818 -32.547  1.00  0.00    -0.241 N 
HETATM    6  C   UNL     1      -3.542   0.176 -32.527  1.00  0.00     0.129 A 
ENDROOT
BRANCH   3   7
HETATM    7  N   UNL     1      -6.255   1.596 -30.754  1.00  0.00    -0.291 N 
HETATM    8  C   UNL     1      -7.398   2.208 -31.173  1.00  0.00     0.322 C 
HETATM    9  N   UNL     1      -7.681   2.151 -32.502  1.00  0.00    -0.339 N 
HETATM   10  O   UNL     1      -8.103   2.795 -30.356  1.00  0.00    -0.247 OA
HETATM   11  H   UNL     1      -7.114   1.486 -33.024  1.00  0.00     0.164 HD
HETATM   12  H   UNL     1      -6.077   1.722 -29.769  1.00  0.00     0.172 HD
BRANCH   9  13
HETATM   13  C   UNL     1      -8.936   2.623 -33.064  1.00  0.00     0.082 C 
HETATM   14  C   UNL     1      -8.745   3.997 -33.699  1.00  0.00     0.032 C 
BRANCH  13  15
HETATM   15  C   UNL     1      -9.550   1.596 -34.037  1.00  0.00     0.029 C 
BRANCH  15  16
HETATM   16  C   UNL     1     -10.970   1.217 -33.708  1.00  0.00    -0.013 A 
HETATM   17  C   UNL     1     -11.988   2.302 -33.468  1.00  0.00     0.005 A 
HETATM   18  C   UNL     1     -12.078   1.452 -34.704  1.00  0.00     0.005 A 
ENDBRANCH  15  16
ENDBRANCH  13  15
ENDBRANCH   9  13
ENDBRANCH   3   7
BRANCH   5  19
HETATM   19  C   UNL     1      -4.446  -2.120 -33.135  1.00  0.00     0.079 A 
HETATM   20  C   UNL     1      -5.279  -2.561 -34.176  1.00  0.00     0.062 A 
HETATM   21 CL   UNL     1      -6.385  -1.576 -35.068  1.00  0.00    -0.082 Cl
HETATM   22  C   UNL     1      -5.175  -3.884 -34.641  1.00  0.00     0.026 A 
HETATM   23  C   UNL     1      -4.241  -4.767 -34.099  1.00  0.00     0.002 A 
HETATM   24  C   UNL     1      -3.391  -4.332 -33.093  1.00  0.00     0.002 A 
HETATM   25  C   UNL     1      -3.487  -3.022 -32.618  1.00  0.00     0.033 A 
ENDBRANCH   5  19
TORSDOF 5
ENDMDL
MODEL 7
REMARK VINA RESULT:      -7.1      1.721      2.198
REMARK  5 active torsions:
REMARK  status: ('A' for Active; 'I' for Inactive)
REMARK    1  A    between atoms: C_3  and  N_4 
REMARK       I    between atoms: N_4  and  C_5 
REMARK       I    between atoms: C_5  and  N_6 
REMARK    2  A    between atoms: N_6  and  C_7 
REMARK    3  A    between atoms: C_7  and  C_8 
REMARK    4  A    between atoms: C_8  and  C_9 
REMARK    5  A    between atoms: N_15  and  C_16 
ROOT
HETATM    1  C   UNL     1     -11.278   1.163 -33.331  1.00  0.00     0.054 C 
HETATM    2  C   UNL     1      -9.823   0.988 -33.550  1.00  0.00     0.003 A 
HETATM    3  C   UNL     1      -8.865   1.940 -33.972  1.00  0.00     0.159 A 
HETATM    4  N   UNL     1      -7.639   1.414 -34.019  1.00  0.00    -0.149 NA
HETATM    5  N   UNL     1      -7.783   0.103 -33.675  1.00  0.00    -0.241 N 
HETATM    6  C   UNL     1      -9.088  -0.159 -33.333  1.00  0.00     0.129 A 
ENDROOT
BRANCH   3   7
HETATM    7  N   UNL     1      -9.158   3.248 -34.290  1.00  0.00    -0.291 N 
HETATM    8  C   UNL     1      -8.406   4.368 -34.104  1.00  0.00     0.322 C 
HETATM    9  N   UNL     1      -7.235   4.226 -33.428  1.00  0.00    -0.339 N 
HETATM   10  O   UNL     1      -8.816   5.447 -34.526  1.00  0.00    -0.247 OA
HETATM   11  H   UNL     1      -6.938   3.260 -33.301  1.00  0.00     0.164 HD
HETATM   12  H   UNL     1     -10.036   3.432 -34.749  1.00  0.00     0.172 HD
BRANCH   9  13
HETATM   13  C   UNL     1      -6.264   5.300 -33.292  1.00  0.00     0.082 C 
HETATM   14  C   UNL     1      -6.170   5.744 -31.836  1.00  0.00     0.032 C 
BRANCH  13  15
HETATM   15  C   UNL     1      -4.895   4.915 -33.888  1.00  0.00     0.029 C 
BRANCH  15  16
HETATM   16  C   UNL     1      -3.829   4.659 -32.856  1.00  0.00    -0.013 A 
HETATM   17  C   UNL     1      -3.439   3.239 -32.533  1.00  0.00     0.005 A 
HETATM   18  C   UNL     1      -2.476   4.133 -33.264  1.00  0.00     0.005 A 
ENDBRANCH  15  16
ENDBRANCH  13  15
ENDBRANCH   9  13
ENDBRANCH   3   7
BRANCH   5  19
HETATM   19  C   UNL     1      -6.639  -0.753 -33.657  1.00  0.00     0.079 A 
HETATM   20  C   UNL     1      -5.589  -0.672 -32.729  1.00  0.00     0.062 A 
HETATM   21 CL   UNL     1      -5.555   0.345 -31.330  1.00  0.00    -0.082 Cl
HETATM   22  C   UNL     1      -4.488  -1.540 -32.841  1.00  0.00     0.026 A 
HETATM   23  C   UNL     1      -4.428  -2.500 -33.851  1.00  0.00     0.002 A 
HETATM   24  C   UNL     1      -5.475  -2.612 -34.753  1.00  0.00     0.002 A 
HETATM   25  C   UNL     1      -6.572  -1.752 -34.656  1.00  0.00     0.033 A 
ENDBRANCH   5  19
TORSDOF 5
ENDMDL
MODEL 8
REMARK VINA RESULT:      -7.1      1.833      2.430
REMARK  5 active torsions:
REMARK  status: ('A' for Active; 'I' for Inactive)
REMARK    1  A    between atoms: C_3  and  N_4 
REMARK       I    between atoms: N_4  and  C_5 
REMARK       I    between atoms: C_5  and  N_6 
REMARK    2  A    between atoms: N_6  and  C_7 
REMARK    3  A    between atoms: C_7  and  C_8 
REMARK    4  A    between atoms: C_8  and  C_9 
REMARK    5  A    between atoms: N_15  and  C_16 
ROOT
HETATM    1  C   UNL     1      -9.658   2.213 -34.498  1.00  0.00     0.054 C 
HETATM    2  C   UNL     1      -8.749   1.168 -33.971  1.00  0.00     0.003 A 
HETATM    3  C   UNL     1      -8.348   0.926 -32.636  1.00  0.00     0.159 A 
HETATM    4  N   UNL     1      -7.544  -0.135 -32.550  1.00  0.00    -0.149 NA
HETATM    5  N   UNL     1      -7.371  -0.575 -33.828  1.00  0.00    -0.241 N 
HETATM    6  C   UNL     1      -8.138   0.166 -34.695  1.00  0.00     0.129 A 
ENDROOT
BRANCH   3   7
HETATM    7  N   UNL     1      -8.740   1.689 -31.557  1.00  0.00    -0.291 N 
HETATM    8  C   UNL     1      -8.103   2.738 -30.967  1.00  0.00     0.322 C 
HETATM    9  N   UNL     1      -6.859   3.045 -31.422  1.00  0.00    -0.339 N 
HETATM   10  O   UNL     1      -8.656   3.341 -30.050  1.00  0.00    -0.247 OA
HETATM   11  H   UNL     1      -6.606   2.586 -32.295  1.00  0.00     0.164 HD
HETATM   12  H   UNL     1      -9.633   1.481 -31.137  1.00  0.00     0.172 HD
BRANCH   9  13
HETATM   13  C   UNL     1      -6.131   4.228 -30.994  1.00  0.00     0.082 C 
HETATM   14  C   UNL     1      -5.501   3.992 -29.624  1.00  0.00     0.032 C 
BRANCH  13  15
HETATM   15  C   UNL     1      -5.104   4.683 -32.051  1.00  0.00     0.029 C 
BRANCH  15  16
HETATM   16  C   UNL     1      -3.697   4.224 -31.775  1.00  0.00    -0.013 A 
HETATM   17  C   UNL     1      -3.220   2.916 -32.354  1.00  0.00     0.005 A 
HETATM   18  C   UNL     1      -2.664   4.212 -32.873  1.00  0.00     0.005 A 
ENDBRANCH  15  16
ENDBRANCH  13  15
ENDBRANCH   9  13
ENDBRANCH   3   7
BRANCH   5  19
HETATM   19  C   UNL     1      -6.527  -1.701 -34.080  1.00  0.00     0.079 A 
HETATM   20  C   UNL     1      -5.130  -1.704 -33.942  1.00  0.00     0.062 A 
HETATM   21 CL   UNL     1      -4.179  -0.424 -33.272  1.00  0.00    -0.082 Cl
HETATM   22  C   UNL     1      -4.399  -2.861 -34.266  1.00  0.00     0.026 A 
HETATM   23  C   UNL     1      -5.039  -4.018 -34.707  1.00  0.00     0.002 A 
HETATM   24  C   UNL     1      -6.422  -4.037 -34.816  1.00  0.00     0.002 A 
HETATM   25  C   UNL     1      -7.160  -2.893 -34.502  1.00  0.00     0.033 A 
ENDBRANCH   5  19
TORSDOF 5
ENDMDL
MODEL 9
REMARK VINA RESULT:      -7.0      2.650      4.849
REMARK  5 active torsions:
REMARK  status: ('A' for Active; 'I' for Inactive)
REMARK    1  A    between atoms: C_3  and  N_4 
REMARK       I    between atoms: N_4  and  C_5 
REMARK       I    between atoms: C_5  and  N_6 
REMARK    2  A    between atoms: N_6  and  C_7 
REMARK    3  A    between atoms: C_7  and  C_8 
REMARK    4  A    between atoms: C_8  and  C_9 
REMARK    5  A    between atoms: N_15  and  C_16 
ROOT
HETATM    1  C   UNL     1      -3.387   2.183 -31.937  1.00  0.00     0.054 C 
HETATM    2  C   UNL     1      -4.105   0.905 -32.157  1.00  0.00     0.003 A 
HETATM    3  C   UNL     1      -5.394   0.520 -31.719  1.00  0.00     0.159 A 
HETATM    4  N   UNL     1      -5.712  -0.703 -32.147  1.00  0.00    -0.149 NA
HETATM    5  N   UNL     1      -4.622  -1.153 -32.830  1.00  0.00    -0.241 N 
HETATM    6  C   UNL     1      -3.662  -0.172 -32.894  1.00  0.00     0.129 A 
ENDROOT
BRANCH   3   7
HETATM    7  N   UNL     1      -6.221   1.310 -30.950  1.00  0.00    -0.291 N 
HETATM    8  C   UNL     1      -7.153   2.222 -31.346  1.00  0.00     0.322 C 
HETATM    9  N   UNL     1      -7.241   2.482 -32.678  1.00  0.00    -0.339 N 
HETATM   10  O   UNL     1      -7.848   2.780 -30.500  1.00  0.00    -0.247 OA
HETATM   11  H   UNL     1      -6.738   1.823 -33.269  1.00  0.00     0.164 HD
HETATM   12  H   UNL     1      -6.171   1.204 -29.949  1.00  0.00     0.172 HD
BRANCH   9  13
HETATM   13  C   UNL     1      -8.286   3.312 -33.253  1.00  0.00     0.082 C 
HETATM   14  C   UNL     1      -7.705   4.641 -33.725  1.00  0.00     0.032 C 
BRANCH  13  15
HETATM   15  C   UNL     1      -9.060   2.571 -34.363  1.00  0.00     0.029 C 
BRANCH  15  16
HETATM   16  C   UNL     1     -10.017   1.528 -33.849  1.00  0.00    -0.013 A 
HETATM   17  C   UNL     1     -11.170   1.951 -32.975  1.00  0.00     0.005 A 
HETATM   18  C   UNL     1     -11.431   1.461 -34.371  1.00  0.00     0.005 A 
ENDBRANCH  15  16
ENDBRANCH  13  15
ENDBRANCH   9  13
ENDBRANCH   3   7
BRANCH   5  19
HETATM   19  C   UNL     1      -4.636  -2.464 -33.399  1.00  0.00     0.079 A 
HETATM   20  C   UNL     1      -3.801  -3.521 -33.004  1.00  0.00     0.062 A 
HETATM   21 CL   UNL     1      -2.730  -3.506 -31.646  1.00  0.00    -0.082 Cl
HETATM   22  C   UNL     1      -3.873  -4.756 -33.672  1.00  0.00     0.026 A 
HETATM   23  C   UNL     1      -4.777  -4.960 -34.714  1.00  0.00     0.002 A 
HETATM   24  C   UNL     1      -5.629  -3.934 -35.091  1.00  0.00     0.002 A 
HETATM   25  C   UNL     1      -5.565  -2.699 -34.439  1.00  0.00     0.033 A 
ENDBRANCH   5  19
TORSDOF 5
ENDMDL
MODEL 10
REMARK VINA RESULT:      -7.0      1.860      2.291
REMARK  5 active torsions:
REMARK  status: ('A' for Active; 'I' for Inactive)
REMARK    1  A    between atoms: C_3  and  N_4 
REMARK       I    between atoms: N_4  and  C_5 
REMARK       I    between atoms: C_5  and  N_6 
REMARK    2  A    between atoms: N_6  and  C_7 
REMARK    3  A    between atoms: C_7  and  C_8 
REMARK    4  A    between atoms: C_8  and  C_9 
REMARK    5  A    between atoms: N_15  and  C_16 
ROOT
HETATM    1  C   UNL     1      -7.677   1.958 -31.189  1.00  0.00     0.054 C 
HETATM    2  C   UNL     1      -6.716   1.152 -31.978  1.00  0.00     0.003 A 
HETATM    3  C   UNL     1      -6.030   1.494 -33.166  1.00  0.00     0.159 A 
HETATM    4  N   UNL     1      -5.216   0.514 -33.563  1.00  0.00    -0.149 NA
HETATM    5  N   UNL     1      -5.391  -0.500 -32.669  1.00  0.00    -0.241 N 
HETATM    6  C   UNL     1      -6.253  -0.110 -31.671  1.00  0.00     0.129 A 
ENDROOT
BRANCH   3   7
HETATM    7  N   UNL     1      -6.178   2.693 -33.831  1.00  0.00    -0.291 N 
HETATM    8  C   UNL     1      -5.472   3.848 -33.690  1.00  0.00     0.322 C 
HETATM    9  N   UNL     1      -4.542   3.892 -32.698  1.00  0.00    -0.339 N 
HETATM   10  O   UNL     1      -5.712   4.797 -34.434  1.00  0.00    -0.247 OA
HETATM   11  H   UNL     1      -4.326   2.987 -32.286  1.00  0.00     0.164 HD
HETATM   12  H   UNL     1      -6.886   2.746 -34.547  1.00  0.00     0.172 HD
BRANCH   9  13
HETATM   13  C   UNL     1      -3.614   4.998 -32.532  1.00  0.00     0.082 C 
HETATM   14  C   UNL     1      -4.129   5.964 -31.469  1.00  0.00     0.032 C 
BRANCH  13  15
HETATM   15  C   UNL     1      -2.181   4.506 -32.247  1.00  0.00     0.029 C 
BRANCH  15  16
HETATM   16  C   UNL     1      -1.387   5.421 -31.354  1.00  0.00    -0.013 A 
HETATM   17  C   UNL     1       0.100   5.214 -31.217  1.00  0.00     0.005 A 
HETATM   18  C   UNL     1      -0.423   6.422 -31.941  1.00  0.00     0.005 A 
ENDBRANCH  15  16
ENDBRANCH  13  15
ENDBRANCH   9  13
ENDBRANCH   3   7
BRANCH   5  19
HETATM   19  C   UNL     1      -4.670  -1.722 -32.835  1.00  0.00     0.079 A 
HETATM   20  C   UNL     1      -4.884  -2.648 -33.868  1.00  0.00     0.062 A 
HETATM   21 CL   UNL     1      -5.921  -2.414 -35.233  1.00  0.00    -0.082 Cl
HETATM   22  C   UNL     1      -4.143  -3.842 -33.901  1.00  0.00     0.026 A 
HETATM   23  C   UNL     1      -3.179  -4.119 -32.932  1.00  0.00     0.002 A 
HETATM   24  C   UNL     1      -2.936  -3.197 -31.925  1.00  0.00     0.002 A 
HETATM   25  C   UNL     1      -3.668  -2.008 -31.878  1.00  0.00     0.033 A 
ENDBRANCH   5  19
TORSDOF 5
ENDMDL
