MODEL 1
REMARK VINA RESULT:      -8.2      0.000      0.000
REMARK  6 active torsions:
REMARK  status: ('A' for Active; 'I' for Inactive)
REMARK    1  A    between atoms: C_9  and  C_10 
REMARK    2  A    between atoms: C_12  and  N_13 
REMARK    3  A    between atoms: N_13  and  C_14 
REMARK    4  A    between atoms: C_14  and  C_15 
REMARK    5  A    between atoms: C_15  and  C_16 
REMARK    6  A    between atoms: C_16  and  N_17 
ROOT
HETATM    1  C   UNL     1      -7.811   0.842 -33.782  1.00  0.00     0.071 A 
HETATM    2  N   UNL     1      -9.084   0.445 -33.518  1.00  0.00    -0.218 NA
HETATM    3  C   UNL     1      -9.999   1.426 -33.399  1.00  0.00     0.202 A 
HETATM    4  N   UNL     1      -9.747   2.724 -33.544  1.00  0.00    -0.231 NA
HETATM    5  C   UNL     1      -8.474   3.073 -33.804  1.00  0.00     0.122 A 
HETATM    6  C   UNL     1      -7.453   2.165 -33.928  1.00  0.00     0.052 A 
ENDROOT
BRANCH   1   7
HETATM    7  C   UNL     1      -6.839  -0.251 -33.890  1.00  0.00    -0.006 A 
HETATM    8  C   UNL     1      -5.507  -0.082 -33.486  1.00  0.00     0.014 A 
HETATM    9  C   UNL     1      -4.602  -1.145 -33.545  1.00  0.00     0.013 A 
HETATM   10  C   UNL     1      -5.005  -2.406 -34.003  1.00  0.00    -0.026 A 
HETATM   11  C   UNL     1      -4.107  -3.484 -34.056  1.00  0.00     0.012 A 
HETATM   12  C   UNL     1      -6.339  -2.593 -34.429  1.00  0.00    -0.025 A 
HETATM   13  C   UNL     1      -4.522  -4.734 -34.516  1.00  0.00     0.001 A 
HETATM   14  C   UNL     1      -5.835  -4.920 -34.938  1.00  0.00     0.001 A 
HETATM   15  C   UNL     1      -6.739  -3.855 -34.898  1.00  0.00     0.012 A 
HETATM   16  C   UNL     1      -7.234  -1.512 -34.373  1.00  0.00     0.026 A 
ENDBRANCH   1   7
BRANCH   3  17
HETATM   17  N   UNL     1     -11.320   1.079 -33.130  1.00  0.00    -0.261 NA
HETATM   18  H   UNL     1     -11.404   0.155 -33.564  1.00  0.00     0.130 HD
BRANCH  17  19
HETATM   19  C   UNL     1     -12.296   2.024 -33.647  1.00  0.00     0.097 C 
BRANCH  19  20
HETATM   20  C   UNL     1     -13.176   1.352 -34.702  1.00  0.00     0.042 C 
BRANCH  20  21
HETATM   21  C   UNL     1     -14.335   0.521 -34.163  1.00  0.00     0.230 C 
BRANCH  21  22
HETATM   22  N   UNL     1     -13.863  -0.681 -33.447  1.00  0.00    -0.079 N 
HETATM   23  H   UNL     1     -12.982  -0.455 -32.938  1.00  0.00     0.274 HD
HETATM   24  H   UNL     1     -14.528  -1.050 -32.760  1.00  0.00     0.274 HD
HETATM   25  H   UNL     1     -13.618  -1.440 -34.092  1.00  0.00     0.274 HD
ENDBRANCH  21  22
ENDBRANCH  20  21
ENDBRANCH  19  20
ENDBRANCH  17  19
ENDBRANCH   3  17
TORSDOF 6
ENDMDL
MODEL 2
REMARK VINA RESULT:      -7.9      4.879      7.246
REMARK  6 active torsions:
REMARK  status: ('A' for Active; 'I' for Inactive)
REMARK    1  A    between atoms: C_9  and  C_10 
REMARK    2  A    between atoms: C_12  and  N_13 
REMARK    3  A    between atoms: N_13  and  C_14 
REMARK    4  A    between atoms: C_14  and  C_15 
REMARK    5  A    between atoms: C_15  and  C_16 
REMARK    6  A    between atoms: C_16  and  N_17 
ROOT
HETATM    1  C   UNL     1      -4.237   1.082 -32.389  1.00  0.00     0.071 A 
HETATM    2  N   UNL     1      -3.133   1.684 -31.872  1.00  0.00    -0.218 NA
HETATM    3  C   UNL     1      -3.230   3.006 -31.641  1.00  0.00     0.202 A 
HETATM    4  N   UNL     1      -4.318   3.740 -31.858  1.00  0.00    -0.231 NA
HETATM    5  C   UNL     1      -5.389   3.106 -32.371  1.00  0.00     0.122 A 
HETATM    6  C   UNL     1      -5.403   1.766 -32.665  1.00  0.00     0.052 A 
ENDROOT
BRANCH   1   7
HETATM    7  C   UNL     1      -4.091  -0.355 -32.642  1.00  0.00    -0.006 A 
HETATM    8  C   UNL     1      -3.187  -1.134 -31.908  1.00  0.00     0.014 A 
HETATM    9  C   UNL     1      -3.093  -2.512 -32.122  1.00  0.00     0.013 A 
HETATM   10  C   UNL     1      -3.903  -3.147 -33.072  1.00  0.00    -0.026 A 
HETATM   11  C   UNL     1      -3.825  -4.533 -33.287  1.00  0.00     0.012 A 
HETATM   12  C   UNL     1      -4.811  -2.377 -33.833  1.00  0.00    -0.025 A 
HETATM   13  C   UNL     1      -4.637  -5.151 -34.238  1.00  0.00     0.001 A 
HETATM   14  C   UNL     1      -5.530  -4.394 -34.990  1.00  0.00     0.001 A 
HETATM   15  C   UNL     1      -5.615  -3.014 -34.792  1.00  0.00     0.012 A 
HETATM   16  C   UNL     1      -4.886  -0.992 -33.612  1.00  0.00     0.026 A 
ENDBRANCH   1   7
BRANCH   3  17
HETATM   17  N   UNL     1      -2.130   3.675 -31.110  1.00  0.00    -0.261 NA
HETATM   18  H   UNL     1      -2.378   3.769 -30.122  1.00  0.00     0.130 HD
BRANCH  17  19
HETATM   19  C   UNL     1      -1.858   4.957 -31.737  1.00  0.00     0.097 C 
BRANCH  19  20
HETATM   20  C   UNL     1      -0.370   5.294 -31.631  1.00  0.00     0.042 C 
BRANCH  20  21
HETATM   21  C   UNL     1       0.081   5.873 -30.296  1.00  0.00     0.230 C 
BRANCH  21  22
HETATM   22  N   UNL     1       0.314   4.818 -29.289  1.00  0.00    -0.079 N 
HETATM   23  H   UNL     1      -0.370   4.046 -29.435  1.00  0.00     0.274 HD
HETATM   24  H   UNL     1       1.252   4.406 -29.320  1.00  0.00     0.274 HD
HETATM   25  H   UNL     1       0.146   5.154 -28.335  1.00  0.00     0.274 HD
ENDBRANCH  21  22
ENDBRANCH  20  21
ENDBRANCH  19  20
ENDBRANCH  17  19
ENDBRANCH   3  17
TORSDOF 6
ENDMDL
MODEL 3
REMARK VINA RESULT:      -7.7      4.137      6.241
REMARK  6 active torsions:
REMARK  status: ('A' for Active; 'I' for Inactive)
REMARK    1  A    between atoms: C_9  and  C_10 
REMARK    2  A    between atoms: C_12  and  N_13 
REMARK    3  A    between atoms: N_13  and  C_14 
REMARK    4  A    between atoms: C_14  and  C_15 
REMARK    5  A    between atoms: C_15  and  C_16 
REMARK    6  A    between atoms: C_16  and  N_17 
ROOT
HETATM    1  C   UNL     1      -5.569   1.645 -32.293  1.00  0.00     0.071 A 
HETATM    2  N   UNL     1      -4.242   1.877 -32.110  1.00  0.00    -0.218 NA
HETATM    3  C   UNL     1      -3.917   3.064 -31.563  1.00  0.00     0.202 A 
HETATM    4  N   UNL     1      -4.790   3.990 -31.178  1.00  0.00    -0.231 NA
HETATM    5  C   UNL     1      -6.094   3.720 -31.379  1.00  0.00     0.122 A 
HETATM    6  C   UNL     1      -6.544   2.555 -31.944  1.00  0.00     0.052 A 
ENDROOT
BRANCH   1   7
HETATM    7  C   UNL     1      -5.885   0.350 -32.905  1.00  0.00    -0.006 A 
HETATM    8  C   UNL     1      -7.157   0.086 -33.431  1.00  0.00     0.014 A 
HETATM    9  C   UNL     1      -7.432  -1.133 -34.058  1.00  0.00     0.013 A 
HETATM   10  C   UNL     1      -6.442  -2.117 -34.180  1.00  0.00    -0.026 A 
HETATM   11  C   UNL     1      -6.705  -3.339 -34.817  1.00  0.00     0.012 A 
HETATM   12  C   UNL     1      -5.158  -1.876 -33.643  1.00  0.00    -0.025 A 
HETATM   13  C   UNL     1      -5.710  -4.311 -34.930  1.00  0.00     0.001 A 
HETATM   14  C   UNL     1      -4.445  -4.077 -34.399  1.00  0.00     0.001 A 
HETATM   15  C   UNL     1      -4.170  -2.868 -33.756  1.00  0.00     0.012 A 
HETATM   16  C   UNL     1      -4.900  -0.650 -33.007  1.00  0.00     0.026 A 
ENDBRANCH   1   7
BRANCH   3  17
HETATM   17  N   UNL     1      -2.572   3.356 -31.349  1.00  0.00    -0.261 NA
HETATM   18  H   UNL     1      -2.515   3.427 -30.330  1.00  0.00     0.130 HD
BRANCH  17  19
HETATM   19  C   UNL     1      -2.117   4.565 -32.015  1.00  0.00     0.097 C 
BRANCH  19  20
HETATM   20  C   UNL     1      -2.168   4.385 -33.533  1.00  0.00     0.042 C 
BRANCH  20  21
HETATM   21  C   UNL     1      -2.482   5.641 -34.336  1.00  0.00     0.230 C 
BRANCH  21  22
HETATM   22  N   UNL     1      -3.509   5.393 -35.367  1.00  0.00    -0.079 N 
HETATM   23  H   UNL     1      -4.215   6.159 -35.342  1.00  0.00     0.274 HD
HETATM   24  H   UNL     1      -3.143   5.345 -36.323  1.00  0.00     0.274 HD
HETATM   25  H   UNL     1      -4.035   4.531 -35.185  1.00  0.00     0.274 HD
ENDBRANCH  21  22
ENDBRANCH  20  21
ENDBRANCH  19  20
ENDBRANCH  17  19
ENDBRANCH   3  17
TORSDOF 6
ENDMDL
MODEL 4
REMARK VINA RESULT:      -7.5      1.435      2.008
REMARK  6 active torsions:
REMARK  status: ('A' for Active; 'I' for Inactive)
REMARK    1  A    between atoms: C_9  and  C_10 
REMARK    2  A    between atoms: C_12  and  N_13 
REMARK    3  A    between atoms: N_13  and  C_14 
REMARK    4  A    between atoms: C_14  and  C_15 
REMARK    5  A    between atoms: C_15  and  C_16 
REMARK    6  A    between atoms: C_16  and  N_17 
ROOT
HETATM    1  C   UNL     1      -6.261   1.455 -33.256  1.00  0.00     0.071 A 
HETATM    2  N   UNL     1      -7.493   1.661 -33.792  1.00  0.00    -0.218 NA
HETATM    3  C   UNL     1      -8.041   2.871 -33.574  1.00  0.00     0.202 A 
HETATM    4  N   UNL     1      -7.458   3.862 -32.903  1.00  0.00    -0.231 NA
HETATM    5  C   UNL     1      -6.240   3.615 -32.388  1.00  0.00     0.122 A 
HETATM    6  C   UNL     1      -5.590   2.415 -32.529  1.00  0.00     0.052 A 
ENDROOT
BRANCH   1   7
HETATM    7  C   UNL     1      -5.702   0.121 -33.500  1.00  0.00    -0.006 A 
HETATM    8  C   UNL     1      -4.373  -0.181 -33.174  1.00  0.00     0.014 A 
HETATM    9  C   UNL     1      -3.865  -1.469 -33.364  1.00  0.00     0.013 A 
HETATM   10  C   UNL     1      -4.675  -2.490 -33.879  1.00  0.00    -0.026 A 
HETATM   11  C   UNL     1      -4.178  -3.791 -34.063  1.00  0.00     0.012 A 
HETATM   12  C   UNL     1      -6.013  -2.203 -34.228  1.00  0.00    -0.025 A 
HETATM   13  C   UNL     1      -4.995  -4.797 -34.578  1.00  0.00     0.001 A 
HETATM   14  C   UNL     1      -6.313  -4.515 -34.925  1.00  0.00     0.001 A 
HETATM   15  C   UNL     1      -6.819  -3.225 -34.754  1.00  0.00     0.012 A 
HETATM   16  C   UNL     1      -6.505  -0.900 -34.040  1.00  0.00     0.026 A 
ENDBRANCH   1   7
BRANCH   3  17
HETATM   17  N   UNL     1      -9.301   3.141 -34.102  1.00  0.00    -0.261 NA
HETATM   18  H   UNL     1      -9.108   3.882 -34.781  1.00  0.00     0.130 HD
BRANCH  17  19
HETATM   19  C   UNL     1     -10.285   3.541 -33.110  1.00  0.00     0.097 C 
BRANCH  19  20
HETATM   20  C   UNL     1     -11.507   2.625 -33.177  1.00  0.00     0.042 C 
BRANCH  20  21
HETATM   21  C   UNL     1     -11.257   1.232 -33.741  1.00  0.00     0.230 C 
BRANCH  21  22
HETATM   22  N   UNL     1     -10.507   0.381 -32.795  1.00  0.00    -0.079 N 
HETATM   23  H   UNL     1      -9.893  -0.270 -33.329  1.00  0.00     0.274 HD
HETATM   24  H   UNL     1      -9.910   0.900 -32.143  1.00  0.00     0.274 HD
HETATM   25  H   UNL     1     -11.129  -0.221 -32.245  1.00  0.00     0.274 HD
ENDBRANCH  21  22
ENDBRANCH  20  21
ENDBRANCH  19  20
ENDBRANCH  17  19
ENDBRANCH   3  17
TORSDOF 6
ENDMDL
MODEL 5
REMARK VINA RESULT:      -7.5      3.030      4.223
REMARK  6 active torsions:
REMARK  status: ('A' for Active; 'I' for Inactive)
REMARK    1  A    between atoms: C_9  and  C_10 
REMARK    2  A    between atoms: C_12  and  N_13 
REMARK    3  A    between atoms: N_13  and  C_14 
REMARK    4  A    between atoms: C_14  and  C_15 
REMARK    5  A    between atoms: C_15  and  C_16 
REMARK    6  A    between atoms: C_16  and  N_17 
ROOT
HETATM    1  C   UNL     1      -4.981   1.021 -32.341  1.00  0.00     0.071 A 
HETATM    2  N   UNL     1      -5.960   1.692 -31.677  1.00  0.00    -0.218 NA
HETATM    3  C   UNL     1      -5.583   2.816 -31.041  1.00  0.00     0.202 A 
HETATM    4  N   UNL     1      -4.349   3.314 -31.040  1.00  0.00    -0.231 NA
HETATM    5  C   UNL     1      -3.410   2.619 -31.709  1.00  0.00     0.122 A 
HETATM    6  C   UNL     1      -3.671   1.450 -32.378  1.00  0.00     0.052 A 
ENDROOT
BRANCH   1   7
HETATM    7  C   UNL     1      -5.424  -0.207 -33.009  1.00  0.00    -0.006 A 
HETATM    8  C   UNL     1      -6.659  -0.272 -33.667  1.00  0.00     0.014 A 
HETATM    9  C   UNL     1      -7.048  -1.431 -34.344  1.00  0.00     0.013 A 
HETATM   10  C   UNL     1      -6.211  -2.553 -34.386  1.00  0.00    -0.026 A 
HETATM   11  C   UNL     1      -6.587  -3.718 -35.073  1.00  0.00     0.012 A 
HETATM   12  C   UNL     1      -4.968  -2.514 -33.716  1.00  0.00    -0.025 A 
HETATM   13  C   UNL     1      -5.744  -4.829 -35.104  1.00  0.00     0.001 A 
HETATM   14  C   UNL     1      -4.520  -4.793 -34.443  1.00  0.00     0.001 A 
HETATM   15  C   UNL     1      -4.134  -3.643 -33.750  1.00  0.00     0.012 A 
HETATM   16  C   UNL     1      -4.596  -1.344 -33.032  1.00  0.00     0.026 A 
ENDBRANCH   1   7
BRANCH   3  17
HETATM   17  N   UNL     1      -6.544   3.546 -30.347  1.00  0.00    -0.261 NA
HETATM   18  H   UNL     1      -6.979   2.838 -29.750  1.00  0.00     0.130 HD
BRANCH  17  19
HETATM   19  C   UNL     1      -7.509   4.216 -31.203  1.00  0.00     0.097 C 
BRANCH  19  20
HETATM   20  C   UNL     1      -8.807   4.475 -30.435  1.00  0.00     0.042 C 
BRANCH  20  21
HETATM   21  C   UNL     1      -9.792   3.313 -30.396  1.00  0.00     0.230 C 
BRANCH  21  22
HETATM   22  N   UNL     1      -9.158   2.040 -30.793  1.00  0.00    -0.079 N 
HETATM   23  H   UNL     1      -8.509   2.213 -31.589  1.00  0.00     0.274 HD
HETATM   24  H   UNL     1      -8.617   1.589 -30.048  1.00  0.00     0.274 HD
HETATM   25  H   UNL     1      -9.844   1.362 -31.142  1.00  0.00     0.274 HD
ENDBRANCH  21  22
ENDBRANCH  20  21
ENDBRANCH  19  20
ENDBRANCH  17  19
ENDBRANCH   3  17
TORSDOF 6
ENDMDL
MODEL 6
REMARK VINA RESULT:      -7.3      5.367      7.930
REMARK  6 active torsions:
REMARK  status: ('A' for Active; 'I' for Inactive)
REMARK    1  A    between atoms: C_9  and  C_10 
REMARK    2  A    between atoms: C_12  and  N_13 
REMARK    3  A    between atoms: N_13  and  C_14 
REMARK    4  A    between atoms: C_14  and  C_15 
REMARK    5  A    between atoms: C_15  and  C_16 
REMARK    6  A    between atoms: C_16  and  N_17 
ROOT
HETATM    1  C   UNL     1      -4.758   3.448 -32.283  1.00  0.00     0.071 A 
HETATM    2  N   UNL     1      -3.449   3.322 -31.938  1.00  0.00    -0.218 NA
HETATM    3  C   UNL     1      -2.877   4.402 -31.374  1.00  0.00     0.202 A 
HETATM    4  N   UNL     1      -3.501   5.549 -31.117  1.00  0.00    -0.231 NA
HETATM    5  C   UNL     1      -4.796   5.631 -31.475  1.00  0.00     0.122 A 
HETATM    6  C   UNL     1      -5.480   4.604 -32.074  1.00  0.00     0.052 A 
ENDROOT
BRANCH   1   7
HETATM    7  C   UNL     1      -5.344   2.258 -32.909  1.00  0.00    -0.006 A 
HETATM    8  C   UNL     1      -6.528   2.337 -33.654  1.00  0.00     0.014 A 
HETATM    9  C   UNL     1      -7.050   1.207 -34.289  1.00  0.00     0.013 A 
HETATM   10  C   UNL     1      -6.399  -0.031 -34.201  1.00  0.00    -0.026 A 
HETATM   11  C   UNL     1      -6.908  -1.170 -34.844  1.00  0.00     0.012 A 
HETATM   12  C   UNL     1      -5.211  -0.135 -33.442  1.00  0.00    -0.025 A 
HETATM   13  C   UNL     1      -6.250  -2.396 -34.745  1.00  0.00     0.001 A 
HETATM   14  C   UNL     1      -5.081  -2.501 -33.997  1.00  0.00     0.001 A 
HETATM   15  C   UNL     1      -4.566  -1.378 -33.346  1.00  0.00     0.012 A 
HETATM   16  C   UNL     1      -4.705   1.009 -32.802  1.00  0.00     0.026 A 
ENDBRANCH   1   7
BRANCH   3  17
HETATM   17  N   UNL     1      -1.538   4.330 -30.997  1.00  0.00    -0.261 NA
HETATM   18  H   UNL     1      -1.568   4.586 -30.006  1.00  0.00     0.130 HD
BRANCH  17  19
HETATM   19  C   UNL     1      -0.660   5.196 -31.766  1.00  0.00     0.097 C 
BRANCH  19  20
HETATM   20  C   UNL     1       0.335   5.897 -30.841  1.00  0.00     0.042 C 
BRANCH  20  21
HETATM   21  C   UNL     1       0.721   5.128 -29.583  1.00  0.00     0.230 C 
BRANCH  21  22
HETATM   22  N   UNL     1      -0.054   5.572 -28.407  1.00  0.00    -0.079 N 
HETATM   23  H   UNL     1      -1.034   5.227 -28.490  1.00  0.00     0.274 HD
HETATM   24  H   UNL     1       0.313   5.239 -27.510  1.00  0.00     0.274 HD
HETATM   25  H   UNL     1      -0.127   6.594 -28.360  1.00  0.00     0.274 HD
ENDBRANCH  21  22
ENDBRANCH  20  21
ENDBRANCH  19  20
ENDBRANCH  17  19
ENDBRANCH   3  17
TORSDOF 6
ENDMDL
MODEL 7
REMARK VINA RESULT:      -7.2      1.909      2.203
REMARK  6 active torsions:
REMARK  status: ('A' for Active; 'I' for Inactive)
REMARK    1  A    between atoms: C_9  and  C_10 
REMARK    2  A    between atoms: C_12  and  N_13 
REMARK    3  A    between atoms: N_13  and  C_14 
REMARK    4  A    between atoms: C_14  and  C_15 
REMARK    5  A    between atoms: C_15  and  C_16 
REMARK    6  A    between atoms: C_16  and  N_17 
ROOT
HETATM    1  C   UNL     1      -6.753   1.158 -33.861  1.00  0.00     0.071 A 
HETATM    2  N   UNL     1      -8.036   1.126 -34.309  1.00  0.00    -0.218 NA
HETATM    3  C   UNL     1      -8.715   2.286 -34.251  1.00  0.00     0.202 A 
HETATM    4  N   UNL     1      -8.216   3.440 -33.816  1.00  0.00    -0.231 NA
HETATM    5  C   UNL     1      -6.942   3.428 -33.381  1.00  0.00     0.122 A 
HETATM    6  C   UNL     1      -6.158   2.303 -33.374  1.00  0.00     0.052 A 
ENDROOT
BRANCH   1   7
HETATM    7  C   UNL     1      -6.049  -0.127 -33.924  1.00  0.00    -0.006 A 
HETATM    8  C   UNL     1      -4.751  -0.270 -33.415  1.00  0.00     0.014 A 
HETATM    9  C   UNL     1      -4.109  -1.512 -33.434  1.00  0.00     0.013 A 
HETATM   10  C   UNL     1      -4.750  -2.643 -33.957  1.00  0.00    -0.026 A 
HETATM   11  C   UNL     1      -4.118  -3.897 -33.970  1.00  0.00     0.012 A 
HETATM   12  C   UNL     1      -6.053  -2.516 -34.488  1.00  0.00    -0.025 A 
HETATM   13  C   UNL     1      -4.768  -5.014 -34.495  1.00  0.00     0.001 A 
HETATM   14  C   UNL     1      -6.050  -4.891 -35.021  1.00  0.00     0.001 A 
HETATM   15  C   UNL     1      -6.689  -3.649 -35.021  1.00  0.00     0.012 A 
HETATM   16  C   UNL     1      -6.680  -1.259 -34.470  1.00  0.00     0.026 A 
ENDBRANCH   1   7
BRANCH   3  17
HETATM   17  N   UNL     1     -10.033   2.313 -34.699  1.00  0.00    -0.261 NA
HETATM   18  H   UNL     1      -9.930   2.541 -35.692  1.00  0.00     0.130 HD
BRANCH  17  19
HETATM   19  C   UNL     1     -10.877   3.266 -33.997  1.00  0.00     0.097 C 
BRANCH  19  20
HETATM   20  C   UNL     1     -11.483   4.264 -34.985  1.00  0.00     0.042 C 
BRANCH  20  21
HETATM   21  C   UNL     1     -12.924   4.675 -34.708  1.00  0.00     0.230 C 
BRANCH  21  22
HETATM   22  N   UNL     1     -13.441   5.596 -35.740  1.00  0.00    -0.079 N 
HETATM   23  H   UNL     1     -12.671   5.845 -36.396  1.00  0.00     0.274 HD
HETATM   24  H   UNL     1     -14.210   5.213 -36.299  1.00  0.00     0.274 HD
HETATM   25  H   UNL     1     -13.754   6.486 -35.337  1.00  0.00     0.274 HD
ENDBRANCH  21  22
ENDBRANCH  20  21
ENDBRANCH  19  20
ENDBRANCH  17  19
ENDBRANCH   3  17
TORSDOF 6
ENDMDL
MODEL 8
REMARK VINA RESULT:      -7.1      1.616      2.742
REMARK  6 active torsions:
REMARK  status: ('A' for Active; 'I' for Inactive)
REMARK    1  A    between atoms: C_9  and  C_10 
REMARK    2  A    between atoms: C_12  and  N_13 
REMARK    3  A    between atoms: N_13  and  C_14 
REMARK    4  A    between atoms: C_14  and  C_15 
REMARK    5  A    between atoms: C_15  and  C_16 
REMARK    6  A    between atoms: C_16  and  N_17 
ROOT
HETATM    1  C   UNL     1      -6.373   1.652 -33.479  1.00  0.00     0.071 A 
HETATM    2  N   UNL     1      -7.560   2.265 -33.727  1.00  0.00    -0.218 NA
HETATM    3  C   UNL     1      -7.627   3.575 -33.426  1.00  0.00     0.202 A 
HETATM    4  N   UNL     1      -6.622   4.296 -32.935  1.00  0.00    -0.231 NA
HETATM    5  C   UNL     1      -5.465   3.650 -32.703  1.00  0.00     0.122 A 
HETATM    6  C   UNL     1      -5.284   2.313 -32.952  1.00  0.00     0.052 A 
ENDROOT
BRANCH   1   7
HETATM    7  C   UNL     1      -6.341   0.222 -33.805  1.00  0.00    -0.006 A 
HETATM    8  C   UNL     1      -7.398  -0.391 -34.491  1.00  0.00     0.014 A 
HETATM    9  C   UNL     1      -7.334  -1.742 -34.842  1.00  0.00     0.013 A 
HETATM   10  C   UNL     1      -6.211  -2.515 -34.520  1.00  0.00    -0.026 A 
HETATM   11  C   UNL     1      -6.132  -3.870 -34.877  1.00  0.00     0.012 A 
HETATM   12  C   UNL     1      -5.141  -1.919 -33.815  1.00  0.00    -0.025 A 
HETATM   13  C   UNL     1      -5.007  -4.628 -34.549  1.00  0.00     0.001 A 
HETATM   14  C   UNL     1      -3.953  -4.044 -33.852  1.00  0.00     0.001 A 
HETATM   15  C   UNL     1      -4.020  -2.698 -33.484  1.00  0.00     0.012 A 
HETATM   16  C   UNL     1      -5.225  -0.562 -33.461  1.00  0.00     0.026 A 
ENDBRANCH   1   7
BRANCH   3  17
HETATM   17  N   UNL     1      -8.818   4.256 -33.662  1.00  0.00    -0.261 NA
HETATM   18  H   UNL     1      -9.194   4.389 -32.719  1.00  0.00     0.130 HD
BRANCH  17  19
HETATM   19  C   UNL     1      -9.742   3.547 -34.531  1.00  0.00     0.097 C 
BRANCH  19  20
HETATM   20  C   UNL     1     -11.156   3.592 -33.950  1.00  0.00     0.042 C 
BRANCH  20  21
HETATM   21  C   UNL     1     -11.619   2.324 -33.244  1.00  0.00     0.230 C 
BRANCH  21  22
HETATM   22  N   UNL     1     -10.486   1.564 -32.677  1.00  0.00    -0.079 N 
HETATM   23  H   UNL     1      -9.914   1.169 -33.454  1.00  0.00     0.274 HD
HETATM   24  H   UNL     1      -9.859   2.120 -32.087  1.00  0.00     0.274 HD
HETATM   25  H   UNL     1     -10.801   0.755 -32.132  1.00  0.00     0.274 HD
ENDBRANCH  21  22
ENDBRANCH  20  21
ENDBRANCH  19  20
ENDBRANCH  17  19
ENDBRANCH   3  17
TORSDOF 6
ENDMDL
MODEL 9
REMARK VINA RESULT:      -7.0      1.423      2.104
REMARK  6 active torsions:
REMARK  status: ('A' for Active; 'I' for Inactive)
REMARK    1  A    between atoms: C_9  and  C_10 
REMARK    2  A    between atoms: C_12  and  N_13 
REMARK    3  A    between atoms: N_13  and  C_14 
REMARK    4  A    between atoms: C_14  and  C_15 
REMARK    5  A    between atoms: C_15  and  C_16 
REMARK    6  A    between atoms: C_16  and  N_17 
ROOT
HETATM    1  C   UNL     1      -8.291   1.411 -32.885  1.00  0.00     0.071 A 
HETATM    2  N   UNL     1      -9.621   1.229 -33.099  1.00  0.00    -0.218 NA
HETATM    3  C   UNL     1     -10.425   2.249 -32.746  1.00  0.00     0.202 A 
HETATM    4  N   UNL     1     -10.009   3.405 -32.235  1.00  0.00    -0.231 NA
HETATM    5  C   UNL     1      -8.685   3.544 -32.039  1.00  0.00     0.122 A 
HETATM    6  C   UNL     1      -7.771   2.567 -32.342  1.00  0.00     0.052 A 
ENDROOT
BRANCH   1   7
HETATM    7  C   UNL     1      -7.447   0.274 -33.266  1.00  0.00    -0.006 A 
HETATM    8  C   UNL     1      -7.718  -0.479 -34.417  1.00  0.00     0.014 A 
HETATM    9  C   UNL     1      -6.878  -1.528 -34.799  1.00  0.00     0.013 A 
HETATM   10  C   UNL     1      -5.741  -1.849 -34.044  1.00  0.00    -0.026 A 
HETATM   11  C   UNL     1      -4.884  -2.894 -34.426  1.00  0.00     0.012 A 
HETATM   12  C   UNL     1      -5.458  -1.112 -32.873  1.00  0.00    -0.025 A 
HETATM   13  C   UNL     1      -3.757  -3.203 -33.663  1.00  0.00     0.001 A 
HETATM   14  C   UNL     1      -3.478  -2.479 -32.508  1.00  0.00     0.001 A 
HETATM   15  C   UNL     1      -4.325  -1.441 -32.112  1.00  0.00     0.012 A 
HETATM   16  C   UNL     1      -6.319  -0.066 -32.497  1.00  0.00     0.026 A 
ENDBRANCH   1   7
BRANCH   3  17
HETATM   17  N   UNL     1     -11.797   2.119 -32.944  1.00  0.00    -0.261 NA
HETATM   18  H   UNL     1     -12.030   1.294 -32.385  1.00  0.00     0.130 HD
BRANCH  17  19
HETATM   19  C   UNL     1     -12.180   1.969 -34.338  1.00  0.00     0.097 C 
BRANCH  19  20
HETATM   20  C   UNL     1     -13.211   0.848 -34.485  1.00  0.00     0.042 C 
BRANCH  20  21
HETATM   21  C   UNL     1     -14.412   0.930 -33.551  1.00  0.00     0.230 C 
BRANCH  21  22
HETATM   22  N   UNL     1     -14.880   2.320 -33.376  1.00  0.00    -0.079 N 
HETATM   23  H   UNL     1     -15.505   2.371 -32.544  1.00  0.00     0.274 HD
HETATM   24  H   UNL     1     -14.128   3.003 -33.237  1.00  0.00     0.274 HD
HETATM   25  H   UNL     1     -15.452   2.634 -34.167  1.00  0.00     0.274 HD
ENDBRANCH  21  22
ENDBRANCH  20  21
ENDBRANCH  19  20
ENDBRANCH  17  19
ENDBRANCH   3  17
TORSDOF 6
ENDMDL
MODEL 10
REMARK VINA RESULT:      -6.9      2.460      7.234
REMARK  6 active torsions:
REMARK  status: ('A' for Active; 'I' for Inactive)
REMARK    1  A    between atoms: C_9  and  C_10 
REMARK    2  A    between atoms: C_12  and  N_13 
REMARK    3  A    between atoms: N_13  and  C_14 
REMARK    4  A    between atoms: C_14  and  C_15 
REMARK    5  A    between atoms: C_15  and  C_16 
REMARK    6  A    between atoms: C_16  and  N_17 
ROOT
HETATM    1  C   UNL     1      -8.166   0.437 -32.470  1.00  0.00     0.071 A 
HETATM    2  N   UNL     1      -7.594  -0.469 -33.307  1.00  0.00    -0.218 NA
HETATM    3  C   UNL     1      -6.382  -0.928 -32.946  1.00  0.00     0.202 A 
HETATM    4  N   UNL     1      -5.733  -0.579 -31.839  1.00  0.00    -0.231 NA
HETATM    5  C   UNL     1      -6.333   0.322 -31.039  1.00  0.00     0.122 A 
HETATM    6  C   UNL     1      -7.559   0.874 -31.312  1.00  0.00     0.052 A 
ENDROOT
BRANCH   1   7
HETATM    7  C   UNL     1      -9.479   0.928 -32.902  1.00  0.00    -0.006 A 
HETATM    8  C   UNL     1      -9.671   2.267 -33.268  1.00  0.00     0.014 A 
HETATM    9  C   UNL     1     -10.913   2.711 -33.727  1.00  0.00     0.013 A 
HETATM   10  C   UNL     1     -11.996   1.828 -33.837  1.00  0.00    -0.026 A 
HETATM   11  C   UNL     1     -13.245   2.262 -34.307  1.00  0.00     0.012 A 
HETATM   12  C   UNL     1     -11.827   0.477 -33.459  1.00  0.00    -0.025 A 
HETATM   13  C   UNL     1     -14.314   1.371 -34.410  1.00  0.00     0.001 A 
HETATM   14  C   UNL     1     -14.151   0.041 -34.035  1.00  0.00     0.001 A 
HETATM   15  C   UNL     1     -12.916  -0.404 -33.560  1.00  0.00     0.012 A 
HETATM   16  C   UNL     1     -10.574   0.049 -32.990  1.00  0.00     0.026 A 
ENDBRANCH   1   7
BRANCH   3  17
HETATM   17  N   UNL     1      -5.750  -1.861 -33.764  1.00  0.00    -0.261 NA
HETATM   18  H   UNL     1      -5.157  -1.276 -34.359  1.00  0.00     0.130 HD
BRANCH  17  19
HETATM   19  C   UNL     1      -6.664  -2.687 -34.535  1.00  0.00     0.097 C 
BRANCH  19  20
HETATM   20  C   UNL     1      -5.966  -3.972 -34.983  1.00  0.00     0.042 C 
BRANCH  20  21
HETATM   21  C   UNL     1      -4.534  -4.150 -34.495  1.00  0.00     0.230 C 
BRANCH  21  22
HETATM   22  N   UNL     1      -4.220  -5.566 -34.215  1.00  0.00    -0.079 N 
HETATM   23  H   UNL     1      -3.778  -5.993 -35.057  1.00  0.00     0.274 HD
HETATM   24  H   UNL     1      -3.579  -5.707 -33.428  1.00  0.00     0.274 HD
HETATM   25  H   UNL     1      -5.065  -6.119 -34.041  1.00  0.00     0.274 HD
ENDBRANCH  21  22
ENDBRANCH  20  21
ENDBRANCH  19  20
ENDBRANCH  17  19
ENDBRANCH   3  17
TORSDOF 6
ENDMDL
