MODEL 1
REMARK VINA RESULT:      -9.6      0.000      0.000
REMARK  5 active torsions:
REMARK  status: ('A' for Active; 'I' for Inactive)
REMARK    1  A    between atoms: N_4  and  C_5 
REMARK    2  A    between atoms: C_16  and  N_17 
REMARK       I    between atoms: N_17  and  C_18 
REMARK    3  A    between atoms: C_18  and  C_19 
REMARK       I    between atoms: C_19  and  N_20 
REMARK    4  A    between atoms: N_20  and  C_21 
REMARK    5  A    between atoms: C_21  and  C_22 
ROOT
HETATM    1  C   UNL     1      -1.882   5.184 -33.405  1.00  0.00     0.072 C 
HETATM    2  C   UNL     1      -2.986   4.385 -32.818  1.00  0.00     0.055 C 
HETATM    3  N   UNL     1      -4.028   4.014 -33.567  1.00  0.00    -0.156 NA
HETATM    4  N   UNL     1      -4.836   3.309 -32.708  1.00  0.00    -0.045 N 
HETATM    5  C   UNL     1      -4.216   3.115 -31.473  1.00  0.00     0.152 C 
HETATM    6  C   UNL     1      -3.091   3.911 -31.494  1.00  0.00     0.079 C 
ENDROOT
BRANCH   5   7
HETATM    7  N   UNL     1      -4.666   2.356 -30.405  1.00  0.00    -0.303 N 
HETATM    8  C   UNL     1      -4.637   0.975 -30.305  1.00  0.00     0.315 C 
HETATM    9  O   UNL     1      -5.205   0.384 -29.387  1.00  0.00    -0.262 OA
HETATM   10  H   UNL     1      -4.868   2.818 -29.528  1.00  0.00     0.171 HD
BRANCH   8  11
HETATM   11  C   UNL     1      -3.746   0.151 -31.263  1.00  0.00     0.310 C 
HETATM   12  N   UNL     1      -4.445  -0.502 -32.253  1.00  0.00    -0.349 N 
HETATM   13  H   UNL     1      -5.458  -0.436 -32.224  1.00  0.00     0.163 HD
HETATM   14  O   UNL     1      -2.538   0.069 -31.094  1.00  0.00    -0.262 OA
BRANCH  12  15
HETATM   15  C   UNL     1      -3.819  -1.475 -33.109  1.00  0.00     0.163 C 
BRANCH  15  16
HETATM   16  C   UNL     1      -4.826  -2.372 -33.776  1.00  0.00    -0.019 A 
HETATM   17  C   UNL     1      -4.603  -3.743 -33.979  1.00  0.00     0.042 A 
HETATM   18 CL   UNL     1      -3.171  -4.527 -33.415  1.00  0.00    -0.084 Cl
HETATM   19  C   UNL     1      -5.549  -4.524 -34.652  1.00  0.00     0.024 A 
HETATM   20  C   UNL     1      -6.733  -3.951 -35.115  1.00  0.00     0.002 A 
HETATM   21  C   UNL     1      -6.983  -2.601 -34.888  1.00  0.00     0.001 A 
HETATM   22  C   UNL     1      -6.041  -1.819 -34.219  1.00  0.00     0.010 A 
ENDBRANCH  15  16
ENDBRANCH  12  15
ENDBRANCH   8  11
ENDBRANCH   5   7
BRANCH   4  23
HETATM   23  C   UNL     1      -6.164   3.041 -33.107  1.00  0.00     0.732 A 
HETATM   24  N   UNL     1      -6.748   1.896 -32.962  1.00  0.00    -0.067 NA
HETATM   25  C   UNL     1      -8.062   1.817 -33.363  1.00  0.00     0.065 A 
HETATM   26  C   UNL     1      -8.765   2.852 -33.860  1.00  0.00     0.036 A 
HETATM   27  C   UNL     1      -8.707   0.464 -33.166  1.00  0.00     0.060 C 
HETATM   28  C   UNL     1     -10.208   2.785 -34.260  1.00  0.00     0.046 C 
HETATM   29  C   UNL     1      -8.066   4.151 -34.017  1.00  0.00     0.268 A 
HETATM   30  C   UNL     1     -10.760   1.359 -34.314  1.00  0.00     0.005 C 
HETATM   31  C   UNL     1     -10.236   0.510 -33.164  1.00  0.00     0.006 C 
HETATM   32  O   UNL     1      -8.627   5.146 -34.462  1.00  0.00    -0.267 OA
HETATM   33  N   UNL     1      -6.765   4.156 -33.625  1.00  0.00    -0.152 N 
HETATM   34  H   UNL     1      -6.233   5.018 -33.674  1.00  0.00     0.188 HD
ENDBRANCH   4  23
TORSDOF 5
ENDMDL
MODEL 2
REMARK VINA RESULT:      -9.0      2.082      4.761
REMARK  5 active torsions:
REMARK  status: ('A' for Active; 'I' for Inactive)
REMARK    1  A    between atoms: N_4  and  C_5 
REMARK    2  A    between atoms: C_16  and  N_17 
REMARK       I    between atoms: N_17  and  C_18 
REMARK    3  A    between atoms: C_18  and  C_19 
REMARK       I    between atoms: C_19  and  N_20 
REMARK    4  A    between atoms: N_20  and  C_21 
REMARK    5  A    between atoms: C_21  and  C_22 
ROOT
HETATM    1  C   UNL     1     -10.731   1.635 -33.471  1.00  0.00     0.072 C 
HETATM    2  C   UNL     1      -9.489   1.914 -32.709  1.00  0.00     0.055 C 
HETATM    3  N   UNL     1      -8.836   3.067 -32.875  1.00  0.00    -0.156 NA
HETATM    4  N   UNL     1      -7.755   2.976 -32.030  1.00  0.00    -0.045 N 
HETATM    5  C   UNL     1      -7.831   1.834 -31.232  1.00  0.00     0.152 C 
HETATM    6  C   UNL     1      -8.867   1.087 -31.750  1.00  0.00     0.079 C 
ENDROOT
BRANCH   5   7
HETATM    7  N   UNL     1      -6.997   1.470 -30.188  1.00  0.00    -0.303 N 
HETATM    8  C   UNL     1      -5.832   0.727 -30.283  1.00  0.00     0.315 C 
HETATM    9  O   UNL     1      -5.245   0.318 -29.282  1.00  0.00    -0.262 OA
HETATM   10  H   UNL     1      -7.113   1.921 -29.290  1.00  0.00     0.171 HD
BRANCH   8  11
HETATM   11  C   UNL     1      -5.152   0.533 -31.659  1.00  0.00     0.310 C 
HETATM   12  N   UNL     1      -5.126  -0.774 -32.089  1.00  0.00    -0.349 N 
HETATM   13  H   UNL     1      -5.487  -1.478 -31.453  1.00  0.00     0.163 HD
HETATM   14  O   UNL     1      -4.648   1.473 -32.256  1.00  0.00    -0.262 OA
BRANCH  12  15
HETATM   15  C   UNL     1      -4.360  -1.179 -33.239  1.00  0.00     0.163 C 
BRANCH  15  16
HETATM   16  C   UNL     1      -4.929  -2.410 -33.891  1.00  0.00    -0.019 A 
HETATM   17  C   UNL     1      -6.164  -2.414 -34.558  1.00  0.00     0.042 A 
HETATM   18 CL   UNL     1      -7.105  -0.976 -34.741  1.00  0.00    -0.084 Cl
HETATM   19  C   UNL     1      -6.674  -3.597 -35.103  1.00  0.00     0.024 A 
HETATM   20  C   UNL     1      -5.951  -4.786 -35.002  1.00  0.00     0.002 A 
HETATM   21  C   UNL     1      -4.709  -4.789 -34.376  1.00  0.00     0.001 A 
HETATM   22  C   UNL     1      -4.199  -3.611 -33.829  1.00  0.00     0.010 A 
ENDBRANCH  15  16
ENDBRANCH  12  15
ENDBRANCH   8  11
ENDBRANCH   5   7
BRANCH   4  23
HETATM   23  C   UNL     1      -6.699   3.899 -32.193  1.00  0.00     0.732 A 
HETATM   24  N   UNL     1      -6.158   4.561 -31.222  1.00  0.00    -0.067 NA
HETATM   25  C   UNL     1      -5.107   5.387 -31.548  1.00  0.00     0.065 A 
HETATM   26  C   UNL     1      -4.605   5.519 -32.790  1.00  0.00     0.036 A 
HETATM   27  C   UNL     1      -4.498   6.132 -30.381  1.00  0.00     0.060 C 
HETATM   28  C   UNL     1      -3.433   6.385 -33.145  1.00  0.00     0.046 C 
HETATM   29  C   UNL     1      -5.250   4.750 -33.883  1.00  0.00     0.268 A 
HETATM   30  C   UNL     1      -3.011   7.331 -32.020  1.00  0.00     0.005 C 
HETATM   31  C   UNL     1      -3.087   6.654 -30.658  1.00  0.00     0.006 C 
HETATM   32  O   UNL     1      -4.860   4.811 -35.043  1.00  0.00    -0.267 OA
HETATM   33  N   UNL     1      -6.295   3.973 -33.499  1.00  0.00    -0.152 N 
HETATM   34  H   UNL     1      -6.765   3.394 -34.187  1.00  0.00     0.188 HD
ENDBRANCH   4  23
TORSDOF 5
ENDMDL
MODEL 3
REMARK VINA RESULT:      -9.0      1.705      2.005
REMARK  5 active torsions:
REMARK  status: ('A' for Active; 'I' for Inactive)
REMARK    1  A    between atoms: N_4  and  C_5 
REMARK    2  A    between atoms: C_16  and  N_17 
REMARK       I    between atoms: N_17  and  C_18 
REMARK    3  A    between atoms: C_18  and  C_19 
REMARK       I    between atoms: C_19  and  N_20 
REMARK    4  A    between atoms: N_20  and  C_21 
REMARK    5  A    between atoms: C_21  and  C_22 
ROOT
HETATM    1  C   UNL     1      -3.715   5.611 -31.569  1.00  0.00     0.072 C 
HETATM    2  C   UNL     1      -4.787   4.589 -31.469  1.00  0.00     0.055 C 
HETATM    3  N   UNL     1      -5.629   4.388 -32.486  1.00  0.00    -0.156 NA
HETATM    4  N   UNL     1      -6.470   3.394 -32.045  1.00  0.00    -0.045 N 
HETATM    5  C   UNL     1      -6.048   2.879 -30.819  1.00  0.00     0.152 C 
HETATM    6  C   UNL     1      -5.050   3.725 -30.385  1.00  0.00     0.079 C 
ENDROOT
BRANCH   5   7
HETATM    7  N   UNL     1      -6.566   1.797 -30.126  1.00  0.00    -0.303 N 
HETATM    8  C   UNL     1      -6.326   0.459 -30.388  1.00  0.00     0.315 C 
HETATM    9  O   UNL     1      -6.957  -0.432 -29.820  1.00  0.00    -0.262 OA
HETATM   10  H   UNL     1      -7.013   1.958 -29.233  1.00  0.00     0.171 HD
BRANCH   8  11
HETATM   11  C   UNL     1      -5.137   0.050 -31.288  1.00  0.00     0.310 C 
HETATM   12  N   UNL     1      -5.477  -0.145 -32.607  1.00  0.00    -0.349 N 
HETATM   13  H   UNL     1      -6.460  -0.067 -32.848  1.00  0.00     0.163 HD
HETATM   14  O   UNL     1      -4.020  -0.125 -30.823  1.00  0.00    -0.262 OA
BRANCH  12  15
HETATM   15  C   UNL     1      -4.556  -0.723 -33.551  1.00  0.00     0.163 C 
BRANCH  15  16
HETATM   16  C   UNL     1      -5.010  -2.075 -34.028  1.00  0.00    -0.019 A 
HETATM   17  C   UNL     1      -6.251  -2.283 -34.650  1.00  0.00     0.042 A 
HETATM   18 CL   UNL     1      -7.334  -0.978 -34.980  1.00  0.00    -0.084 Cl
HETATM   19  C   UNL     1      -6.649  -3.569 -35.029  1.00  0.00     0.024 A 
HETATM   20  C   UNL     1      -5.810  -4.660 -34.805  1.00  0.00     0.002 A 
HETATM   21  C   UNL     1      -4.561  -4.463 -34.222  1.00  0.00     0.001 A 
HETATM   22  C   UNL     1      -4.162  -3.182 -33.841  1.00  0.00     0.010 A 
ENDBRANCH  15  16
ENDBRANCH  12  15
ENDBRANCH   8  11
ENDBRANCH   5   7
BRANCH   4  23
HETATM   23  C   UNL     1      -7.665   3.163 -32.761  1.00  0.00     0.732 A 
HETATM   24  N   UNL     1      -8.375   2.086 -32.658  1.00  0.00    -0.067 NA
HETATM   25  C   UNL     1      -9.537   2.040 -33.393  1.00  0.00     0.065 A 
HETATM   26  C   UNL     1      -9.979   3.043 -34.174  1.00  0.00     0.036 A 
HETATM   27  C   UNL     1     -10.340   0.768 -33.235  1.00  0.00     0.060 C 
HETATM   28  C   UNL     1     -11.265   3.017 -34.945  1.00  0.00     0.046 C 
HETATM   29  C   UNL     1      -9.140   4.263 -34.275  1.00  0.00     0.268 A 
HETATM   30  C   UNL     1     -11.919   1.635 -34.992  1.00  0.00     0.005 C 
HETATM   31  C   UNL     1     -11.803   0.913 -33.657  1.00  0.00     0.006 C 
HETATM   32  O   UNL     1      -9.464   5.224 -34.963  1.00  0.00    -0.267 OA
HETATM   33  N   UNL     1      -7.996   4.235 -33.543  1.00  0.00    -0.152 N 
HETATM   34  H   UNL     1      -7.388   5.048 -33.538  1.00  0.00     0.188 HD
ENDBRANCH   4  23
TORSDOF 5
ENDMDL
MODEL 4
REMARK VINA RESULT:      -8.9      2.522      6.925
REMARK  5 active torsions:
REMARK  status: ('A' for Active; 'I' for Inactive)
REMARK    1  A    between atoms: N_4  and  C_5 
REMARK    2  A    between atoms: C_16  and  N_17 
REMARK       I    between atoms: N_17  and  C_18 
REMARK    3  A    between atoms: C_18  and  C_19 
REMARK       I    between atoms: C_19  and  N_20 
REMARK    4  A    between atoms: N_20  and  C_21 
REMARK    5  A    between atoms: C_21  and  C_22 
ROOT
HETATM    1  C   UNL     1     -11.097   2.099 -34.520  1.00  0.00     0.072 C 
HETATM    2  C   UNL     1      -9.975   1.524 -33.738  1.00  0.00     0.055 C 
HETATM    3  N   UNL     1      -9.041   0.782 -34.339  1.00  0.00    -0.156 NA
HETATM    4  N   UNL     1      -8.182   0.424 -33.326  1.00  0.00    -0.045 N 
HETATM    5  C   UNL     1      -8.504   1.076 -32.135  1.00  0.00     0.152 C 
HETATM    6  C   UNL     1      -9.723   1.678 -32.359  1.00  0.00     0.079 C 
ENDROOT
BRANCH   5   7
HETATM    7  N   UNL     1      -7.802   1.061 -30.941  1.00  0.00    -0.303 N 
HETATM    8  C   UNL     1      -6.844   1.975 -30.536  1.00  0.00     0.315 C 
HETATM    9  O   UNL     1      -6.161   1.790 -29.530  1.00  0.00    -0.262 OA
HETATM   10  H   UNL     1      -8.119   0.455 -30.195  1.00  0.00     0.171 HD
BRANCH   8  11
HETATM   11  C   UNL     1      -6.725   3.338 -31.258  1.00  0.00     0.310 C 
HETATM   12  N   UNL     1      -5.602   3.456 -32.045  1.00  0.00    -0.349 N 
HETATM   13  H   UNL     1      -4.942   2.685 -32.029  1.00  0.00     0.163 HD
HETATM   14  O   UNL     1      -7.548   4.225 -31.080  1.00  0.00    -0.262 OA
BRANCH  12  15
HETATM   15  C   UNL     1      -5.214   4.713 -32.629  1.00  0.00     0.163 C 
BRANCH  15  16
HETATM   16  C   UNL     1      -3.720   4.892 -32.644  1.00  0.00    -0.019 A 
HETATM   17  C   UNL     1      -2.993   5.104 -33.826  1.00  0.00     0.042 A 
HETATM   18 CL   UNL     1      -3.771   5.244 -35.361  1.00  0.00    -0.084 Cl
HETATM   19  C   UNL     1      -1.598   5.212 -33.792  1.00  0.00     0.024 A 
HETATM   20  C   UNL     1      -0.916   5.125 -32.579  1.00  0.00     0.002 A 
HETATM   21  C   UNL     1      -1.627   4.951 -31.396  1.00  0.00     0.001 A 
HETATM   22  C   UNL     1      -3.018   4.841 -31.426  1.00  0.00     0.010 A 
ENDBRANCH  15  16
ENDBRANCH  12  15
ENDBRANCH   8  11
ENDBRANCH   5   7
BRANCH   4  23
HETATM   23  C   UNL     1      -7.257  -0.615 -33.569  1.00  0.00     0.732 A 
HETATM   24  N   UNL     1      -7.588  -1.802 -33.963  1.00  0.00    -0.067 NA
HETATM   25  C   UNL     1      -6.559  -2.684 -34.198  1.00  0.00     0.065 A 
HETATM   26  C   UNL     1      -5.254  -2.376 -34.069  1.00  0.00     0.036 A 
HETATM   27  C   UNL     1      -6.990  -4.055 -34.667  1.00  0.00     0.060 C 
HETATM   28  C   UNL     1      -4.126  -3.319 -34.364  1.00  0.00     0.046 C 
HETATM   29  C   UNL     1      -4.908  -1.008 -33.611  1.00  0.00     0.268 A 
HETATM   30  C   UNL     1      -4.578  -4.766 -34.567  1.00  0.00     0.005 C 
HETATM   31  C   UNL     1      -5.876  -4.844 -35.358  1.00  0.00     0.006 C 
HETATM   32  O   UNL     1      -3.747  -0.642 -33.465  1.00  0.00    -0.267 OA
HETATM   33  N   UNL     1      -5.970  -0.195 -33.375  1.00  0.00    -0.152 N 
HETATM   34  H   UNL     1      -5.809   0.765 -33.090  1.00  0.00     0.188 HD
ENDBRANCH   4  23
TORSDOF 5
ENDMDL
MODEL 5
REMARK VINA RESULT:      -8.9      2.639      6.056
REMARK  5 active torsions:
REMARK  status: ('A' for Active; 'I' for Inactive)
REMARK    1  A    between atoms: N_4  and  C_5 
REMARK    2  A    between atoms: C_16  and  N_17 
REMARK       I    between atoms: N_17  and  C_18 
REMARK    3  A    between atoms: C_18  and  C_19 
REMARK       I    between atoms: C_19  and  N_20 
REMARK    4  A    between atoms: N_20  and  C_21 
REMARK    5  A    between atoms: C_21  and  C_22 
ROOT
HETATM    1  C   UNL     1      -3.953  -1.522 -32.118  1.00  0.00     0.072 C 
HETATM    2  C   UNL     1      -4.071  -0.115 -31.659  1.00  0.00     0.055 C 
HETATM    3  N   UNL     1      -3.493   0.873 -32.347  1.00  0.00    -0.156 NA
HETATM    4  N   UNL     1      -3.802   2.011 -31.640  1.00  0.00    -0.045 N 
HETATM    5  C   UNL     1      -4.698   1.738 -30.607  1.00  0.00     0.152 C 
HETATM    6  C   UNL     1      -4.772   0.364 -30.533  1.00  0.00     0.079 C 
ENDROOT
BRANCH   5   7
HETATM    7  N   UNL     1      -5.326   2.641 -29.764  1.00  0.00    -0.303 N 
HETATM    8  C   UNL     1      -6.200   3.647 -30.139  1.00  0.00     0.315 C 
HETATM    9  O   UNL     1      -6.582   4.500 -29.337  1.00  0.00    -0.262 OA
HETATM   10  H   UNL     1      -5.317   2.466 -28.768  1.00  0.00     0.171 HD
BRANCH   8  11
HETATM   11  C   UNL     1      -6.847   3.625 -31.543  1.00  0.00     0.310 C 
HETATM   12  N   UNL     1      -7.884   2.729 -31.666  1.00  0.00    -0.349 N 
HETATM   13  H   UNL     1      -8.081   2.136 -30.865  1.00  0.00     0.163 HD
HETATM   14  O   UNL     1      -6.415   4.320 -32.452  1.00  0.00    -0.262 OA
BRANCH  12  15
HETATM   15  C   UNL     1      -8.472   2.419 -32.943  1.00  0.00     0.163 C 
BRANCH  15  16
HETATM   16  C   UNL     1      -7.942   1.131 -33.512  1.00  0.00    -0.019 A 
HETATM   17  C   UNL     1      -8.610  -0.094 -33.368  1.00  0.00     0.042 A 
HETATM   18 CL   UNL     1     -10.142  -0.209 -32.576  1.00  0.00    -0.084 Cl
HETATM   19  C   UNL     1      -8.049  -1.273 -33.870  1.00  0.00     0.024 A 
HETATM   20  C   UNL     1      -6.823  -1.241 -34.535  1.00  0.00     0.002 A 
HETATM   21  C   UNL     1      -6.167  -0.027 -34.717  1.00  0.00     0.001 A 
HETATM   22  C   UNL     1      -6.723   1.150 -34.214  1.00  0.00     0.010 A 
ENDBRANCH  15  16
ENDBRANCH  12  15
ENDBRANCH   8  11
ENDBRANCH   5   7
BRANCH   4  23
HETATM   23  C   UNL     1      -3.085   3.193 -31.930  1.00  0.00     0.732 A 
HETATM   24  N   UNL     1      -2.249   3.752 -31.116  1.00  0.00    -0.067 NA
HETATM   25  C   UNL     1      -1.600   4.875 -31.572  1.00  0.00     0.065 A 
HETATM   26  C   UNL     1      -1.763   5.396 -32.803  1.00  0.00     0.036 A 
HETATM   27  C   UNL     1      -0.625   5.489 -30.592  1.00  0.00     0.060 C 
HETATM   28  C   UNL     1      -1.028   6.596 -33.322  1.00  0.00     0.046 C 
HETATM   29  C   UNL     1      -2.732   4.735 -33.711  1.00  0.00     0.268 A 
HETATM   30  C   UNL     1      -0.263   7.358 -32.239  1.00  0.00     0.005 C 
HETATM   31  C   UNL     1       0.403   6.412 -31.249  1.00  0.00     0.006 C 
HETATM   32  O   UNL     1      -2.944   5.142 -34.848  1.00  0.00    -0.267 OA
HETATM   33  N   UNL     1      -3.355   3.646 -33.192  1.00  0.00    -0.152 N 
HETATM   34  H   UNL     1      -4.008   3.123 -33.768  1.00  0.00     0.188 HD
ENDBRANCH   4  23
TORSDOF 5
ENDMDL
MODEL 6
REMARK VINA RESULT:      -8.7      3.776      7.554
REMARK  5 active torsions:
REMARK  status: ('A' for Active; 'I' for Inactive)
REMARK    1  A    between atoms: N_4  and  C_5 
REMARK    2  A    between atoms: C_16  and  N_17 
REMARK       I    between atoms: N_17  and  C_18 
REMARK    3  A    between atoms: C_18  and  C_19 
REMARK       I    between atoms: C_19  and  N_20 
REMARK    4  A    between atoms: N_20  and  C_21 
REMARK    5  A    between atoms: C_21  and  C_22 
ROOT
HETATM    1  C   UNL     1     -14.595   0.982 -33.537  1.00  0.00     0.072 C 
HETATM    2  C   UNL     1     -13.273   1.508 -33.960  1.00  0.00     0.055 C 
HETATM    3  N   UNL     1     -12.161   0.800 -33.742  1.00  0.00    -0.156 NA
HETATM    4  N   UNL     1     -11.151   1.582 -34.250  1.00  0.00    -0.045 N 
HETATM    5  C   UNL     1     -11.660   2.697 -34.917  1.00  0.00     0.152 C 
HETATM    6  C   UNL     1     -13.006   2.723 -34.624  1.00  0.00     0.079 C 
ENDROOT
BRANCH   5   7
HETATM    7  N   UNL     1     -10.961   3.640 -35.654  1.00  0.00    -0.303 N 
HETATM    8  C   UNL     1     -10.338   4.774 -35.163  1.00  0.00     0.315 C 
HETATM    9  O   UNL     1      -9.880   5.634 -35.914  1.00  0.00    -0.262 OA
HETATM   10  H   UNL     1     -10.702   3.420 -36.607  1.00  0.00     0.171 HD
BRANCH   8  11
HETATM   11  C   UNL     1     -10.060   4.907 -33.647  1.00  0.00     0.310 C 
HETATM   12  N   UNL     1      -8.769   4.592 -33.287  1.00  0.00    -0.349 N 
HETATM   13  H   UNL     1      -8.155   4.250 -34.019  1.00  0.00     0.163 HD
HETATM   14  O   UNL     1     -10.946   5.217 -32.864  1.00  0.00    -0.262 OA
BRANCH  12  15
HETATM   15  C   UNL     1      -8.378   4.459 -31.908  1.00  0.00     0.163 C 
BRANCH  15  16
HETATM   16  C   UNL     1      -6.908   4.169 -31.763  1.00  0.00    -0.019 A 
HETATM   17  C   UNL     1      -6.267   4.104 -30.517  1.00  0.00     0.042 A 
HETATM   18 CL   UNL     1      -7.135   4.287 -29.035  1.00  0.00    -0.084 Cl
HETATM   19  C   UNL     1      -4.887   3.883 -30.439  1.00  0.00     0.024 A 
HETATM   20  C   UNL     1      -4.136   3.710 -31.601  1.00  0.00     0.002 A 
HETATM   21  C   UNL     1      -4.765   3.736 -32.842  1.00  0.00     0.001 A 
HETATM   22  C   UNL     1      -6.140   3.958 -32.923  1.00  0.00     0.010 A 
ENDBRANCH  15  16
ENDBRANCH  12  15
ENDBRANCH   8  11
ENDBRANCH   5   7
BRANCH   4  23
HETATM   23  C   UNL     1      -9.820   1.264 -33.903  1.00  0.00     0.732 A 
HETATM   24  N   UNL     1      -9.394   1.154 -32.686  1.00  0.00    -0.067 NA
HETATM   25  C   UNL     1      -8.077   0.791 -32.523  1.00  0.00     0.065 A 
HETATM   26  C   UNL     1      -7.234   0.524 -33.538  1.00  0.00     0.036 A 
HETATM   27  C   UNL     1      -7.625   0.665 -31.085  1.00  0.00     0.060 C 
HETATM   28  C   UNL     1      -5.809   0.088 -33.367  1.00  0.00     0.046 C 
HETATM   29  C   UNL     1      -7.751   0.663 -34.922  1.00  0.00     0.268 A 
HETATM   30  C   UNL     1      -5.296   0.231 -31.934  1.00  0.00     0.005 C 
HETATM   31  C   UNL     1      -6.354  -0.169 -30.915  1.00  0.00     0.006 C 
HETATM   32  O   UNL     1      -7.054   0.441 -35.905  1.00  0.00    -0.267 OA
HETATM   33  N   UNL     1      -9.051   1.045 -35.014  1.00  0.00    -0.152 N 
HETATM   34  H   UNL     1      -9.482   1.130 -35.928  1.00  0.00     0.188 HD
ENDBRANCH   4  23
TORSDOF 5
ENDMDL
MODEL 7
REMARK VINA RESULT:      -8.7      2.038      2.675
REMARK  5 active torsions:
REMARK  status: ('A' for Active; 'I' for Inactive)
REMARK    1  A    between atoms: N_4  and  C_5 
REMARK    2  A    between atoms: C_16  and  N_17 
REMARK       I    between atoms: N_17  and  C_18 
REMARK    3  A    between atoms: C_18  and  C_19 
REMARK       I    between atoms: C_19  and  N_20 
REMARK    4  A    between atoms: N_20  and  C_21 
REMARK    5  A    between atoms: C_21  and  C_22 
ROOT
HETATM    1  C   UNL     1      -3.727   5.399 -34.787  1.00  0.00     0.072 C 
HETATM    2  C   UNL     1      -4.947   5.074 -34.008  1.00  0.00     0.055 C 
HETATM    3  N   UNL     1      -5.945   4.384 -34.567  1.00  0.00    -0.156 NA
HETATM    4  N   UNL     1      -6.888   4.277 -33.573  1.00  0.00    -0.045 N 
HETATM    5  C   UNL     1      -6.403   4.764 -32.359  1.00  0.00     0.152 C 
HETATM    6  C   UNL     1      -5.214   5.392 -32.660  1.00  0.00     0.079 C 
ENDROOT
BRANCH   5   7
HETATM    7  N   UNL     1      -7.015   4.713 -31.117  1.00  0.00    -0.303 N 
HETATM    8  C   UNL     1      -7.018   3.639 -30.243  1.00  0.00     0.315 C 
HETATM    9  O   UNL     1      -7.722   3.633 -29.234  1.00  0.00    -0.262 OA
HETATM   10  H   UNL     1      -7.337   5.575 -30.696  1.00  0.00     0.171 HD
BRANCH   8  11
HETATM   11  C   UNL     1      -6.007   2.485 -30.434  1.00  0.00     0.310 C 
HETATM   12  N   UNL     1      -6.575   1.313 -30.880  1.00  0.00    -0.349 N 
HETATM   13  H   UNL     1      -7.585   1.297 -30.977  1.00  0.00     0.163 HD
HETATM   14  O   UNL     1      -4.824   2.624 -30.156  1.00  0.00    -0.262 OA
BRANCH  12  15
HETATM   15  C   UNL     1      -5.835   0.080 -30.922  1.00  0.00     0.163 C 
BRANCH  15  16
HETATM   16  C   UNL     1      -5.958  -0.608 -32.254  1.00  0.00    -0.019 A 
HETATM   17  C   UNL     1      -4.937  -1.407 -32.794  1.00  0.00     0.042 A 
HETATM   18 CL   UNL     1      -3.474  -1.719 -31.931  1.00  0.00    -0.084 Cl
HETATM   19  C   UNL     1      -5.080  -1.982 -34.061  1.00  0.00     0.024 A 
HETATM   20  C   UNL     1      -6.246  -1.780 -34.797  1.00  0.00     0.002 A 
HETATM   21  C   UNL     1      -7.281  -1.021 -34.260  1.00  0.00     0.001 A 
HETATM   22  C   UNL     1      -7.141  -0.444 -32.997  1.00  0.00     0.010 A 
ENDBRANCH  15  16
ENDBRANCH  12  15
ENDBRANCH   8  11
ENDBRANCH   5   7
BRANCH   4  23
HETATM   23  C   UNL     1      -8.193   3.871 -33.931  1.00  0.00     0.732 A 
HETATM   24  N   UNL     1      -8.666   2.684 -33.726  1.00  0.00    -0.067 NA
HETATM   25  C   UNL     1      -9.973   2.469 -34.093  1.00  0.00     0.065 A 
HETATM   26  C   UNL     1     -10.778   3.412 -34.617  1.00  0.00     0.036 A 
HETATM   27  C   UNL     1     -10.487   1.071 -33.827  1.00  0.00     0.060 C 
HETATM   28  C   UNL     1     -12.217   3.195 -34.981  1.00  0.00     0.046 C 
HETATM   29  C   UNL     1     -10.206   4.762 -34.843  1.00  0.00     0.268 A 
HETATM   30  C   UNL     1     -12.635   1.724 -34.963  1.00  0.00     0.005 C 
HETATM   31  C   UNL     1     -12.013   0.977 -33.792  1.00  0.00     0.006 C 
HETATM   32  O   UNL     1     -10.865   5.681 -35.316  1.00  0.00    -0.267 OA
HETATM   33  N   UNL     1      -8.904   4.903 -34.481  1.00  0.00    -0.152 N 
HETATM   34  H   UNL     1      -8.455   5.807 -34.577  1.00  0.00     0.188 HD
ENDBRANCH   4  23
TORSDOF 5
ENDMDL
MODEL 8
REMARK VINA RESULT:      -8.7      2.655      5.102
REMARK  5 active torsions:
REMARK  status: ('A' for Active; 'I' for Inactive)
REMARK    1  A    between atoms: N_4  and  C_5 
REMARK    2  A    between atoms: C_16  and  N_17 
REMARK       I    between atoms: N_17  and  C_18 
REMARK    3  A    between atoms: C_18  and  C_19 
REMARK       I    between atoms: C_19  and  N_20 
REMARK    4  A    between atoms: N_20  and  C_21 
REMARK    5  A    between atoms: C_21  and  C_22 
ROOT
HETATM    1  C   UNL     1     -10.601   5.239 -31.300  1.00  0.00     0.072 C 
HETATM    2  C   UNL     1      -9.235   4.711 -31.061  1.00  0.00     0.055 C 
HETATM    3  N   UNL     1      -8.168   5.335 -31.569  1.00  0.00    -0.156 NA
HETATM    4  N   UNL     1      -7.098   4.578 -31.157  1.00  0.00    -0.045 N 
HETATM    5  C   UNL     1      -7.496   3.579 -30.268  1.00  0.00     0.152 C 
HETATM    6  C   UNL     1      -8.873   3.578 -30.303  1.00  0.00     0.079 C 
ENDROOT
BRANCH   5   7
HETATM    7  N   UNL     1      -6.691   2.705 -29.554  1.00  0.00    -0.303 N 
HETATM    8  C   UNL     1      -6.366   1.407 -29.910  1.00  0.00     0.315 C 
HETATM    9  O   UNL     1      -5.776   0.656 -29.134  1.00  0.00    -0.262 OA
HETATM   10  H   UNL     1      -6.124   3.069 -28.800  1.00  0.00     0.171 HD
BRANCH   8  11
HETATM   11  C   UNL     1      -6.596   0.924 -31.361  1.00  0.00     0.310 C 
HETATM   12  N   UNL     1      -5.546   1.188 -32.211  1.00  0.00    -0.349 N 
HETATM   13  H   UNL     1      -4.767   1.719 -31.833  1.00  0.00     0.163 HD
HETATM   14  O   UNL     1      -7.650   0.402 -31.696  1.00  0.00    -0.262 OA
BRANCH  12  15
HETATM   15  C   UNL     1      -5.656   1.000 -33.633  1.00  0.00     0.163 C 
BRANCH  15  16
HETATM   16  C   UNL     1      -5.587  -0.453 -34.018  1.00  0.00    -0.019 A 
HETATM   17  C   UNL     1      -6.601  -1.095 -34.745  1.00  0.00     0.042 A 
HETATM   18 CL   UNL     1      -7.989  -0.242 -35.319  1.00  0.00    -0.084 Cl
HETATM   19  C   UNL     1      -6.514  -2.461 -35.032  1.00  0.00     0.024 A 
HETATM   20  C   UNL     1      -5.408  -3.199 -34.611  1.00  0.00     0.002 A 
HETATM   21  C   UNL     1      -4.378  -2.568 -33.920  1.00  0.00     0.001 A 
HETATM   22  C   UNL     1      -4.463  -1.206 -33.630  1.00  0.00     0.010 A 
ENDBRANCH  15  16
ENDBRANCH  12  15
ENDBRANCH   8  11
ENDBRANCH   5   7
BRANCH   4  23
HETATM   23  C   UNL     1      -5.848   4.791 -31.781  1.00  0.00     0.732 A 
HETATM   24  N   UNL     1      -4.737   4.961 -31.139  1.00  0.00    -0.067 NA
HETATM   25  C   UNL     1      -3.602   5.110 -31.901  1.00  0.00     0.065 A 
HETATM   26  C   UNL     1      -3.581   5.062 -33.246  1.00  0.00     0.036 A 
HETATM   27  C   UNL     1      -2.326   5.295 -31.111  1.00  0.00     0.060 C 
HETATM   28  C   UNL     1      -2.341   5.182 -34.081  1.00  0.00     0.046 C 
HETATM   29  C   UNL     1      -4.871   4.870 -33.952  1.00  0.00     0.268 A 
HETATM   30  C   UNL     1      -1.114   5.640 -33.290  1.00  0.00     0.005 C 
HETATM   31  C   UNL     1      -1.060   4.991 -31.913  1.00  0.00     0.006 C 
HETATM   32  O   UNL     1      -4.946   4.816 -35.174  1.00  0.00    -0.267 OA
HETATM   33  N   UNL     1      -5.957   4.753 -33.144  1.00  0.00    -0.152 N 
HETATM   34  H   UNL     1      -6.869   4.587 -33.555  1.00  0.00     0.188 HD
ENDBRANCH   4  23
TORSDOF 5
ENDMDL
MODEL 9
REMARK VINA RESULT:      -8.7      2.930      4.104
REMARK  5 active torsions:
REMARK  status: ('A' for Active; 'I' for Inactive)
REMARK    1  A    between atoms: N_4  and  C_5 
REMARK    2  A    between atoms: C_16  and  N_17 
REMARK       I    between atoms: N_17  and  C_18 
REMARK    3  A    between atoms: C_18  and  C_19 
REMARK       I    between atoms: C_19  and  N_20 
REMARK    4  A    between atoms: N_20  and  C_21 
REMARK    5  A    between atoms: C_21  and  C_22 
ROOT
HETATM    1  C   UNL     1      -5.411   7.510 -28.515  1.00  0.00     0.072 C 
HETATM    2  C   UNL     1      -5.365   6.817 -29.826  1.00  0.00     0.055 C 
HETATM    3  N   UNL     1      -6.359   6.007 -30.200  1.00  0.00    -0.156 NA
HETATM    4  N   UNL     1      -5.981   5.549 -31.440  1.00  0.00    -0.045 N 
HETATM    5  C   UNL     1      -4.831   6.197 -31.892  1.00  0.00     0.152 C 
HETATM    6  C   UNL     1      -4.361   6.913 -30.812  1.00  0.00     0.079 C 
ENDROOT
BRANCH   5   7
HETATM    7  N   UNL     1      -4.226   6.090 -33.133  1.00  0.00    -0.303 N 
HETATM    8  C   UNL     1      -3.112   5.330 -33.445  1.00  0.00     0.315 C 
HETATM    9  O   UNL     1      -2.553   5.423 -34.537  1.00  0.00    -0.262 OA
HETATM   10  H   UNL     1      -4.719   6.434 -33.948  1.00  0.00     0.171 HD
BRANCH   8  11
HETATM   11  C   UNL     1      -2.641   4.219 -32.478  1.00  0.00     0.310 C 
HETATM   12  N   UNL     1      -3.396   3.070 -32.536  1.00  0.00    -0.349 N 
HETATM   13  H   UNL     1      -4.208   3.081 -33.144  1.00  0.00     0.163 HD
HETATM   14  O   UNL     1      -1.708   4.402 -31.709  1.00  0.00    -0.262 OA
BRANCH  12  15
HETATM   15  C   UNL     1      -3.240   2.010 -31.574  1.00  0.00     0.163 C 
BRANCH  15  16
HETATM   16  C   UNL     1      -4.022   0.782 -31.955  1.00  0.00    -0.019 A 
HETATM   17  C   UNL     1      -5.175   0.373 -31.267  1.00  0.00     0.042 A 
HETATM   18 CL   UNL     1      -5.830   1.293 -29.961  1.00  0.00    -0.084 Cl
HETATM   19  C   UNL     1      -5.836  -0.806 -31.628  1.00  0.00     0.024 A 
HETATM   20  C   UNL     1      -5.364  -1.581 -32.687  1.00  0.00     0.002 A 
HETATM   21  C   UNL     1      -4.243  -1.168 -33.400  1.00  0.00     0.001 A 
HETATM   22  C   UNL     1      -3.580   0.006 -33.042  1.00  0.00     0.010 A 
ENDBRANCH  15  16
ENDBRANCH  12  15
ENDBRANCH   8  11
ENDBRANCH   5   7
BRANCH   4  23
HETATM   23  C   UNL     1      -6.664   4.436 -31.978  1.00  0.00     0.732 A 
HETATM   24  N   UNL     1      -6.307   3.818 -33.058  1.00  0.00    -0.067 NA
HETATM   25  C   UNL     1      -7.056   2.723 -33.419  1.00  0.00     0.065 A 
HETATM   26  C   UNL     1      -8.101   2.253 -32.711  1.00  0.00     0.036 A 
HETATM   27  C   UNL     1      -6.597   2.026 -34.680  1.00  0.00     0.060 C 
HETATM   28  C   UNL     1      -8.896   1.036 -33.077  1.00  0.00     0.046 C 
HETATM   29  C   UNL     1      -8.489   2.986 -31.481  1.00  0.00     0.268 A 
HETATM   30  C   UNL     1      -8.598   0.512 -34.482  1.00  0.00     0.005 C 
HETATM   31  C   UNL     1      -7.113   0.591 -34.808  1.00  0.00     0.006 C 
HETATM   32  O   UNL     1      -9.427   2.631 -30.776  1.00  0.00    -0.267 OA
HETATM   33  N   UNL     1      -7.723   4.071 -31.193  1.00  0.00    -0.152 N 
HETATM   34  H   UNL     1      -7.910   4.602 -30.349  1.00  0.00     0.188 HD
ENDBRANCH   4  23
TORSDOF 5
ENDMDL
MODEL 10
REMARK VINA RESULT:      -8.6      3.501      7.546
REMARK  5 active torsions:
REMARK  status: ('A' for Active; 'I' for Inactive)
REMARK    1  A    between atoms: N_4  and  C_5 
REMARK    2  A    between atoms: C_16  and  N_17 
REMARK       I    between atoms: N_17  and  C_18 
REMARK    3  A    between atoms: C_18  and  C_19 
REMARK       I    between atoms: C_19  and  N_20 
REMARK    4  A    between atoms: N_20  and  C_21 
REMARK    5  A    between atoms: C_21  and  C_22 
ROOT
HETATM    1  C   UNL     1      -6.264   5.566 -28.451  1.00  0.00     0.072 C 
HETATM    2  C   UNL     1      -5.921   5.016 -29.785  1.00  0.00     0.055 C 
HETATM    3  N   UNL     1      -6.056   3.711 -30.036  1.00  0.00    -0.156 NA
HETATM    4  N   UNL     1      -5.650   3.567 -31.341  1.00  0.00    -0.045 N 
HETATM    5  C   UNL     1      -5.415   4.806 -31.938  1.00  0.00     0.152 C 
HETATM    6  C   UNL     1      -5.462   5.727 -30.913  1.00  0.00     0.079 C 
ENDROOT
BRANCH   5   7
HETATM    7  N   UNL     1      -5.113   5.068 -33.265  1.00  0.00    -0.303 N 
HETATM    8  C   UNL     1      -3.853   5.286 -33.796  1.00  0.00     0.315 C 
HETATM    9  O   UNL     1      -3.700   5.668 -34.956  1.00  0.00    -0.262 OA
HETATM   10  H   UNL     1      -5.823   4.910 -33.968  1.00  0.00     0.171 HD
BRANCH   8  11
HETATM   11  C   UNL     1      -2.595   4.895 -32.985  1.00  0.00     0.310 C 
HETATM   12  N   UNL     1      -1.890   5.970 -32.494  1.00  0.00    -0.349 N 
HETATM   13  H   UNL     1      -2.216   6.895 -32.757  1.00  0.00     0.163 HD
HETATM   14  O   UNL     1      -2.262   3.725 -32.857  1.00  0.00    -0.262 OA
BRANCH  12  15
HETATM   15  C   UNL     1      -0.591   5.815 -31.895  1.00  0.00     0.163 C 
BRANCH  15  16
HETATM   16  C   UNL     1      -0.497   6.509 -30.563  1.00  0.00    -0.019 A 
HETATM   17  C   UNL     1       0.240   5.990 -29.487  1.00  0.00     0.042 A 
HETATM   18 CL   UNL     1       1.161   4.536 -29.632  1.00  0.00    -0.084 Cl
HETATM   19  C   UNL     1       0.253   6.647 -28.252  1.00  0.00     0.024 A 
HETATM   20  C   UNL     1      -0.458   7.834 -28.080  1.00  0.00     0.002 A 
HETATM   21  C   UNL     1      -1.164   8.379 -29.148  1.00  0.00     0.001 A 
HETATM   22  C   UNL     1      -1.180   7.725 -30.381  1.00  0.00     0.010 A 
ENDBRANCH  15  16
ENDBRANCH  12  15
ENDBRANCH   8  11
ENDBRANCH   5   7
BRANCH   4  23
HETATM   23  C   UNL     1      -5.379   2.266 -31.818  1.00  0.00     0.732 A 
HETATM   24  N   UNL     1      -6.144   1.620 -32.638  1.00  0.00    -0.067 NA
HETATM   25  C   UNL     1      -5.710   0.378 -33.040  1.00  0.00     0.065 A 
HETATM   26  C   UNL     1      -4.545  -0.177 -32.655  1.00  0.00     0.036 A 
HETATM   27  C   UNL     1      -6.628  -0.336 -34.005  1.00  0.00     0.060 C 
HETATM   28  C   UNL     1      -4.046  -1.512 -33.122  1.00  0.00     0.046 C 
HETATM   29  C   UNL     1      -3.692   0.586 -31.711  1.00  0.00     0.268 A 
HETATM   30  C   UNL     1      -5.100  -2.330 -33.869  1.00  0.00     0.005 C 
HETATM   31  C   UNL     1      -5.942  -1.456 -34.788  1.00  0.00     0.006 C 
HETATM   32  O   UNL     1      -2.617   0.158 -31.308  1.00  0.00    -0.267 OA
HETATM   33  N   UNL     1      -4.189   1.794 -31.336  1.00  0.00    -0.152 N 
HETATM   34  H   UNL     1      -3.645   2.386 -30.717  1.00  0.00     0.188 HD
ENDBRANCH   4  23
TORSDOF 5
ENDMDL
