MODEL 1
REMARK VINA RESULT:      -9.0      0.000      0.000
REMARK  6 active torsions:
REMARK  status: ('A' for Active; 'I' for Inactive)
REMARK    1  A    between atoms: C_2  and  C_3 
REMARK    2  A    between atoms: C_7  and  C_8 
REMARK       I    between atoms: C_8  and  N_9 
REMARK    3  A    between atoms: N_9  and  C_10 
REMARK    4  A    between atoms: C_10  and  C_11 
REMARK    5  A    between atoms: C_11  and  N_12 
REMARK    6  A    between atoms: C_15  and  C_16 
ROOT
HETATM    1  C   UNL     1      -3.233   3.565 -32.305  1.00  0.00     0.150 C 
ENDROOT
BRANCH   1   2
HETATM    2  N   UNL     1      -2.424   4.187 -31.287  1.00  0.00    -0.354 N 
HETATM    3  C   UNL     1      -1.267   4.882 -31.589  1.00  0.00     0.272 C 
HETATM    4  O   UNL     1      -0.960   5.147 -32.750  1.00  0.00    -0.266 OA
HETATM    5  H   UNL     1      -2.494   3.923 -30.302  1.00  0.00     0.162 HD
BRANCH   3   6
HETATM    6  C   UNL     1      -0.488   5.253 -30.396  1.00  0.00     0.152 A 
HETATM    7  N   UNL     1       0.495   4.437 -29.959  1.00  0.00    -0.169 NA
HETATM    8  N   UNL     1       0.994   5.067 -28.885  1.00  0.00    -0.281 N 
HETATM    9  C   UNL     1       0.372   6.250 -28.603  1.00  0.00     0.036 A 
HETATM   10  H   UNL     1       1.764   4.636 -28.382  1.00  0.00     0.189 HD
HETATM   11  C   UNL     1      -0.606   6.411 -29.569  1.00  0.00    -0.002 A 
HETATM   12  C   UNL     1      -1.553   7.547 -29.703  1.00  0.00     0.053 C 
BRANCH   9  13
HETATM   13  C   UNL     1       0.780   7.096 -27.445  1.00  0.00     0.055 C 
HETATM   14  C   UNL     1       1.453   8.381 -27.903  1.00  0.00     0.011 C 
ENDBRANCH   9  13
ENDBRANCH   3   6
ENDBRANCH   1   2
BRANCH   1  15
HETATM   15  C   UNL     1      -4.342   2.665 -31.725  1.00  0.00     0.254 C 
BRANCH  15  16
HETATM   16  N   UNL     1      -3.820   1.274 -31.410  1.00  0.00    -0.069 N 
HETATM   17  H   UNL     1      -2.903   1.375 -30.954  1.00  0.00     0.280 HD
HETATM   18  C   UNL     1      -3.685   0.365 -32.615  1.00  0.00     0.244 C 
HETATM   19  C   UNL     1      -5.066  -0.277 -32.776  1.00  0.00     0.046 C 
HETATM   20  C   UNL     1      -5.722  -0.203 -31.390  1.00  0.00     0.039 C 
HETATM   21  C   UNL     1      -4.724   0.495 -30.483  1.00  0.00     0.235 C 
BRANCH  19  22
HETATM   22  C   UNL     1      -4.982  -1.664 -33.378  1.00  0.00    -0.046 A 
HETATM   23  C   UNL     1      -5.920  -2.118 -34.333  1.00  0.00    -0.055 A 
HETATM   24  C   UNL     1      -7.086  -1.279 -34.788  1.00  0.00     0.049 C 
HETATM   25  C   UNL     1      -5.781  -3.405 -34.881  1.00  0.00     0.007 A 
HETATM   26  C   UNL     1      -4.731  -4.238 -34.502  1.00  0.00     0.001 A 
HETATM   27  C   UNL     1      -3.804  -3.798 -33.567  1.00  0.00     0.001 A 
HETATM   28  C   UNL     1      -3.927  -2.526 -33.009  1.00  0.00     0.008 A 
ENDBRANCH  19  22
ENDBRANCH  15  16
ENDBRANCH   1  15
TORSDOF 6
ENDMDL
MODEL 2
REMARK VINA RESULT:      -8.9      2.747      3.860
REMARK  6 active torsions:
REMARK  status: ('A' for Active; 'I' for Inactive)
REMARK    1  A    between atoms: C_2  and  C_3 
REMARK    2  A    between atoms: C_7  and  C_8 
REMARK       I    between atoms: C_8  and  N_9 
REMARK    3  A    between atoms: N_9  and  C_10 
REMARK    4  A    between atoms: C_10  and  C_11 
REMARK    5  A    between atoms: C_11  and  N_12 
REMARK    6  A    between atoms: C_15  and  C_16 
ROOT
HETATM    1  C   UNL     1      -6.314   2.152 -31.800  1.00  0.00     0.150 C 
ENDROOT
BRANCH   1   2
HETATM    2  N   UNL     1      -5.242   3.088 -32.030  1.00  0.00    -0.354 N 
HETATM    3  C   UNL     1      -3.966   2.677 -32.367  1.00  0.00     0.272 C 
HETATM    4  O   UNL     1      -3.720   1.507 -32.652  1.00  0.00    -0.266 OA
HETATM    5  H   UNL     1      -5.283   4.053 -31.694  1.00  0.00     0.162 HD
BRANCH   3   6
HETATM    6  C   UNL     1      -2.983   3.774 -32.350  1.00  0.00     0.152 A 
HETATM    7  N   UNL     1      -2.066   3.833 -31.361  1.00  0.00    -0.169 NA
HETATM    8  N   UNL     1      -1.340   4.923 -31.649  1.00  0.00    -0.281 N 
HETATM    9  C   UNL     1      -1.752   5.577 -32.776  1.00  0.00     0.036 A 
HETATM   10  H   UNL     1      -0.571   5.173 -31.034  1.00  0.00     0.189 HD
HETATM   11  C   UNL     1      -2.827   4.856 -33.267  1.00  0.00    -0.002 A 
HETATM   12  C   UNL     1      -3.623   5.156 -34.484  1.00  0.00     0.053 C 
BRANCH   9  13
HETATM   13  C   UNL     1      -1.075   6.814 -33.260  1.00  0.00     0.055 C 
HETATM   14  C   UNL     1      -1.606   8.053 -32.556  1.00  0.00     0.011 C 
ENDBRANCH   9  13
ENDBRANCH   3   6
ENDBRANCH   1   2
BRANCH   1  15
HETATM   15  C   UNL     1      -7.337   2.114 -32.952  1.00  0.00     0.254 C 
BRANCH  15  16
HETATM   16  N   UNL     1      -7.961   0.736 -33.096  1.00  0.00    -0.069 N 
HETATM   17  H   UNL     1      -8.756   0.679 -32.445  1.00  0.00     0.280 HD
HETATM   18  C   UNL     1      -7.012  -0.415 -32.832  1.00  0.00     0.244 C 
HETATM   19  C   UNL     1      -6.329  -0.673 -34.178  1.00  0.00     0.046 C 
HETATM   20  C   UNL     1      -7.288  -0.121 -35.243  1.00  0.00     0.039 C 
HETATM   21  C   UNL     1      -8.473   0.457 -34.490  1.00  0.00     0.235 C 
BRANCH  19  22
HETATM   22  C   UNL     1      -5.940  -2.127 -34.350  1.00  0.00    -0.046 A 
HETATM   23  C   UNL     1      -4.674  -2.609 -33.948  1.00  0.00    -0.055 A 
HETATM   24  C   UNL     1      -3.612  -1.715 -33.362  1.00  0.00     0.049 C 
HETATM   25  C   UNL     1      -4.373  -3.974 -34.104  1.00  0.00     0.007 A 
HETATM   26  C   UNL     1      -5.305  -4.858 -34.643  1.00  0.00     0.001 A 
HETATM   27  C   UNL     1      -6.551  -4.392 -35.038  1.00  0.00     0.001 A 
HETATM   28  C   UNL     1      -6.866  -3.041 -34.894  1.00  0.00     0.008 A 
ENDBRANCH  19  22
ENDBRANCH  15  16
ENDBRANCH   1  15
TORSDOF 6
ENDMDL
MODEL 3
REMARK VINA RESULT:      -8.6      3.614      4.667
REMARK  6 active torsions:
REMARK  status: ('A' for Active; 'I' for Inactive)
REMARK    1  A    between atoms: C_2  and  C_3 
REMARK    2  A    between atoms: C_7  and  C_8 
REMARK       I    between atoms: C_8  and  N_9 
REMARK    3  A    between atoms: N_9  and  C_10 
REMARK    4  A    between atoms: C_10  and  C_11 
REMARK    5  A    between atoms: C_11  and  N_12 
REMARK    6  A    between atoms: C_15  and  C_16 
ROOT
HETATM    1  C   UNL     1      -7.553   2.698 -33.995  1.00  0.00     0.150 C 
ENDROOT
BRANCH   1   2
HETATM    2  N   UNL     1      -6.247   3.306 -33.949  1.00  0.00    -0.354 N 
HETATM    3  C   UNL     1      -6.072   4.677 -33.988  1.00  0.00     0.272 C 
HETATM    4  O   UNL     1      -7.024   5.450 -33.893  1.00  0.00    -0.266 OA
HETATM    5  H   UNL     1      -5.396   2.782 -34.166  1.00  0.00     0.162 HD
BRANCH   3   6
HETATM    6  C   UNL     1      -4.663   5.076 -34.142  1.00  0.00     0.152 A 
HETATM    7  N   UNL     1      -4.162   5.294 -35.376  1.00  0.00    -0.169 NA
HETATM    8  N   UNL     1      -2.885   5.642 -35.157  1.00  0.00    -0.281 N 
HETATM    9  C   UNL     1      -2.536   5.651 -33.836  1.00  0.00     0.036 A 
HETATM   10  H   UNL     1      -2.296   5.863 -35.955  1.00  0.00     0.189 HD
HETATM   11  C   UNL     1      -3.673   5.287 -33.136  1.00  0.00    -0.002 A 
HETATM   12  C   UNL     1      -3.812   5.157 -31.663  1.00  0.00     0.053 C 
BRANCH   9  13
HETATM   13  C   UNL     1      -1.160   6.008 -33.389  1.00  0.00     0.055 C 
HETATM   14  C   UNL     1      -1.128   7.371 -32.714  1.00  0.00     0.011 C 
ENDBRANCH   9  13
ENDBRANCH   3   6
ENDBRANCH   1   2
BRANCH   1  15
HETATM   15  C   UNL     1      -7.856   1.832 -32.756  1.00  0.00     0.254 C 
BRANCH  15  16
HETATM   16  N   UNL     1      -8.361   0.454 -33.152  1.00  0.00    -0.069 N 
HETATM   17  H   UNL     1      -9.262   0.299 -32.679  1.00  0.00     0.280 HD
HETATM   18  C   UNL     1      -7.416  -0.681 -32.817  1.00  0.00     0.244 C 
HETATM   19  C   UNL     1      -6.472  -0.770 -34.021  1.00  0.00     0.046 C 
HETATM   20  C   UNL     1      -7.238  -0.146 -35.195  1.00  0.00     0.039 C 
HETATM   21  C   UNL     1      -8.577   0.304 -34.640  1.00  0.00     0.235 C 
BRANCH  19  22
HETATM   22  C   UNL     1      -5.975  -2.183 -34.250  1.00  0.00    -0.046 A 
HETATM   23  C   UNL     1      -4.659  -2.571 -33.910  1.00  0.00    -0.055 A 
HETATM   24  C   UNL     1      -3.651  -1.609 -33.337  1.00  0.00     0.049 C 
HETATM   25  C   UNL     1      -4.256  -3.902 -34.119  1.00  0.00     0.007 A 
HETATM   26  C   UNL     1      -5.134  -4.843 -34.651  1.00  0.00     0.001 A 
HETATM   27  C   UNL     1      -6.427  -4.470 -34.985  1.00  0.00     0.001 A 
HETATM   28  C   UNL     1      -6.845  -3.154 -34.788  1.00  0.00     0.008 A 
ENDBRANCH  19  22
ENDBRANCH  15  16
ENDBRANCH   1  15
TORSDOF 6
ENDMDL
MODEL 4
REMARK VINA RESULT:      -8.6      2.374      3.178
REMARK  6 active torsions:
REMARK  status: ('A' for Active; 'I' for Inactive)
REMARK    1  A    between atoms: C_2  and  C_3 
REMARK    2  A    between atoms: C_7  and  C_8 
REMARK       I    between atoms: C_8  and  N_9 
REMARK    3  A    between atoms: N_9  and  C_10 
REMARK    4  A    between atoms: C_10  and  C_11 
REMARK    5  A    between atoms: C_11  and  N_12 
REMARK    6  A    between atoms: C_15  and  C_16 
ROOT
HETATM    1  C   UNL     1      -6.165   5.253 -33.621  1.00  0.00     0.150 C 
ENDROOT
BRANCH   1   2
HETATM    2  N   UNL     1      -4.875   5.795 -33.276  1.00  0.00    -0.354 N 
HETATM    3  C   UNL     1      -3.796   5.733 -34.138  1.00  0.00     0.272 C 
HETATM    4  O   UNL     1      -3.924   5.363 -35.304  1.00  0.00    -0.266 OA
HETATM    5  H   UNL     1      -4.610   5.993 -32.308  1.00  0.00     0.162 HD
BRANCH   3   6
HETATM    6  C   UNL     1      -2.531   6.152 -33.513  1.00  0.00     0.152 A 
HETATM    7  N   UNL     1      -1.897   7.257 -33.962  1.00  0.00    -0.169 NA
HETATM    8  N   UNL     1      -0.809   7.352 -33.184  1.00  0.00    -0.281 N 
HETATM    9  C   UNL     1      -0.706   6.354 -32.257  1.00  0.00     0.036 A 
HETATM   10  H   UNL     1      -0.169   8.126 -33.336  1.00  0.00     0.189 HD
HETATM   11  C   UNL     1      -1.814   5.546 -32.438  1.00  0.00    -0.002 A 
HETATM   12  C   UNL     1      -2.166   4.326 -31.667  1.00  0.00     0.053 C 
BRANCH   9  13
HETATM   13  C   UNL     1       0.436   6.284 -31.301  1.00  0.00     0.055 C 
HETATM   14  C   UNL     1       0.166   7.102 -30.047  1.00  0.00     0.011 C 
ENDBRANCH   9  13
ENDBRANCH   3   6
ENDBRANCH   1   2
BRANCH   1  15
HETATM   15  C   UNL     1      -6.802   4.441 -32.476  1.00  0.00     0.254 C 
BRANCH  15  16
HETATM   16  N   UNL     1      -5.862   3.359 -31.973  1.00  0.00    -0.069 N 
HETATM   17  H   UNL     1      -5.040   3.819 -31.558  1.00  0.00     0.280 HD
HETATM   18  C   UNL     1      -5.405   2.379 -33.035  1.00  0.00     0.244 C 
HETATM   19  C   UNL     1      -6.496   1.304 -33.068  1.00  0.00     0.046 C 
HETATM   20  C   UNL     1      -7.176   1.360 -31.693  1.00  0.00     0.039 C 
HETATM   21  C   UNL     1      -6.485   2.471 -30.921  1.00  0.00     0.235 C 
BRANCH  19  22
HETATM   22  C   UNL     1      -5.946  -0.052 -33.462  1.00  0.00    -0.046 A 
HETATM   23  C   UNL     1      -6.519  -0.808 -34.510  1.00  0.00    -0.055 A 
HETATM   24  C   UNL     1      -7.730  -0.347 -35.277  1.00  0.00     0.049 C 
HETATM   25  C   UNL     1      -5.954  -2.049 -34.854  1.00  0.00     0.007 A 
HETATM   26  C   UNL     1      -4.836  -2.541 -34.183  1.00  0.00     0.001 A 
HETATM   27  C   UNL     1      -4.267  -1.802 -33.156  1.00  0.00     0.001 A 
HETATM   28  C   UNL     1      -4.816  -0.571 -32.797  1.00  0.00     0.008 A 
ENDBRANCH  19  22
ENDBRANCH  15  16
ENDBRANCH   1  15
TORSDOF 6
ENDMDL
MODEL 5
REMARK VINA RESULT:      -8.4      6.417      9.448
REMARK  6 active torsions:
REMARK  status: ('A' for Active; 'I' for Inactive)
REMARK    1  A    between atoms: C_2  and  C_3 
REMARK    2  A    between atoms: C_7  and  C_8 
REMARK       I    between atoms: C_8  and  N_9 
REMARK    3  A    between atoms: N_9  and  C_10 
REMARK    4  A    between atoms: C_10  and  C_11 
REMARK    5  A    between atoms: C_11  and  N_12 
REMARK    6  A    between atoms: C_15  and  C_16 
ROOT
HETATM    1  C   UNL     1      -8.160   3.368 -32.533  1.00  0.00     0.150 C 
ENDROOT
BRANCH   1   2
HETATM    2  N   UNL     1      -9.546   2.978 -32.466  1.00  0.00    -0.354 N 
HETATM    3  C   UNL     1     -10.492   3.469 -33.347  1.00  0.00     0.272 C 
HETATM    4  O   UNL     1     -10.172   4.131 -34.332  1.00  0.00    -0.266 OA
HETATM    5  H   UNL     1      -9.951   2.557 -31.627  1.00  0.00     0.162 HD
BRANCH   3   6
HETATM    6  C   UNL     1     -11.870   3.108 -32.974  1.00  0.00     0.152 A 
HETATM    7  N   UNL     1     -12.411   3.613 -31.845  1.00  0.00    -0.169 NA
HETATM    8  N   UNL     1     -13.650   3.100 -31.815  1.00  0.00    -0.281 N 
HETATM    9  C   UNL     1     -13.932   2.279 -32.870  1.00  0.00     0.036 A 
HETATM   10  H   UNL     1     -14.261   3.348 -31.042  1.00  0.00     0.189 HD
HETATM   11  C   UNL     1     -12.792   2.257 -33.655  1.00  0.00    -0.002 A 
HETATM   12  C   UNL     1     -12.595   1.512 -34.925  1.00  0.00     0.053 C 
BRANCH   9  13
HETATM   13  C   UNL     1     -15.256   1.610 -33.014  1.00  0.00     0.055 C 
HETATM   14  C   UNL     1     -16.335   2.330 -32.219  1.00  0.00     0.011 C 
ENDBRANCH   9  13
ENDBRANCH   3   6
ENDBRANCH   1   2
BRANCH   1  15
HETATM   15  C   UNL     1      -7.286   2.357 -33.301  1.00  0.00     0.254 C 
BRANCH  15  16
HETATM   16  N   UNL     1      -7.908   0.971 -33.300  1.00  0.00    -0.069 N 
HETATM   17  H   UNL     1      -8.672   0.967 -32.611  1.00  0.00     0.280 HD
HETATM   18  C   UNL     1      -6.941  -0.151 -32.983  1.00  0.00     0.244 C 
HETATM   19  C   UNL     1      -6.318  -0.520 -34.333  1.00  0.00     0.046 C 
HETATM   20  C   UNL     1      -7.326  -0.063 -35.395  1.00  0.00     0.039 C 
HETATM   21  C   UNL     1      -8.480   0.574 -34.641  1.00  0.00     0.235 C 
BRANCH  19  22
HETATM   22  C   UNL     1      -5.929  -1.983 -34.399  1.00  0.00    -0.046 A 
HETATM   23  C   UNL     1      -4.658  -2.433 -33.973  1.00  0.00    -0.055 A 
HETATM   24  C   UNL     1      -3.592  -1.497 -33.466  1.00  0.00     0.049 C 
HETATM   25  C   UNL     1      -4.357  -3.806 -34.030  1.00  0.00     0.007 A 
HETATM   26  C   UNL     1      -5.292  -4.728 -34.493  1.00  0.00     0.001 A 
HETATM   27  C   UNL     1      -6.542  -4.294 -34.910  1.00  0.00     0.001 A 
HETATM   28  C   UNL     1      -6.858  -2.936 -34.865  1.00  0.00     0.008 A 
ENDBRANCH  19  22
ENDBRANCH  15  16
ENDBRANCH   1  15
TORSDOF 6
ENDMDL
MODEL 6
REMARK VINA RESULT:      -8.3      6.882     10.469
REMARK  6 active torsions:
REMARK  status: ('A' for Active; 'I' for Inactive)
REMARK    1  A    between atoms: C_2  and  C_3 
REMARK    2  A    between atoms: C_7  and  C_8 
REMARK       I    between atoms: C_8  and  N_9 
REMARK    3  A    between atoms: N_9  and  C_10 
REMARK    4  A    between atoms: C_10  and  C_11 
REMARK    5  A    between atoms: C_11  and  N_12 
REMARK    6  A    between atoms: C_15  and  C_16 
ROOT
HETATM    1  C   UNL     1      -9.939   2.935 -32.755  1.00  0.00     0.150 C 
ENDROOT
BRANCH   1   2
HETATM    2  N   UNL     1     -11.316   2.511 -32.714  1.00  0.00    -0.354 N 
HETATM    3  C   UNL     1     -12.179   2.711 -33.776  1.00  0.00     0.272 C 
HETATM    4  O   UNL     1     -11.775   3.105 -34.869  1.00  0.00    -0.266 OA
HETATM    5  H   UNL     1     -11.796   2.307 -31.834  1.00  0.00     0.162 HD
BRANCH   3   6
HETATM    6  C   UNL     1     -13.580   2.397 -33.450  1.00  0.00     0.152 A 
HETATM    7  N   UNL     1     -14.242   1.468 -34.172  1.00  0.00    -0.169 NA
HETATM    8  N   UNL     1     -15.462   1.425 -33.614  1.00  0.00    -0.281 N 
HETATM    9  C   UNL     1     -15.620   2.292 -32.570  1.00  0.00     0.036 A 
HETATM   10  H   UNL     1     -16.148   0.780 -33.995  1.00  0.00     0.189 HD
HETATM   11  C   UNL     1     -14.410   2.948 -32.428  1.00  0.00    -0.002 A 
HETATM   12  C   UNL     1     -14.069   3.987 -31.423  1.00  0.00     0.053 C 
BRANCH   9  13
HETATM   13  C   UNL     1     -16.906   2.395 -31.822  1.00  0.00     0.055 C 
HETATM   14  C   UNL     1     -17.892   3.309 -32.532  1.00  0.00     0.011 C 
ENDBRANCH   9  13
ENDBRANCH   3   6
ENDBRANCH   1   2
BRANCH   1  15
HETATM   15  C   UNL     1      -8.950   1.795 -32.441  1.00  0.00     0.254 C 
BRANCH  15  16
HETATM   16  N   UNL     1      -9.144   0.617 -33.381  1.00  0.00    -0.069 N 
HETATM   17  H   UNL     1     -10.146   0.384 -33.395  1.00  0.00     0.280 HD
HETATM   18  C   UNL     1      -8.348  -0.619 -33.012  1.00  0.00     0.244 C 
HETATM   19  C   UNL     1      -6.983  -0.415 -33.678  1.00  0.00     0.046 C 
HETATM   20  C   UNL     1      -7.229   0.558 -34.839  1.00  0.00     0.039 C 
HETATM   21  C   UNL     1      -8.706   0.907 -34.798  1.00  0.00     0.235 C 
BRANCH  19  22
HETATM   22  C   UNL     1      -6.337  -1.731 -34.063  1.00  0.00    -0.046 A 
HETATM   23  C   UNL     1      -4.945  -1.940 -33.931  1.00  0.00    -0.055 A 
HETATM   24  C   UNL     1      -4.005  -0.870 -33.441  1.00  0.00     0.049 C 
HETATM   25  C   UNL     1      -4.399  -3.189 -34.277  1.00  0.00     0.007 A 
HETATM   26  C   UNL     1      -5.208  -4.223 -34.742  1.00  0.00     0.001 A 
HETATM   27  C   UNL     1      -6.575  -4.025 -34.872  1.00  0.00     0.001 A 
HETATM   28  C   UNL     1      -7.135  -2.792 -34.538  1.00  0.00     0.008 A 
ENDBRANCH  19  22
ENDBRANCH  15  16
ENDBRANCH   1  15
TORSDOF 6
ENDMDL
MODEL 7
REMARK VINA RESULT:      -8.0      2.103      3.072
REMARK  6 active torsions:
REMARK  status: ('A' for Active; 'I' for Inactive)
REMARK    1  A    between atoms: C_2  and  C_3 
REMARK    2  A    between atoms: C_7  and  C_8 
REMARK       I    between atoms: C_8  and  N_9 
REMARK    3  A    between atoms: N_9  and  C_10 
REMARK    4  A    between atoms: C_10  and  C_11 
REMARK    5  A    between atoms: C_11  and  N_12 
REMARK    6  A    between atoms: C_15  and  C_16 
ROOT
HETATM    1  C   UNL     1      -6.459   4.420 -32.129  1.00  0.00     0.150 C 
ENDROOT
BRANCH   1   2
HETATM    2  N   UNL     1      -5.117   4.798 -31.761  1.00  0.00    -0.354 N 
HETATM    3  C   UNL     1      -4.089   4.851 -32.684  1.00  0.00     0.272 C 
HETATM    4  O   UNL     1      -4.301   4.743 -33.891  1.00  0.00    -0.266 OA
HETATM    5  H   UNL     1      -4.792   4.772 -30.792  1.00  0.00     0.162 HD
BRANCH   3   6
HETATM    6  C   UNL     1      -2.767   5.053 -32.067  1.00  0.00     0.152 A 
HETATM    7  N   UNL     1      -2.220   4.068 -31.323  1.00  0.00    -0.169 NA
HETATM    8  N   UNL     1      -1.040   4.569 -30.929  1.00  0.00    -0.281 N 
HETATM    9  C   UNL     1      -0.803   5.838 -31.378  1.00  0.00     0.036 A 
HETATM   10  H   UNL     1      -0.436   3.993 -30.350  1.00  0.00     0.189 HD
HETATM   11  C   UNL     1      -1.910   6.193 -32.128  1.00  0.00    -0.002 A 
HETATM   12  C   UNL     1      -2.134   7.478 -32.838  1.00  0.00     0.053 C 
BRANCH   9  13
HETATM   13  C   UNL     1       0.452   6.568 -31.043  1.00  0.00     0.055 C 
HETATM   14  C   UNL     1       0.373   7.216 -29.669  1.00  0.00     0.011 C 
ENDBRANCH   9  13
ENDBRANCH   3   6
ENDBRANCH   1   2
BRANCH   1  15
HETATM   15  C   UNL     1      -6.984   3.213 -31.327  1.00  0.00     0.254 C 
BRANCH  15  16
HETATM   16  N   UNL     1      -7.690   2.213 -32.228  1.00  0.00    -0.069 N 
HETATM   17  H   UNL     1      -8.694   2.239 -32.005  1.00  0.00     0.280 HD
HETATM   18  C   UNL     1      -7.186   0.789 -32.102  1.00  0.00     0.244 C 
HETATM   19  C   UNL     1      -6.004   0.708 -33.074  1.00  0.00     0.046 C 
HETATM   20  C   UNL     1      -6.241   1.816 -34.109  1.00  0.00     0.039 C 
HETATM   21  C   UNL     1      -7.524   2.516 -33.699  1.00  0.00     0.235 C 
BRANCH  19  22
HETATM   22  C   UNL     1      -5.832  -0.685 -33.645  1.00  0.00    -0.046 A 
HETATM   23  C   UNL     1      -4.579  -1.339 -33.641  1.00  0.00    -0.055 A 
HETATM   24  C   UNL     1      -3.326  -0.692 -33.111  1.00  0.00     0.049 C 
HETATM   25  C   UNL     1      -4.479  -2.642 -34.159  1.00  0.00     0.007 A 
HETATM   26  C   UNL     1      -5.595  -3.300 -34.670  1.00  0.00     0.001 A 
HETATM   27  C   UNL     1      -6.828  -2.665 -34.675  1.00  0.00     0.001 A 
HETATM   28  C   UNL     1      -6.947  -1.370 -34.169  1.00  0.00     0.008 A 
ENDBRANCH  19  22
ENDBRANCH  15  16
ENDBRANCH   1  15
TORSDOF 6
ENDMDL
MODEL 8
REMARK VINA RESULT:      -7.9      2.434      3.292
REMARK  6 active torsions:
REMARK  status: ('A' for Active; 'I' for Inactive)
REMARK    1  A    between atoms: C_2  and  C_3 
REMARK    2  A    between atoms: C_7  and  C_8 
REMARK       I    between atoms: C_8  and  N_9 
REMARK    3  A    between atoms: N_9  and  C_10 
REMARK    4  A    between atoms: C_10  and  C_11 
REMARK    5  A    between atoms: C_11  and  N_12 
REMARK    6  A    between atoms: C_15  and  C_16 
ROOT
HETATM    1  C   UNL     1      -6.745   3.542 -33.913  1.00  0.00     0.150 C 
ENDROOT
BRANCH   1   2
HETATM    2  N   UNL     1      -5.391   3.973 -33.670  1.00  0.00    -0.354 N 
HETATM    3  C   UNL     1      -4.885   4.124 -32.392  1.00  0.00     0.272 C 
HETATM    4  O   UNL     1      -5.508   3.740 -31.403  1.00  0.00    -0.266 OA
HETATM    5  H   UNL     1      -4.836   4.447 -34.385  1.00  0.00     0.162 HD
BRANCH   3   6
HETATM    6  C   UNL     1      -3.562   4.769 -32.367  1.00  0.00     0.152 A 
HETATM    7  N   UNL     1      -2.467   4.061 -32.720  1.00  0.00    -0.169 NA
HETATM    8  N   UNL     1      -1.456   4.934 -32.595  1.00  0.00    -0.281 N 
HETATM    9  C   UNL     1      -1.847   6.172 -32.169  1.00  0.00     0.036 A 
HETATM   10  H   UNL     1      -0.515   4.624 -32.817  1.00  0.00     0.189 HD
HETATM   11  C   UNL     1      -3.220   6.107 -32.008  1.00  0.00    -0.002 A 
HETATM   12  C   UNL     1      -4.121   7.202 -31.565  1.00  0.00     0.053 C 
BRANCH   9  13
HETATM   13  C   UNL     1      -0.869   7.279 -31.966  1.00  0.00     0.055 C 
HETATM   14  C   UNL     1       0.433   6.770 -31.367  1.00  0.00     0.011 C 
ENDBRANCH   9  13
ENDBRANCH   3   6
ENDBRANCH   1   2
BRANCH   1  15
HETATM   15  C   UNL     1      -6.848   2.043 -34.253  1.00  0.00     0.254 C 
BRANCH  15  16
HETATM   16  N   UNL     1      -6.502   1.176 -33.054  1.00  0.00    -0.069 N 
HETATM   17  H   UNL     1      -6.410   1.791 -32.234  1.00  0.00     0.280 HD
HETATM   18  C   UNL     1      -5.236   0.359 -33.214  1.00  0.00     0.244 C 
HETATM   19  C   UNL     1      -5.688  -0.927 -33.912  1.00  0.00     0.046 C 
HETATM   20  C   UNL     1      -7.182  -1.071 -33.591  1.00  0.00     0.039 C 
HETATM   21  C   UNL     1      -7.555   0.136 -32.748  1.00  0.00     0.235 C 
BRANCH  19  22
HETATM   22  C   UNL     1      -4.828  -2.115 -33.529  1.00  0.00    -0.046 A 
HETATM   23  C   UNL     1      -4.840  -3.312 -34.280  1.00  0.00    -0.055 A 
HETATM   24  C   UNL     1      -5.729  -3.511 -35.479  1.00  0.00     0.049 C 
HETATM   25  C   UNL     1      -4.002  -4.375 -33.897  1.00  0.00     0.007 A 
HETATM   26  C   UNL     1      -3.158  -4.264 -32.795  1.00  0.00     0.001 A 
HETATM   27  C   UNL     1      -3.139  -3.090 -32.055  1.00  0.00     0.001 A 
HETATM   28  C   UNL     1      -3.966  -2.026 -32.416  1.00  0.00     0.008 A 
ENDBRANCH  19  22
ENDBRANCH  15  16
ENDBRANCH   1  15
TORSDOF 6
ENDMDL
MODEL 9
REMARK VINA RESULT:      -7.9      3.433      4.348
REMARK  6 active torsions:
REMARK  status: ('A' for Active; 'I' for Inactive)
REMARK    1  A    between atoms: C_2  and  C_3 
REMARK    2  A    between atoms: C_7  and  C_8 
REMARK       I    between atoms: C_8  and  N_9 
REMARK    3  A    between atoms: N_9  and  C_10 
REMARK    4  A    between atoms: C_10  and  C_11 
REMARK    5  A    between atoms: C_11  and  N_12 
REMARK    6  A    between atoms: C_15  and  C_16 
ROOT
HETATM    1  C   UNL     1      -7.084   3.361 -30.141  1.00  0.00     0.150 C 
ENDROOT
BRANCH   1   2
HETATM    2  N   UNL     1      -5.994   4.167 -30.630  1.00  0.00    -0.354 N 
HETATM    3  C   UNL     1      -6.014   4.750 -31.883  1.00  0.00     0.272 C 
HETATM    4  O   UNL     1      -7.030   4.752 -32.576  1.00  0.00    -0.266 OA
HETATM    5  H   UNL     1      -5.059   4.123 -30.218  1.00  0.00     0.162 HD
BRANCH   3   6
HETATM    6  C   UNL     1      -4.724   5.350 -32.263  1.00  0.00     0.152 A 
HETATM    7  N   UNL     1      -4.586   6.693 -32.262  1.00  0.00    -0.169 NA
HETATM    8  N   UNL     1      -3.314   6.893 -32.639  1.00  0.00    -0.281 N 
HETATM    9  C   UNL     1      -2.627   5.740 -32.893  1.00  0.00     0.036 A 
HETATM   10  H   UNL     1      -2.971   7.847 -32.707  1.00  0.00     0.189 HD
HETATM   11  C   UNL     1      -3.514   4.704 -32.658  1.00  0.00    -0.002 A 
HETATM   12  C   UNL     1      -3.244   3.249 -32.786  1.00  0.00     0.053 C 
BRANCH   9  13
HETATM   13  C   UNL     1      -1.201   5.754 -33.328  1.00  0.00     0.055 C 
HETATM   14  C   UNL     1      -1.071   5.503 -34.822  1.00  0.00     0.011 C 
ENDBRANCH   9  13
ENDBRANCH   3   6
ENDBRANCH   1   2
BRANCH   1  15
HETATM   15  C   UNL     1      -6.655   1.927 -29.771  1.00  0.00     0.254 C 
BRANCH  15  16
HETATM   16  N   UNL     1      -7.440   0.892 -30.557  1.00  0.00    -0.069 N 
HETATM   17  H   UNL     1      -8.242   0.598 -29.983  1.00  0.00     0.280 HD
HETATM   18  C   UNL     1      -6.640  -0.330 -30.962  1.00  0.00     0.244 C 
HETATM   19  C   UNL     1      -5.980   0.059 -32.289  1.00  0.00     0.046 C 
HETATM   20  C   UNL     1      -6.855   1.176 -32.875  1.00  0.00     0.039 C 
HETATM   21  C   UNL     1      -7.968   1.417 -31.872  1.00  0.00     0.235 C 
BRANCH  19  22
HETATM   22  C   UNL     1      -5.769  -1.139 -33.192  1.00  0.00    -0.046 A 
HETATM   23  C   UNL     1      -4.522  -1.800 -33.269  1.00  0.00    -0.055 A 
HETATM   24  C   UNL     1      -3.311  -1.343 -32.498  1.00  0.00     0.049 C 
HETATM   25  C   UNL     1      -4.387  -2.924 -34.102  1.00  0.00     0.007 A 
HETATM   26  C   UNL     1      -5.463  -3.399 -34.849  1.00  0.00     0.001 A 
HETATM   27  C   UNL     1      -6.690  -2.757 -34.776  1.00  0.00     0.001 A 
HETATM   28  C   UNL     1      -6.843  -1.637 -33.958  1.00  0.00     0.008 A 
ENDBRANCH  19  22
ENDBRANCH  15  16
ENDBRANCH   1  15
TORSDOF 6
ENDMDL
MODEL 10
REMARK VINA RESULT:      -7.8      5.009      8.013
REMARK  6 active torsions:
REMARK  status: ('A' for Active; 'I' for Inactive)
REMARK    1  A    between atoms: C_2  and  C_3 
REMARK    2  A    between atoms: C_7  and  C_8 
REMARK       I    between atoms: C_8  and  N_9 
REMARK    3  A    between atoms: N_9  and  C_10 
REMARK    4  A    between atoms: C_10  and  C_11 
REMARK    5  A    between atoms: C_11  and  N_12 
REMARK    6  A    between atoms: C_15  and  C_16 
ROOT
HETATM    1  C   UNL     1      -6.533   1.996 -29.917  1.00  0.00     0.150 C 
ENDROOT
BRANCH   1   2
HETATM    2  N   UNL     1      -7.726   1.847 -30.713  1.00  0.00    -0.354 N 
HETATM    3  C   UNL     1      -8.062   2.745 -31.710  1.00  0.00     0.272 C 
HETATM    4  O   UNL     1      -7.279   3.618 -32.080  1.00  0.00    -0.266 OA
HETATM    5  H   UNL     1      -8.507   1.260 -30.415  1.00  0.00     0.162 HD
BRANCH   3   6
HETATM    6  C   UNL     1      -9.413   2.526 -32.253  1.00  0.00     0.152 A 
HETATM    7  N   UNL     1     -10.439   3.289 -31.818  1.00  0.00    -0.169 NA
HETATM    8  N   UNL     1     -11.498   2.841 -32.509  1.00  0.00    -0.281 N 
HETATM    9  C   UNL     1     -11.204   1.817 -33.365  1.00  0.00     0.036 A 
HETATM   10  H   UNL     1     -12.402   3.277 -32.351  1.00  0.00     0.189 HD
HETATM   11  C   UNL     1      -9.848   1.579 -33.228  1.00  0.00    -0.002 A 
HETATM   12  C   UNL     1      -9.041   0.564 -33.952  1.00  0.00     0.053 C 
BRANCH   9  13
HETATM   13  C   UNL     1     -12.248   1.181 -34.218  1.00  0.00     0.055 C 
HETATM   14  C   UNL     1     -12.827  -0.062 -33.559  1.00  0.00     0.011 C 
ENDBRANCH   9  13
ENDBRANCH   3   6
ENDBRANCH   1   2
BRANCH   1  15
HETATM   15  C   UNL     1      -5.305   1.299 -30.536  1.00  0.00     0.254 C 
BRANCH  15  16
HETATM   16  N   UNL     1      -5.585   0.837 -31.956  1.00  0.00    -0.069 N 
HETATM   17  H   UNL     1      -6.411   1.347 -32.298  1.00  0.00     0.280 HD
HETATM   18  C   UNL     1      -5.822  -0.653 -32.097  1.00  0.00     0.244 C 
HETATM   19  C   UNL     1      -4.423  -1.254 -32.263  1.00  0.00     0.046 C 
HETATM   20  C   UNL     1      -3.543  -0.117 -32.800  1.00  0.00     0.039 C 
HETATM   21  C   UNL     1      -4.440   1.103 -32.905  1.00  0.00     0.235 C 
BRANCH  19  22
HETATM   22  C   UNL     1      -4.441  -2.512 -33.107  1.00  0.00    -0.046 A 
HETATM   23  C   UNL     1      -3.640  -3.632 -32.789  1.00  0.00    -0.055 A 
HETATM   24  C   UNL     1      -2.687  -3.644 -31.622  1.00  0.00     0.049 C 
HETATM   25  C   UNL     1      -3.714  -4.785 -33.590  1.00  0.00     0.007 A 
HETATM   26  C   UNL     1      -4.569  -4.843 -34.688  1.00  0.00     0.001 A 
HETATM   27  C   UNL     1      -5.360  -3.748 -35.006  1.00  0.00     0.001 A 
HETATM   28  C   UNL     1      -5.298  -2.594 -34.225  1.00  0.00     0.008 A 
ENDBRANCH  19  22
ENDBRANCH  15  16
ENDBRANCH   1  15
TORSDOF 6
ENDMDL
