MODEL 1
REMARK VINA RESULT:      -8.9      0.000      0.000
REMARK  4 active torsions:
REMARK  status: ('A' for Active; 'I' for Inactive)
REMARK    1  A    between atoms: C_7  and  C_8 
REMARK    2  A    between atoms: C_8  and  N_9 
REMARK    3  A    between atoms: N_15  and  C_17 
REMARK    4  A    between atoms: C_17  and  C_18 
ROOT
HETATM    1  N   UNL     1      -3.622   4.236 -32.714  1.00  0.00    -0.067 N 
HETATM    2  H   UNL     1      -3.374   4.551 -33.662  1.00  0.00     0.280 HD
HETATM    3  C   UNL     1      -3.416   2.744 -32.725  1.00  0.00     0.236 C 
HETATM    4  C   UNL     1      -3.981   2.106 -31.458  1.00  0.00     0.039 C 
HETATM    5  C   UNL     1      -5.477   2.435 -31.199  1.00  0.00    -0.013 C 
HETATM    6  C   UNL     1      -6.429   1.756 -32.219  1.00  0.00     0.244 C 
HETATM    7  N   UNL     1      -6.409   0.260 -32.063  1.00  0.00    -0.065 N 
HETATM    8  H   UNL     1      -5.448  -0.084 -32.230  1.00  0.00     0.280 HD
HETATM    9  C   UNL     1      -6.854  -0.199 -30.704  1.00  0.00     0.235 C 
HETATM   10  C   UNL     1      -5.959   0.435 -29.649  1.00  0.00     0.029 C 
HETATM   11  C   UNL     1      -5.892   1.957 -29.782  1.00  0.00     0.013 C 
HETATM   12  C   UNL     1      -5.643   3.980 -31.265  1.00  0.00     0.039 C 
HETATM   13  C   UNL     1      -5.061   4.628 -32.521  1.00  0.00     0.236 C 
ENDROOT
BRANCH   7  14
HETATM   14  C   UNL     1      -7.153  -0.451 -33.198  1.00  0.00     0.293 C 
BRANCH  14  15
HETATM   15  C   UNL     1      -6.335  -1.609 -33.734  1.00  0.00     0.060 A 
HETATM   16  N   UNL     1      -5.001  -1.598 -33.422  1.00  0.00    -0.264 NA
HETATM   17  C   UNL     1      -4.277  -2.670 -33.834  1.00  0.00     0.117 A 
HETATM   18  C   UNL     1      -4.800  -3.718 -34.570  1.00  0.00     0.019 A 
HETATM   19  C   UNL     1      -6.152  -3.689 -34.893  1.00  0.00     0.003 A 
HETATM   20  C   UNL     1      -6.940  -2.628 -34.462  1.00  0.00     0.029 A 
ENDBRANCH  14  15
ENDBRANCH   7  14
BRANCH   1  21
HETATM   21  C   UNL     1      -2.655   5.025 -31.831  1.00  0.00     0.278 C 
BRANCH  21  22
HETATM   22  C   UNL     1      -2.198   6.295 -32.435  1.00  0.00     0.025 A 
HETATM   23  C   UNL     1      -1.636   6.491 -33.731  1.00  0.00     0.068 A 
HETATM   24  C   UNL     1      -1.324   5.493 -34.784  1.00  0.00     0.073 C 
HETATM   25  N   UNL     1      -1.406   7.783 -33.965  1.00  0.00    -0.133 NA
HETATM   26  O   UNL     1      -1.736   8.451 -32.810  1.00  0.00    -0.217 OA
HETATM   27  C   UNL     1      -2.191   7.565 -31.887  1.00  0.00     0.085 A 
HETATM   28  C   UNL     1      -2.568   8.147 -30.584  1.00  0.00     0.079 C 
ENDBRANCH  21  22
ENDBRANCH   1  21
TORSDOF 4
ENDMDL
MODEL 2
REMARK VINA RESULT:      -8.9      0.422      1.599
REMARK  4 active torsions:
REMARK  status: ('A' for Active; 'I' for Inactive)
REMARK    1  A    between atoms: C_7  and  C_8 
REMARK    2  A    between atoms: C_8  and  N_9 
REMARK    3  A    between atoms: N_15  and  C_17 
REMARK    4  A    between atoms: C_17  and  C_18 
ROOT
HETATM    1  N   UNL     1      -3.848   4.391 -32.668  1.00  0.00    -0.067 N 
HETATM    2  H   UNL     1      -3.638   4.747 -33.612  1.00  0.00     0.280 HD
HETATM    3  C   UNL     1      -3.575   2.911 -32.733  1.00  0.00     0.236 C 
HETATM    4  C   UNL     1      -4.079   2.209 -31.474  1.00  0.00     0.039 C 
HETATM    5  C   UNL     1      -5.582   2.461 -31.170  1.00  0.00    -0.013 C 
HETATM    6  C   UNL     1      -6.526   1.770 -32.189  1.00  0.00     0.244 C 
HETATM    7  N   UNL     1      -6.435   0.272 -32.081  1.00  0.00    -0.065 N 
HETATM    8  H   UNL     1      -5.464  -0.021 -32.280  1.00  0.00     0.280 HD
HETATM    9  C   UNL     1      -6.825  -0.248 -30.727  1.00  0.00     0.235 C 
HETATM   10  C   UNL     1      -5.934   0.394 -29.673  1.00  0.00     0.029 C 
HETATM   11  C   UNL     1      -5.939   1.921 -29.759  1.00  0.00     0.013 C 
HETATM   12  C   UNL     1      -5.819   3.998 -31.182  1.00  0.00     0.039 C 
HETATM   13  C   UNL     1      -5.298   4.710 -32.430  1.00  0.00     0.236 C 
ENDROOT
BRANCH   7  14
HETATM   14  C   UNL     1      -7.174  -0.436 -33.220  1.00  0.00     0.293 C 
BRANCH  14  15
HETATM   15  C   UNL     1      -6.348  -1.586 -33.762  1.00  0.00     0.060 A 
HETATM   16  N   UNL     1      -5.008  -1.551 -33.476  1.00  0.00    -0.264 NA
HETATM   17  C   UNL     1      -4.276  -2.616 -33.893  1.00  0.00     0.117 A 
HETATM   18  C   UNL     1      -4.796  -3.678 -34.610  1.00  0.00     0.019 A 
HETATM   19  C   UNL     1      -6.154  -3.673 -34.908  1.00  0.00     0.003 A 
HETATM   20  C   UNL     1      -6.950  -2.620 -34.470  1.00  0.00     0.029 A 
ENDBRANCH  14  15
ENDBRANCH   7  14
BRANCH   1  21
HETATM   21  C   UNL     1      -2.896   5.196 -31.784  1.00  0.00     0.278 C 
BRANCH  21  22
HETATM   22  C   UNL     1      -2.358   6.409 -32.437  1.00  0.00     0.025 A 
HETATM   23  C   UNL     1      -2.416   7.753 -31.962  1.00  0.00     0.068 A 
HETATM   24  C   UNL     1      -3.056   8.293 -30.738  1.00  0.00     0.073 C 
HETATM   25  N   UNL     1      -1.762   8.579 -32.779  1.00  0.00    -0.133 NA
HETATM   26  O   UNL     1      -1.329   7.817 -33.837  1.00  0.00    -0.217 OA
HETATM   27  C   UNL     1      -1.699   6.524 -33.647  1.00  0.00     0.085 A 
HETATM   28  C   UNL     1      -1.312   5.591 -34.724  1.00  0.00     0.079 C 
ENDBRANCH  21  22
ENDBRANCH   1  21
TORSDOF 4
ENDMDL
MODEL 3
REMARK VINA RESULT:      -8.6      4.239      7.001
REMARK  4 active torsions:
REMARK  status: ('A' for Active; 'I' for Inactive)
REMARK    1  A    between atoms: C_7  and  C_8 
REMARK    2  A    between atoms: C_8  and  N_9 
REMARK    3  A    between atoms: N_15  and  C_17 
REMARK    4  A    between atoms: C_17  and  C_18 
ROOT
HETATM    1  N   UNL     1      -9.453   0.790 -33.076  1.00  0.00    -0.067 N 
HETATM    2  H   UNL     1     -10.068   0.036 -33.413  1.00  0.00     0.280 HD
HETATM    3  C   UNL     1      -8.325   0.856 -34.072  1.00  0.00     0.236 C 
HETATM    4  C   UNL     1      -7.206   1.764 -33.567  1.00  0.00     0.039 C 
HETATM    5  C   UNL     1      -6.659   1.374 -32.166  1.00  0.00    -0.013 C 
HETATM    6  C   UNL     1      -5.860   0.043 -32.182  1.00  0.00     0.244 C 
HETATM    7  N   UNL     1      -4.593   0.184 -32.981  1.00  0.00    -0.065 N 
HETATM    8  H   UNL     1      -4.835   0.434 -33.955  1.00  0.00     0.280 HD
HETATM    9  C   UNL     1      -3.661   1.227 -32.435  1.00  0.00     0.235 C 
HETATM   10  C   UNL     1      -4.386   2.565 -32.390  1.00  0.00     0.029 C 
HETATM   11  C   UNL     1      -5.713   2.483 -31.633  1.00  0.00     0.013 C 
HETATM   12  C   UNL     1      -7.870   1.254 -31.198  1.00  0.00     0.039 C 
HETATM   13  C   UNL     1      -9.003   0.363 -31.707  1.00  0.00     0.236 C 
ENDROOT
BRANCH   7  14
HETATM   14  C   UNL     1      -3.900  -1.163 -33.209  1.00  0.00     0.293 C 
BRANCH  14  15
HETATM   15  C   UNL     1      -4.837  -2.139 -33.893  1.00  0.00     0.060 A 
HETATM   16  N   UNL     1      -4.378  -3.423 -34.026  1.00  0.00    -0.264 NA
HETATM   17  C   UNL     1      -5.241  -4.319 -34.568  1.00  0.00     0.117 A 
HETATM   18  C   UNL     1      -6.507  -3.994 -35.022  1.00  0.00     0.019 A 
HETATM   19  C   UNL     1      -6.937  -2.677 -34.898  1.00  0.00     0.003 A 
HETATM   20  C   UNL     1      -6.099  -1.733 -34.315  1.00  0.00     0.029 A 
ENDBRANCH  14  15
ENDBRANCH   7  14
BRANCH   1  21
HETATM   21  C   UNL     1     -10.384   2.002 -33.059  1.00  0.00     0.278 C 
BRANCH  21  22
HETATM   22  C   UNL     1     -11.415   1.978 -34.120  1.00  0.00     0.025 A 
HETATM   23  C   UNL     1     -11.587   2.908 -35.187  1.00  0.00     0.068 A 
HETATM   24  C   UNL     1     -10.828   4.146 -35.491  1.00  0.00     0.073 C 
HETATM   25  N   UNL     1     -12.577   2.532 -35.997  1.00  0.00    -0.133 NA
HETATM   26  O   UNL     1     -13.122   1.398 -35.443  1.00  0.00    -0.217 OA
HETATM   27  C   UNL     1     -12.443   1.074 -34.312  1.00  0.00     0.085 A 
HETATM   28  C   UNL     1     -12.936  -0.121 -33.599  1.00  0.00     0.079 C 
ENDBRANCH  21  22
ENDBRANCH   1  21
TORSDOF 4
ENDMDL
MODEL 4
REMARK VINA RESULT:      -8.4      1.509      2.478
REMARK  4 active torsions:
REMARK  status: ('A' for Active; 'I' for Inactive)
REMARK    1  A    between atoms: C_7  and  C_8 
REMARK    2  A    between atoms: C_8  and  N_9 
REMARK    3  A    between atoms: N_15  and  C_17 
REMARK    4  A    between atoms: C_17  and  C_18 
ROOT
HETATM    1  N   UNL     1      -4.294   4.377 -33.224  1.00  0.00    -0.067 N 
HETATM    2  H   UNL     1      -3.454   4.320 -33.817  1.00  0.00     0.280 HD
HETATM    3  C   UNL     1      -4.451   3.004 -32.627  1.00  0.00     0.236 C 
HETATM    4  C   UNL     1      -5.797   2.869 -31.918  1.00  0.00     0.039 C 
HETATM    5  C   UNL     1      -7.020   3.202 -32.816  1.00  0.00    -0.013 C 
HETATM    6  C   UNL     1      -7.259   2.143 -33.925  1.00  0.00     0.244 C 
HETATM    7  N   UNL     1      -7.662   0.821 -33.332  1.00  0.00    -0.065 N 
HETATM    8  H   UNL     1      -6.905   0.484 -32.713  1.00  0.00     0.280 HD
HETATM    9  C   UNL     1      -8.934   0.892 -32.538  1.00  0.00     0.235 C 
HETATM   10  C   UNL     1      -8.770   1.920 -31.427  1.00  0.00     0.029 C 
HETATM   11  C   UNL     1      -8.310   3.279 -31.957  1.00  0.00     0.013 C 
HETATM   12  C   UNL     1      -6.773   4.597 -33.458  1.00  0.00     0.039 C 
HETATM   13  C   UNL     1      -5.419   4.746 -34.151  1.00  0.00     0.236 C 
ENDROOT
BRANCH   7  14
HETATM   14  C   UNL     1      -7.680  -0.301 -34.375  1.00  0.00     0.293 C 
BRANCH  14  15
HETATM   15  C   UNL     1      -6.492  -1.224 -34.190  1.00  0.00     0.060 A 
HETATM   16  N   UNL     1      -6.486  -2.359 -34.957  1.00  0.00    -0.264 NA
HETATM   17  C   UNL     1      -5.389  -3.152 -34.852  1.00  0.00     0.117 A 
HETATM   18  C   UNL     1      -4.331  -2.897 -33.999  1.00  0.00     0.019 A 
HETATM   19  C   UNL     1      -4.376  -1.750 -33.214  1.00  0.00     0.003 A 
HETATM   20  C   UNL     1      -5.464  -0.890 -33.315  1.00  0.00     0.029 A 
ENDBRANCH  14  15
ENDBRANCH   7  14
BRANCH   1  21
HETATM   21  C   UNL     1      -3.935   5.485 -32.235  1.00  0.00     0.278 C 
BRANCH  21  22
HETATM   22  C   UNL     1      -2.961   6.465 -32.765  1.00  0.00     0.025 A 
HETATM   23  C   UNL     1      -2.718   7.790 -32.298  1.00  0.00     0.068 A 
HETATM   24  C   UNL     1      -3.387   8.545 -31.210  1.00  0.00     0.073 C 
HETATM   25  N   UNL     1      -1.716   8.360 -32.970  1.00  0.00    -0.133 NA
HETATM   26  O   UNL     1      -1.335   7.458 -33.935  1.00  0.00    -0.217 OA
HETATM   27  C   UNL     1      -2.088   6.333 -33.829  1.00  0.00     0.085 A 
HETATM   28  C   UNL     1      -1.795   5.281 -34.822  1.00  0.00     0.079 C 
ENDBRANCH  21  22
ENDBRANCH   1  21
TORSDOF 4
ENDMDL
MODEL 5
REMARK VINA RESULT:      -7.9      3.028      4.591
REMARK  4 active torsions:
REMARK  status: ('A' for Active; 'I' for Inactive)
REMARK    1  A    between atoms: C_7  and  C_8 
REMARK    2  A    between atoms: C_8  and  N_9 
REMARK    3  A    between atoms: N_15  and  C_17 
REMARK    4  A    between atoms: C_17  and  C_18 
ROOT
HETATM    1  N   UNL     1      -4.348   3.432 -32.029  1.00  0.00    -0.067 N 
HETATM    2  H   UNL     1      -4.374   4.367 -31.599  1.00  0.00     0.280 HD
HETATM    3  C   UNL     1      -5.438   3.444 -33.068  1.00  0.00     0.236 C 
HETATM    4  C   UNL     1      -5.681   2.041 -33.618  1.00  0.00     0.039 C 
HETATM    5  C   UNL     1      -5.997   0.980 -32.527  1.00  0.00    -0.013 C 
HETATM    6  C   UNL     1      -7.386   1.192 -31.867  1.00  0.00     0.244 C 
HETATM    7  N   UNL     1      -8.495   0.958 -32.856  1.00  0.00    -0.065 N 
HETATM    8  H   UNL     1      -8.396   1.628 -33.637  1.00  0.00     0.280 HD
HETATM    9  C   UNL     1      -8.504  -0.434 -33.417  1.00  0.00     0.235 C 
HETATM   10  C   UNL     1      -7.163  -0.711 -34.082  1.00  0.00     0.029 C 
HETATM   11  C   UNL     1      -5.984  -0.443 -33.145  1.00  0.00     0.013 C 
HETATM   12  C   UNL     1      -4.879   1.059 -31.449  1.00  0.00     0.039 C 
HETATM   13  C   UNL     1      -4.616   2.465 -30.909  1.00  0.00     0.236 C 
ENDROOT
BRANCH   7  14
HETATM   14  C   UNL     1      -9.860   1.381 -32.305  1.00  0.00     0.293 C 
BRANCH  14  15
HETATM   15  C   UNL     1     -10.786   1.802 -33.429  1.00  0.00     0.060 A 
HETATM   16  N   UNL     1     -10.437   2.945 -34.099  1.00  0.00    -0.264 NA
HETATM   17  C   UNL     1     -11.218   3.286 -35.156  1.00  0.00     0.117 A 
HETATM   18  C   UNL     1     -12.342   2.580 -35.545  1.00  0.00     0.019 A 
HETATM   19  C   UNL     1     -12.686   1.438 -34.830  1.00  0.00     0.003 A 
HETATM   20  C   UNL     1     -11.894   1.030 -33.762  1.00  0.00     0.029 A 
ENDBRANCH  14  15
ENDBRANCH   7  14
BRANCH   1  21
HETATM   21  C   UNL     1      -2.923   3.350 -32.574  1.00  0.00     0.278 C 
BRANCH  21  22
HETATM   22  C   UNL     1      -2.347   4.664 -32.938  1.00  0.00     0.025 A 
HETATM   23  C   UNL     1      -1.395   5.431 -32.205  1.00  0.00     0.068 A 
HETATM   24  C   UNL     1      -0.771   5.150 -30.889  1.00  0.00     0.073 C 
HETATM   25  N   UNL     1      -1.049   6.532 -32.872  1.00  0.00    -0.133 NA
HETATM   26  O   UNL     1      -1.817   6.551 -34.012  1.00  0.00    -0.217 OA
HETATM   27  C   UNL     1      -2.607   5.448 -34.047  1.00  0.00     0.085 A 
HETATM   28  C   UNL     1      -3.502   5.348 -35.217  1.00  0.00     0.079 C 
ENDBRANCH  21  22
ENDBRANCH   1  21
TORSDOF 4
ENDMDL
MODEL 6
REMARK VINA RESULT:      -7.8      3.037      4.499
REMARK  4 active torsions:
REMARK  status: ('A' for Active; 'I' for Inactive)
REMARK    1  A    between atoms: C_7  and  C_8 
REMARK    2  A    between atoms: C_8  and  N_9 
REMARK    3  A    between atoms: N_15  and  C_17 
REMARK    4  A    between atoms: C_17  and  C_18 
ROOT
HETATM    1  N   UNL     1      -4.240   4.854 -31.482  1.00  0.00    -0.067 N 
HETATM    2  H   UNL     1      -4.343   5.723 -30.940  1.00  0.00     0.280 HD
HETATM    3  C   UNL     1      -5.223   4.975 -32.616  1.00  0.00     0.236 C 
HETATM    4  C   UNL     1      -5.357   3.651 -33.365  1.00  0.00     0.039 C 
HETATM    5  C   UNL     1      -5.736   2.448 -32.458  1.00  0.00    -0.013 C 
HETATM    6  C   UNL     1      -7.189   2.534 -31.920  1.00  0.00     0.244 C 
HETATM    7  N   UNL     1      -8.187   2.405 -33.038  1.00  0.00    -0.065 N 
HETATM    8  H   UNL     1      -8.039   3.175 -33.712  1.00  0.00     0.280 HD
HETATM    9  C   UNL     1      -8.087   1.099 -33.772  1.00  0.00     0.235 C 
HETATM   10  C   UNL     1      -6.678   0.948 -34.327  1.00  0.00     0.029 C 
HETATM   11  C   UNL     1      -5.607   1.119 -33.249  1.00  0.00     0.013 C 
HETATM   12  C   UNL     1      -4.731   2.412 -31.270  1.00  0.00     0.039 C 
HETATM   13  C   UNL     1      -4.577   3.740 -30.530  1.00  0.00     0.236 C 
ENDROOT
BRANCH   7  14
HETATM   14  C   UNL     1      -9.615   2.715 -32.578  1.00  0.00     0.293 C 
BRANCH  14  15
HETATM   15  C   UNL     1     -10.553   2.805 -33.766  1.00  0.00     0.060 A 
HETATM   16  N   UNL     1     -11.504   1.823 -33.857  1.00  0.00    -0.264 NA
HETATM   17  C   UNL     1     -12.395   1.940 -34.875  1.00  0.00     0.117 A 
HETATM   18  C   UNL     1     -12.358   2.948 -35.822  1.00  0.00     0.019 A 
HETATM   19  C   UNL     1     -11.365   3.916 -35.718  1.00  0.00     0.003 A 
HETATM   20  C   UNL     1     -10.453   3.857 -34.670  1.00  0.00     0.029 A 
ENDBRANCH  14  15
ENDBRANCH   7  14
BRANCH   1  21
HETATM   21  C   UNL     1      -2.766   4.882 -31.886  1.00  0.00     0.278 C 
BRANCH  21  22
HETATM   22  C   UNL     1      -2.344   6.151 -32.517  1.00  0.00     0.025 A 
HETATM   23  C   UNL     1      -1.818   6.339 -33.829  1.00  0.00     0.068 A 
HETATM   24  C   UNL     1      -1.518   5.333 -34.877  1.00  0.00     0.073 C 
HETATM   25  N   UNL     1      -1.615   7.632 -34.085  1.00  0.00    -0.133 NA
HETATM   26  O   UNL     1      -1.926   8.309 -32.930  1.00  0.00    -0.217 OA
HETATM   27  C   UNL     1      -2.344   7.427 -31.985  1.00  0.00     0.085 A 
HETATM   28  C   UNL     1      -2.696   8.020 -30.679  1.00  0.00     0.079 C 
ENDBRANCH  21  22
ENDBRANCH   1  21
TORSDOF 4
ENDMDL
MODEL 7
REMARK VINA RESULT:      -7.8      2.718      7.698
REMARK  4 active torsions:
REMARK  status: ('A' for Active; 'I' for Inactive)
REMARK    1  A    between atoms: C_7  and  C_8 
REMARK    2  A    between atoms: C_8  and  N_9 
REMARK    3  A    between atoms: N_15  and  C_17 
REMARK    4  A    between atoms: C_17  and  C_18 
ROOT
HETATM    1  N   UNL     1      -4.970   0.309 -31.451  1.00  0.00    -0.067 N 
HETATM    2  H   UNL     1      -4.072  -0.186 -31.363  1.00  0.00     0.280 HD
HETATM    3  C   UNL     1      -4.726   1.398 -32.463  1.00  0.00     0.236 C 
HETATM    4  C   UNL     1      -5.902   2.370 -32.512  1.00  0.00     0.039 C 
HETATM    5  C   UNL     1      -6.264   2.994 -31.135  1.00  0.00    -0.013 C 
HETATM    6  C   UNL     1      -5.190   3.989 -30.624  1.00  0.00     0.244 C 
HETATM    7  N   UNL     1      -5.117   5.206 -31.505  1.00  0.00    -0.065 N 
HETATM    8  H   UNL     1      -4.865   4.913 -32.465  1.00  0.00     0.280 HD
HETATM    9  C   UNL     1      -6.407   5.973 -31.563  1.00  0.00     0.235 C 
HETATM   10  C   UNL     1      -7.512   5.050 -32.057  1.00  0.00     0.029 C 
HETATM   11  C   UNL     1      -7.608   3.764 -31.234  1.00  0.00     0.013 C 
HETATM   12  C   UNL     1      -6.439   1.831 -30.117  1.00  0.00     0.039 C 
HETATM   13  C   UNL     1      -5.274   0.842 -30.078  1.00  0.00     0.236 C 
ENDROOT
BRANCH   7  14
HETATM   14  C   UNL     1      -3.917   6.096 -31.167  1.00  0.00     0.293 C 
BRANCH  14  15
HETATM   15  C   UNL     1      -2.900   6.074 -32.291  1.00  0.00     0.060 A 
HETATM   16  N   UNL     1      -2.804   4.901 -32.994  1.00  0.00    -0.264 NA
HETATM   17  C   UNL     1      -1.951   4.899 -34.049  1.00  0.00     0.117 A 
HETATM   18  C   UNL     1      -1.163   5.979 -34.408  1.00  0.00     0.019 A 
HETATM   19  C   UNL     1      -1.263   7.147 -33.661  1.00  0.00     0.003 A 
HETATM   20  C   UNL     1      -2.152   7.207 -32.592  1.00  0.00     0.029 A 
ENDBRANCH  14  15
ENDBRANCH   7  14
BRANCH   1  21
HETATM   21  C   UNL     1      -5.924  -0.798 -31.897  1.00  0.00     0.278 C 
BRANCH  21  22
HETATM   22  C   UNL     1      -5.500  -1.490 -33.134  1.00  0.00     0.025 A 
HETATM   23  C   UNL     1      -4.387  -2.365 -33.304  1.00  0.00     0.068 A 
HETATM   24  C   UNL     1      -3.352  -2.776 -32.324  1.00  0.00     0.073 C 
HETATM   25  N   UNL     1      -4.351  -2.862 -34.541  1.00  0.00    -0.133 NA
HETATM   26  O   UNL     1      -5.385  -2.270 -35.226  1.00  0.00    -0.217 OA
HETATM   27  C   UNL     1      -6.062  -1.435 -34.396  1.00  0.00     0.085 A 
HETATM   28  C   UNL     1      -7.195  -0.715 -35.010  1.00  0.00     0.079 C 
ENDBRANCH  21  22
ENDBRANCH   1  21
TORSDOF 4
ENDMDL
MODEL 8
REMARK VINA RESULT:      -7.7      3.474      8.040
REMARK  4 active torsions:
REMARK  status: ('A' for Active; 'I' for Inactive)
REMARK    1  A    between atoms: C_7  and  C_8 
REMARK    2  A    between atoms: C_8  and  N_9 
REMARK    3  A    between atoms: N_15  and  C_17 
REMARK    4  A    between atoms: C_17  and  C_18 
ROOT
HETATM    1  N   UNL     1      -6.485  -0.217 -33.398  1.00  0.00    -0.067 N 
HETATM    2  H   UNL     1      -5.522  -0.346 -33.060  1.00  0.00     0.280 HD
HETATM    3  C   UNL     1      -6.425   0.969 -34.325  1.00  0.00     0.236 C 
HETATM    4  C   UNL     1      -7.828   1.431 -34.712  1.00  0.00     0.039 C 
HETATM    5  C   UNL     1      -8.744   1.750 -33.498  1.00  0.00    -0.013 C 
HETATM    6  C   UNL     1      -8.306   3.026 -32.732  1.00  0.00     0.244 C 
HETATM    7  N   UNL     1      -8.480   4.254 -33.583  1.00  0.00    -0.065 N 
HETATM    8  H   UNL     1      -7.896   4.162 -34.432  1.00  0.00     0.280 HD
HETATM    9  C   UNL     1      -9.903   4.485 -34.004  1.00  0.00     0.235 C 
HETATM   10  C   UNL     1     -10.401   3.263 -34.763  1.00  0.00     0.029 C 
HETATM   11  C   UNL     1     -10.205   1.968 -33.973  1.00  0.00     0.013 C 
HETATM   12  C   UNL     1      -8.716   0.522 -32.544  1.00  0.00     0.039 C 
HETATM   13  C   UNL     1      -7.313   0.041 -32.170  1.00  0.00     0.236 C 
ENDROOT
BRANCH   7  14
HETATM   14  C   UNL     1      -7.845   5.495 -32.948  1.00  0.00     0.293 C 
BRANCH  14  15
HETATM   15  C   UNL     1      -6.356   5.537 -33.228  1.00  0.00     0.060 A 
HETATM   16  N   UNL     1      -5.929   4.837 -34.325  1.00  0.00    -0.264 NA
HETATM   17  C   UNL     1      -4.609   4.933 -34.626  1.00  0.00     0.117 A 
HETATM   18  C   UNL     1      -3.695   5.646 -33.870  1.00  0.00     0.019 A 
HETATM   19  C   UNL     1      -4.153   6.326 -32.747  1.00  0.00     0.003 A 
HETATM   20  C   UNL     1      -5.504   6.285 -32.422  1.00  0.00     0.029 A 
ENDBRANCH  14  15
ENDBRANCH   7  14
BRANCH   1  21
HETATM   21  C   UNL     1      -6.791  -1.557 -34.066  1.00  0.00     0.278 C 
BRANCH  21  22
HETATM   22  C   UNL     1      -5.656  -2.505 -34.050  1.00  0.00     0.025 A 
HETATM   23  C   UNL     1      -5.594  -3.800 -34.643  1.00  0.00     0.068 A 
HETATM   24  C   UNL     1      -6.639  -4.550 -35.381  1.00  0.00     0.073 C 
HETATM   25  N   UNL     1      -4.385  -4.341 -34.488  1.00  0.00    -0.133 NA
HETATM   26  O   UNL     1      -3.657  -3.455 -33.731  1.00  0.00    -0.217 OA
HETATM   27  C   UNL     1      -4.417  -2.365 -33.450  1.00  0.00     0.085 A 
HETATM   28  C   UNL     1      -3.762  -1.334 -32.623  1.00  0.00     0.079 C 
ENDBRANCH  21  22
ENDBRANCH   1  21
TORSDOF 4
ENDMDL
MODEL 9
REMARK VINA RESULT:      -7.7      5.054      8.070
REMARK  4 active torsions:
REMARK  status: ('A' for Active; 'I' for Inactive)
REMARK    1  A    between atoms: C_7  and  C_8 
REMARK    2  A    between atoms: C_8  and  N_9 
REMARK    3  A    between atoms: N_15  and  C_17 
REMARK    4  A    between atoms: C_17  and  C_18 
ROOT
HETATM    1  N   UNL     1      -7.875  -0.281 -33.637  1.00  0.00    -0.067 N 
HETATM    2  H   UNL     1      -8.125  -1.124 -34.174  1.00  0.00     0.280 HD
HETATM    3  C   UNL     1      -9.137   0.123 -32.922  1.00  0.00     0.236 C 
HETATM    4  C   UNL     1      -8.983   1.500 -32.280  1.00  0.00     0.039 C 
HETATM    5  C   UNL     1      -8.553   2.615 -33.274  1.00  0.00    -0.013 C 
HETATM    6  C   UNL     1      -9.669   2.979 -34.289  1.00  0.00     0.244 C 
HETATM    7  N   UNL     1     -10.842   3.617 -33.597  1.00  0.00    -0.065 N 
HETATM    8  H   UNL     1     -11.229   2.950 -32.907  1.00  0.00     0.280 HD
HETATM    9  C   UNL     1     -10.488   4.891 -32.886  1.00  0.00     0.235 C 
HETATM   10  C   UNL     1      -9.391   4.605 -31.870  1.00  0.00     0.029 C 
HETATM   11  C   UNL     1      -8.184   3.908 -32.499  1.00  0.00     0.013 C 
HETATM   12  C   UNL     1      -7.288   2.117 -34.030  1.00  0.00     0.039 C 
HETATM   13  C   UNL     1      -7.429   0.730 -34.657  1.00  0.00     0.236 C 
ENDROOT
BRANCH   7  14
HETATM   14  C   UNL     1     -12.047   3.776 -34.528  1.00  0.00     0.293 C 
BRANCH  14  15
HETATM   15  C   UNL     1     -13.205   2.918 -34.059  1.00  0.00     0.060 A 
HETATM   16  N   UNL     1     -13.523   1.848 -34.853  1.00  0.00    -0.264 NA
HETATM   17  C   UNL     1     -14.508   1.032 -34.399  1.00  0.00     0.117 A 
HETATM   18  C   UNL     1     -15.216   1.252 -33.231  1.00  0.00     0.019 A 
HETATM   19  C   UNL     1     -14.889   2.361 -32.459  1.00  0.00     0.003 A 
HETATM   20  C   UNL     1     -13.862   3.205 -32.866  1.00  0.00     0.029 A 
ENDBRANCH  14  15
ENDBRANCH   7  14
BRANCH   1  21
HETATM   21  C   UNL     1      -6.742  -0.777 -32.739  1.00  0.00     0.278 C 
BRANCH  21  22
HETATM   22  C   UNL     1      -5.657  -1.466 -33.472  1.00  0.00     0.025 A 
HETATM   23  C   UNL     1      -5.765  -2.616 -34.308  1.00  0.00     0.068 A 
HETATM   24  C   UNL     1      -6.956  -3.442 -34.627  1.00  0.00     0.073 C 
HETATM   25  N   UNL     1      -4.591  -2.918 -34.863  1.00  0.00    -0.133 NA
HETATM   26  O   UNL     1      -3.679  -2.029 -34.348  1.00  0.00    -0.217 OA
HETATM   27  C   UNL     1      -4.307  -1.172 -33.503  1.00  0.00     0.085 A 
HETATM   28  C   UNL     1      -3.437  -0.166 -32.860  1.00  0.00     0.079 C 
ENDBRANCH  21  22
ENDBRANCH   1  21
TORSDOF 4
ENDMDL
MODEL 10
REMARK VINA RESULT:      -7.5      4.029      8.208
REMARK  4 active torsions:
REMARK  status: ('A' for Active; 'I' for Inactive)
REMARK    1  A    between atoms: C_7  and  C_8 
REMARK    2  A    between atoms: C_8  and  N_9 
REMARK    3  A    between atoms: N_15  and  C_17 
REMARK    4  A    between atoms: C_17  and  C_18 
ROOT
HETATM    1  N   UNL     1      -6.631  -0.047 -33.829  1.00  0.00    -0.067 N 
HETATM    2  H   UNL     1      -5.641   0.021 -33.553  1.00  0.00     0.280 HD
HETATM    3  C   UNL     1      -6.966   1.292 -34.433  1.00  0.00     0.236 C 
HETATM    4  C   UNL     1      -8.470   1.424 -34.663  1.00  0.00     0.039 C 
HETATM    5  C   UNL     1      -9.327   1.185 -33.390  1.00  0.00    -0.013 C 
HETATM    6  C   UNL     1      -9.174   2.317 -32.340  1.00  0.00     0.244 C 
HETATM    7  N   UNL     1      -9.740   3.612 -32.855  1.00  0.00    -0.065 N 
HETATM    8  H   UNL     1      -9.229   3.886 -33.712  1.00  0.00     0.280 HD
HETATM    9  C   UNL     1     -11.205   3.531 -33.176  1.00  0.00     0.235 C 
HETATM   10  C   UNL     1     -11.428   2.432 -34.206  1.00  0.00     0.029 C 
HETATM   11  C   UNL     1     -10.830   1.095 -33.767  1.00  0.00     0.013 C 
HETATM   12  C   UNL     1      -8.893  -0.175 -32.772  1.00  0.00     0.039 C 
HETATM   13  C   UNL     1      -7.386  -0.322 -32.559  1.00  0.00     0.236 C 
ENDROOT
BRANCH   7  14
HETATM   14  C   UNL     1      -9.400   4.796 -31.945  1.00  0.00     0.293 C 
BRANCH  14  15
HETATM   15  C   UNL     1      -8.005   5.312 -32.235  1.00  0.00     0.060 A 
HETATM   16  N   UNL     1      -7.433   6.083 -31.257  1.00  0.00    -0.264 NA
HETATM   17  C   UNL     1      -6.156   6.485 -31.478  1.00  0.00     0.117 A 
HETATM   18  C   UNL     1      -5.444   6.201 -32.630  1.00  0.00     0.019 A 
HETATM   19  C   UNL     1      -6.060   5.439 -33.616  1.00  0.00     0.003 A 
HETATM   20  C   UNL     1      -7.356   4.974 -33.417  1.00  0.00     0.029 A 
ENDBRANCH  14  15
ENDBRANCH   7  14
BRANCH   1  21
HETATM   21  C   UNL     1      -6.631  -1.224 -34.802  1.00  0.00     0.278 C 
BRANCH  21  22
HETATM   22  C   UNL     1      -5.655  -2.282 -34.460  1.00  0.00     0.025 A 
HETATM   23  C   UNL     1      -4.408  -2.131 -33.784  1.00  0.00     0.068 A 
HETATM   24  C   UNL     1      -3.746  -0.898 -33.292  1.00  0.00     0.073 C 
HETATM   25  N   UNL     1      -3.824  -3.313 -33.582  1.00  0.00    -0.133 NA
HETATM   26  O   UNL     1      -4.630  -4.250 -34.184  1.00  0.00    -0.217 OA
HETATM   27  C   UNL     1      -5.714  -3.638 -34.725  1.00  0.00     0.085 A 
HETATM   28  C   UNL     1      -6.661  -4.530 -35.423  1.00  0.00     0.079 C 
ENDBRANCH  21  22
ENDBRANCH   1  21
TORSDOF 4
ENDMDL
