MODEL 1
REMARK VINA RESULT:      -9.3      0.000      0.000
REMARK  5 active torsions:
REMARK  status: ('A' for Active; 'I' for Inactive)
REMARK    1  A    between atoms: C_3  and  O_4 
REMARK    2  A    between atoms: C_6  and  N_7 
REMARK       I    between atoms: N_7  and  C_8 
REMARK    3  A    between atoms: C_8  and  C_9 
REMARK    4  A    between atoms: C_14  and  C_15 
REMARK    5  A    between atoms: C_23  and  C_24 
ROOT
HETATM    1  C   UNL     1      -5.481   2.550 -32.366  1.00  0.00     0.148 A 
HETATM    2  N   UNL     1      -5.699   1.488 -33.175  1.00  0.00    -0.165 NA
HETATM    3  N   UNL     1      -6.967   1.129 -32.899  1.00  0.00    -0.240 N 
HETATM    4  C   UNL     1      -7.584   1.956 -31.998  1.00  0.00     0.123 A 
HETATM    5  N   UNL     1      -8.886   1.804 -31.668  1.00  0.00    -0.366 N 
HETATM    6  C   UNL     1      -9.756   0.897 -32.409  1.00  0.00     0.118 C 
HETATM    7  C   UNL     1      -8.959  -0.312 -32.917  1.00  0.00     0.066 C 
HETATM    8  C   UNL     1      -7.659   0.089 -33.640  1.00  0.00     0.221 C 
HETATM    9  C   UNL     1      -6.641   2.871 -31.613  1.00  0.00     0.089 A 
HETATM   10  H   UNL     1      -9.370   2.537 -31.152  1.00  0.00     0.161 HD
ENDROOT
BRANCH   1  11
HETATM   11  C   UNL     1      -4.186   3.256 -32.328  1.00  0.00     0.276 C 
HETATM   12  N   UNL     1      -4.171   4.348 -33.174  1.00  0.00    -0.322 N 
HETATM   13  H   UNL     1      -5.038   4.469 -33.692  1.00  0.00     0.169 HD
HETATM   14  O   UNL     1      -3.269   2.861 -31.618  1.00  0.00    -0.266 OA
BRANCH  12  15
HETATM   15  C   UNL     1      -3.123   5.254 -33.410  1.00  0.00     0.037 A 
HETATM   16  C   UNL     1      -3.035   6.516 -32.822  1.00  0.00     0.066 A 
HETATM   17  C   UNL     1      -1.957   7.350 -33.117  1.00  0.00     0.067 A 
HETATM   18  C   UNL     1      -0.953   6.945 -33.989  1.00  0.00     0.036 A 
HETATM   19  C   UNL     1      -1.035   5.687 -34.581  1.00  0.00     0.005 A 
HETATM   20  C   UNL     1      -2.116   4.849 -34.297  1.00  0.00     0.029 A 
BRANCH  17  21
HETATM   21  O   UNL     1      -1.922   8.578 -32.522  1.00  0.00    -0.361 OA
HETATM   22  H   UNL     1      -0.999   8.873 -32.469  1.00  0.00     0.217 HD
ENDBRANCH  17  21
ENDBRANCH  12  15
ENDBRANCH   1  11
BRANCH   8  23
HETATM   23  C   UNL     1      -6.792  -1.135 -33.836  1.00  0.00     0.409 C 
HETATM   24  F   UNL     1      -5.988  -1.375 -32.774  1.00  0.00    -0.169 F 
HETATM   25  F   UNL     1      -7.578  -2.236 -33.981  1.00  0.00    -0.169 F 
HETATM   26  F   UNL     1      -6.022  -1.078 -34.943  1.00  0.00    -0.169 F 
ENDBRANCH   8  23
BRANCH   6  27
HETATM   27  C   UNL     1     -10.550   1.605 -33.498  1.00  0.00    -0.035 A 
HETATM   28  C   UNL     1     -10.153   2.829 -34.065  1.00  0.00     0.012 A 
HETATM   29  C   UNL     1     -10.926   3.445 -35.054  1.00  0.00     0.043 A 
HETATM   30  C   UNL     1     -12.098   2.841 -35.485  1.00  0.00     0.116 A 
HETATM   31  F   UNL     1     -12.842   3.435 -36.426  1.00  0.00    -0.206 F 
HETATM   32  C   UNL     1     -12.511   1.627 -34.952  1.00  0.00     0.043 A 
HETATM   33  C   UNL     1     -11.738   1.010 -33.965  1.00  0.00     0.012 A 
ENDBRANCH   6  27
TORSDOF 5
ENDMDL
MODEL 2
REMARK VINA RESULT:      -9.2      4.032      8.865
REMARK  5 active torsions:
REMARK  status: ('A' for Active; 'I' for Inactive)
REMARK    1  A    between atoms: C_3  and  O_4 
REMARK    2  A    between atoms: C_6  and  N_7 
REMARK       I    between atoms: N_7  and  C_8 
REMARK    3  A    between atoms: C_8  and  C_9 
REMARK    4  A    between atoms: C_14  and  C_15 
REMARK    5  A    between atoms: C_23  and  C_24 
ROOT
HETATM    1  C   UNL     1      -9.484   1.720 -33.169  1.00  0.00     0.148 A 
HETATM    2  N   UNL     1      -8.363   2.282 -33.677  1.00  0.00    -0.165 NA
HETATM    3  N   UNL     1      -7.373   1.746 -32.937  1.00  0.00    -0.240 N 
HETATM    4  C   UNL     1      -7.811   0.822 -32.027  1.00  0.00     0.123 A 
HETATM    5  N   UNL     1      -6.952   0.115 -31.260  1.00  0.00    -0.366 N 
HETATM    6  C   UNL     1      -5.514   0.139 -31.510  1.00  0.00     0.118 C 
HETATM    7  C   UNL     1      -5.090   1.510 -32.056  1.00  0.00     0.066 C 
HETATM    8  C   UNL     1      -5.970   1.986 -33.227  1.00  0.00     0.221 C 
HETATM    9  C   UNL     1      -9.177   0.801 -32.132  1.00  0.00     0.089 A 
HETATM   10  H   UNL     1      -7.282  -0.693 -30.735  1.00  0.00     0.161 HD
ENDROOT
BRANCH   1  11
HETATM   11  C   UNL     1     -10.828   2.049 -33.682  1.00  0.00     0.276 C 
HETATM   12  N   UNL     1     -11.825   1.472 -32.920  1.00  0.00    -0.322 N 
HETATM   13  H   UNL     1     -11.469   0.905 -32.153  1.00  0.00     0.169 HD
HETATM   14  O   UNL     1     -10.973   2.747 -34.678  1.00  0.00    -0.266 OA
BRANCH  12  15
HETATM   15  C   UNL     1     -13.216   1.553 -33.097  1.00  0.00     0.037 A 
HETATM   16  C   UNL     1     -13.931   0.787 -34.018  1.00  0.00     0.066 A 
HETATM   17  C   UNL     1     -15.314   0.936 -34.125  1.00  0.00     0.067 A 
HETATM   18  C   UNL     1     -16.005   1.836 -33.322  1.00  0.00     0.036 A 
HETATM   19  C   UNL     1     -15.297   2.605 -32.401  1.00  0.00     0.005 A 
HETATM   20  C   UNL     1     -13.911   2.468 -32.293  1.00  0.00     0.029 A 
BRANCH  17  21
HETATM   21  O   UNL     1     -15.966   0.169 -35.048  1.00  0.00    -0.361 OA
HETATM   22  H   UNL     1     -15.765  -0.765 -34.876  1.00  0.00     0.217 HD
ENDBRANCH  17  21
ENDBRANCH  12  15
ENDBRANCH   1  11
BRANCH   8  23
HETATM   23  C   UNL     1      -5.694   3.448 -33.504  1.00  0.00     0.409 C 
HETATM   24  F   UNL     1      -6.103   3.826 -34.737  1.00  0.00    -0.169 F 
HETATM   25  F   UNL     1      -6.377   4.220 -32.617  1.00  0.00    -0.169 F 
HETATM   26  F   UNL     1      -4.394   3.785 -33.369  1.00  0.00    -0.169 F 
ENDBRANCH   8  23
BRANCH   6  27
HETATM   27  C   UNL     1      -5.049  -1.029 -32.368  1.00  0.00    -0.035 A 
HETATM   28  C   UNL     1      -5.703  -1.422 -33.550  1.00  0.00     0.012 A 
HETATM   29  C   UNL     1      -5.242  -2.512 -34.295  1.00  0.00     0.043 A 
HETATM   30  C   UNL     1      -4.125  -3.214 -33.866  1.00  0.00     0.116 A 
HETATM   31  F   UNL     1      -3.689  -4.263 -34.575  1.00  0.00    -0.206 F 
HETATM   32  C   UNL     1      -3.452  -2.844 -32.709  1.00  0.00     0.043 A 
HETATM   33  C   UNL     1      -3.911  -1.754 -31.965  1.00  0.00     0.012 A 
ENDBRANCH   6  27
TORSDOF 5
ENDMDL
MODEL 3
REMARK VINA RESULT:      -9.2      4.618      9.269
REMARK  5 active torsions:
REMARK  status: ('A' for Active; 'I' for Inactive)
REMARK    1  A    between atoms: C_3  and  O_4 
REMARK    2  A    between atoms: C_6  and  N_7 
REMARK       I    between atoms: N_7  and  C_8 
REMARK    3  A    between atoms: C_8  and  C_9 
REMARK    4  A    between atoms: C_14  and  C_15 
REMARK    5  A    between atoms: C_23  and  C_24 
ROOT
HETATM    1  C   UNL     1      -3.884   2.354 -31.838  1.00  0.00     0.148 A 
HETATM    2  N   UNL     1      -3.195   3.095 -32.735  1.00  0.00    -0.165 NA
HETATM    3  N   UNL     1      -3.284   4.348 -32.251  1.00  0.00    -0.240 N 
HETATM    4  C   UNL     1      -3.944   4.425 -31.053  1.00  0.00     0.123 A 
HETATM    5  N   UNL     1      -4.051   5.588 -30.373  1.00  0.00    -0.366 N 
HETATM    6  C   UNL     1      -3.291   6.770 -30.766  1.00  0.00     0.118 C 
HETATM    7  C   UNL     1      -3.096   6.800 -32.287  1.00  0.00     0.066 C 
HETATM    8  C   UNL     1      -2.572   5.464 -32.849  1.00  0.00     0.221 C 
HETATM    9  C   UNL     1      -4.369   3.154 -30.771  1.00  0.00     0.089 A 
HETATM   10  H   UNL     1      -4.373   5.586 -29.407  1.00  0.00     0.161 HD
ENDROOT
BRANCH   1  11
HETATM   11  C   UNL     1      -4.061   0.897 -31.994  1.00  0.00     0.276 C 
HETATM   12  N   UNL     1      -4.736   0.582 -33.156  1.00  0.00    -0.322 N 
HETATM   13  H   UNL     1      -5.016   1.400 -33.695  1.00  0.00     0.169 HD
HETATM   14  O   UNL     1      -3.646   0.113 -31.148  1.00  0.00    -0.266 OA
BRANCH  12  15
HETATM   15  C   UNL     1      -5.093  -0.687 -33.643  1.00  0.00     0.037 A 
HETATM   16  C   UNL     1      -4.223  -1.777 -33.689  1.00  0.00     0.066 A 
HETATM   17  C   UNL     1      -4.665  -3.001 -34.190  1.00  0.00     0.067 A 
HETATM   18  C   UNL     1      -5.969  -3.164 -34.644  1.00  0.00     0.036 A 
HETATM   19  C   UNL     1      -6.842  -2.080 -34.601  1.00  0.00     0.005 A 
HETATM   20  C   UNL     1      -6.405  -0.848 -34.109  1.00  0.00     0.029 A 
BRANCH  17  21
HETATM   21  O   UNL     1      -3.772  -4.034 -34.222  1.00  0.00    -0.361 OA
HETATM   22  H   UNL     1      -4.258  -4.869 -34.126  1.00  0.00     0.217 HD
ENDBRANCH  17  21
ENDBRANCH  12  15
ENDBRANCH   1  11
BRANCH   8  23
HETATM   23  C   UNL     1      -2.696   5.468 -34.358  1.00  0.00     0.409 C 
HETATM   24  F   UNL     1      -3.941   5.143 -34.775  1.00  0.00    -0.169 F 
HETATM   25  F   UNL     1      -2.442   6.716 -34.835  1.00  0.00    -0.169 F 
HETATM   26  F   UNL     1      -1.819   4.647 -34.972  1.00  0.00    -0.169 F 
ENDBRANCH   8  23
BRANCH   6  27
HETATM   27  C   UNL     1      -1.995   6.920 -29.982  1.00  0.00    -0.035 A 
HETATM   28  C   UNL     1      -0.725   6.912 -30.588  1.00  0.00     0.012 A 
HETATM   29  C   UNL     1       0.436   7.040 -29.820  1.00  0.00     0.043 A 
HETATM   30  C   UNL     1       0.336   7.179 -28.442  1.00  0.00     0.116 A 
HETATM   31  F   UNL     1       1.450   7.293 -27.707  1.00  0.00    -0.206 F 
HETATM   32  C   UNL     1      -0.902   7.201 -27.817  1.00  0.00     0.043 A 
HETATM   33  C   UNL     1      -2.064   7.075 -28.583  1.00  0.00     0.012 A 
ENDBRANCH   6  27
TORSDOF 5
ENDMDL
MODEL 4
REMARK VINA RESULT:      -9.0      2.760      4.856
REMARK  5 active torsions:
REMARK  status: ('A' for Active; 'I' for Inactive)
REMARK    1  A    between atoms: C_3  and  O_4 
REMARK    2  A    between atoms: C_6  and  N_7 
REMARK       I    between atoms: N_7  and  C_8 
REMARK    3  A    between atoms: C_8  and  C_9 
REMARK    4  A    between atoms: C_14  and  C_15 
REMARK    5  A    between atoms: C_23  and  C_24 
ROOT
HETATM    1  C   UNL     1      -5.700   3.367 -32.964  1.00  0.00     0.148 A 
HETATM    2  N   UNL     1      -6.496   2.610 -32.175  1.00  0.00    -0.165 NA
HETATM    3  N   UNL     1      -6.986   1.678 -33.014  1.00  0.00    -0.240 N 
HETATM    4  C   UNL     1      -6.486   1.772 -34.286  1.00  0.00     0.123 A 
HETATM    5  N   UNL     1      -6.795   0.867 -35.241  1.00  0.00    -0.366 N 
HETATM    6  C   UNL     1      -7.497  -0.371 -34.915  1.00  0.00     0.118 C 
HETATM    7  C   UNL     1      -8.465  -0.144 -33.747  1.00  0.00     0.066 C 
HETATM    8  C   UNL     1      -7.805   0.571 -32.553  1.00  0.00     0.221 C 
HETATM    9  C   UNL     1      -5.670   2.872 -34.294  1.00  0.00     0.089 A 
HETATM   10  H   UNL     1      -6.268   0.845 -36.112  1.00  0.00     0.161 HD
ENDROOT
BRANCH   1  11
HETATM   11  C   UNL     1      -4.966   4.538 -32.446  1.00  0.00     0.276 C 
HETATM   12  N   UNL     1      -3.627   4.495 -32.780  1.00  0.00    -0.322 N 
HETATM   13  H   UNL     1      -3.368   3.660 -33.302  1.00  0.00     0.169 HD
HETATM   14  O   UNL     1      -5.535   5.405 -31.794  1.00  0.00    -0.266 OA
BRANCH  12  15
HETATM   15  C   UNL     1      -2.618   5.421 -32.464  1.00  0.00     0.037 A 
HETATM   16  C   UNL     1      -2.750   6.801 -32.619  1.00  0.00     0.066 A 
HETATM   17  C   UNL     1      -1.693   7.645 -32.280  1.00  0.00     0.067 A 
HETATM   18  C   UNL     1      -0.500   7.138 -31.779  1.00  0.00     0.036 A 
HETATM   19  C   UNL     1      -0.361   5.761 -31.622  1.00  0.00     0.005 A 
HETATM   20  C   UNL     1      -1.412   4.908 -31.967  1.00  0.00     0.029 A 
BRANCH  17  21
HETATM   21  O   UNL     1      -1.870   8.988 -32.459  1.00  0.00    -0.361 OA
HETATM   22  H   UNL     1      -2.104   9.388 -31.606  1.00  0.00     0.217 HD
ENDBRANCH  17  21
ENDBRANCH  12  15
ENDBRANCH   1  11
BRANCH   8  23
HETATM   23  C   UNL     1      -8.874   1.027 -31.583  1.00  0.00     0.409 C 
HETATM   24  F   UNL     1      -9.702   1.950 -32.123  1.00  0.00    -0.169 F 
HETATM   25  F   UNL     1      -9.653  -0.030 -31.229  1.00  0.00    -0.169 F 
HETATM   26  F   UNL     1      -8.378   1.527 -30.431  1.00  0.00    -0.169 F 
ENDBRANCH   8  23
BRANCH   6  27
HETATM   27  C   UNL     1      -6.550  -1.543 -34.704  1.00  0.00    -0.035 A 
HETATM   28  C   UNL     1      -6.903  -2.876 -34.983  1.00  0.00     0.012 A 
HETATM   29  C   UNL     1      -6.000  -3.919 -34.758  1.00  0.00     0.043 A 
HETATM   30  C   UNL     1      -4.737  -3.637 -34.258  1.00  0.00     0.116 A 
HETATM   31  F   UNL     1      -3.875  -4.638 -34.035  1.00  0.00    -0.206 F 
HETATM   32  C   UNL     1      -4.355  -2.331 -33.983  1.00  0.00     0.043 A 
HETATM   33  C   UNL     1      -5.257  -1.288 -34.208  1.00  0.00     0.012 A 
ENDBRANCH   6  27
TORSDOF 5
ENDMDL
MODEL 5
REMARK VINA RESULT:      -8.9      4.911      6.790
REMARK  5 active torsions:
REMARK  status: ('A' for Active; 'I' for Inactive)
REMARK    1  A    between atoms: C_3  and  O_4 
REMARK    2  A    between atoms: C_6  and  N_7 
REMARK       I    between atoms: N_7  and  C_8 
REMARK    3  A    between atoms: C_8  and  C_9 
REMARK    4  A    between atoms: C_14  and  C_15 
REMARK    5  A    between atoms: C_23  and  C_24 
ROOT
HETATM    1  C   UNL     1      -8.718   1.250 -34.281  1.00  0.00     0.148 A 
HETATM    2  N   UNL     1     -10.033   1.017 -34.497  1.00  0.00    -0.165 NA
HETATM    3  N   UNL     1     -10.647   2.034 -33.864  1.00  0.00    -0.240 N 
HETATM    4  C   UNL     1      -9.778   2.936 -33.310  1.00  0.00     0.123 A 
HETATM    5  N   UNL     1     -10.213   4.068 -32.712  1.00  0.00    -0.366 N 
HETATM    6  C   UNL     1     -11.605   4.494 -32.814  1.00  0.00     0.118 C 
HETATM    7  C   UNL     1     -12.533   3.275 -32.889  1.00  0.00     0.066 C 
HETATM    8  C   UNL     1     -12.082   2.244 -33.942  1.00  0.00     0.221 C 
HETATM    9  C   UNL     1      -8.521   2.444 -33.539  1.00  0.00     0.089 A 
HETATM   10  H   UNL     1      -9.552   4.809 -32.483  1.00  0.00     0.161 HD
ENDROOT
BRANCH   1  11
HETATM   11  C   UNL     1      -7.666   0.350 -34.792  1.00  0.00     0.276 C 
HETATM   12  N   UNL     1      -7.493  -0.752 -33.979  1.00  0.00    -0.322 N 
HETATM   13  H   UNL     1      -8.097  -0.748 -33.160  1.00  0.00     0.169 HD
HETATM   14  O   UNL     1      -7.049   0.614 -35.817  1.00  0.00    -0.266 OA
BRANCH  12  15
HETATM   15  C   UNL     1      -6.590  -1.818 -34.134  1.00  0.00     0.037 A 
HETATM   16  C   UNL     1      -6.928  -3.051 -34.695  1.00  0.00     0.066 A 
HETATM   17  C   UNL     1      -5.965  -4.052 -34.807  1.00  0.00     0.067 A 
HETATM   18  C   UNL     1      -4.659  -3.847 -34.375  1.00  0.00     0.036 A 
HETATM   19  C   UNL     1      -4.316  -2.619 -33.814  1.00  0.00     0.005 A 
HETATM   20  C   UNL     1      -5.277  -1.613 -33.689  1.00  0.00     0.029 A 
BRANCH  17  21
HETATM   21  O   UNL     1      -6.347  -5.243 -35.355  1.00  0.00    -0.361 OA
HETATM   22  H   UNL     1      -6.995  -5.663 -34.768  1.00  0.00     0.217 HD
ENDBRANCH  17  21
ENDBRANCH  12  15
ENDBRANCH   1  11
BRANCH   8  23
HETATM   23  C   UNL     1     -12.852   0.955 -33.748  1.00  0.00     0.409 C 
HETATM   24  F   UNL     1     -13.281   0.429 -34.918  1.00  0.00    -0.169 F 
HETATM   25  F   UNL     1     -12.046   0.021 -33.177  1.00  0.00    -0.169 F 
HETATM   26  F   UNL     1     -13.916   1.082 -32.928  1.00  0.00    -0.169 F 
ENDBRANCH   8  23
BRANCH   6  27
HETATM   27  C   UNL     1     -11.828   5.501 -33.934  1.00  0.00    -0.035 A 
HETATM   28  C   UNL     1     -10.777   6.158 -34.597  1.00  0.00     0.012 A 
HETATM   29  C   UNL     1     -11.037   7.086 -35.611  1.00  0.00     0.043 A 
HETATM   30  C   UNL     1     -12.349   7.359 -35.970  1.00  0.00     0.116 A 
HETATM   31  F   UNL     1     -12.598   8.253 -36.936  1.00  0.00    -0.206 F 
HETATM   32  C   UNL     1     -13.408   6.719 -35.341  1.00  0.00     0.043 A 
HETATM   33  C   UNL     1     -13.149   5.791 -34.329  1.00  0.00     0.012 A 
ENDBRANCH   6  27
TORSDOF 5
ENDMDL
MODEL 6
REMARK VINA RESULT:      -8.8      4.900      9.696
REMARK  5 active torsions:
REMARK  status: ('A' for Active; 'I' for Inactive)
REMARK    1  A    between atoms: C_3  and  O_4 
REMARK    2  A    between atoms: C_6  and  N_7 
REMARK       I    between atoms: N_7  and  C_8 
REMARK    3  A    between atoms: C_8  and  C_9 
REMARK    4  A    between atoms: C_14  and  C_15 
REMARK    5  A    between atoms: C_23  and  C_24 
ROOT
HETATM    1  C   UNL     1      -4.422   4.106 -31.278  1.00  0.00     0.148 A 
HETATM    2  N   UNL     1      -3.297   4.427 -31.959  1.00  0.00    -0.165 NA
HETATM    3  N   UNL     1      -2.994   5.660 -31.513  1.00  0.00    -0.240 N 
HETATM    4  C   UNL     1      -3.839   6.110 -30.533  1.00  0.00     0.123 A 
HETATM    5  N   UNL     1      -3.636   7.288 -29.904  1.00  0.00    -0.366 N 
HETATM    6  C   UNL     1      -2.396   8.039 -30.078  1.00  0.00     0.118 C 
HETATM    7  C   UNL     1      -1.841   7.832 -31.494  1.00  0.00     0.066 C 
HETATM    8  C   UNL     1      -1.774   6.347 -31.899  1.00  0.00     0.221 C 
HETATM    9  C   UNL     1      -4.791   5.138 -30.377  1.00  0.00     0.089 A 
HETATM   10  H   UNL     1      -4.157   7.510 -29.057  1.00  0.00     0.161 HD
ENDROOT
BRANCH   1  11
HETATM   11  C   UNL     1      -5.121   2.822 -31.479  1.00  0.00     0.276 C 
HETATM   12  N   UNL     1      -5.054   2.399 -32.792  1.00  0.00    -0.322 N 
HETATM   13  H   UNL     1      -4.558   3.047 -33.400  1.00  0.00     0.169 HD
HETATM   14  O   UNL     1      -5.686   2.256 -30.550  1.00  0.00    -0.266 OA
BRANCH  12  15
HETATM   15  C   UNL     1      -5.600   1.237 -33.363  1.00  0.00     0.037 A 
HETATM   16  C   UNL     1      -6.698   1.233 -34.224  1.00  0.00     0.066 A 
HETATM   17  C   UNL     1      -7.172   0.029 -34.743  1.00  0.00     0.067 A 
HETATM   18  C   UNL     1      -6.565  -1.181 -34.425  1.00  0.00     0.036 A 
HETATM   19  C   UNL     1      -5.468  -1.184 -33.566  1.00  0.00     0.005 A 
HETATM   20  C   UNL     1      -4.992   0.018 -33.034  1.00  0.00     0.029 A 
BRANCH  17  21
HETATM   21  O   UNL     1      -8.255   0.077 -35.574  1.00  0.00    -0.361 OA
HETATM   22  H   UNL     1      -8.798  -0.714 -35.426  1.00  0.00     0.217 HD
ENDBRANCH  17  21
ENDBRANCH  12  15
ENDBRANCH   1  11
BRANCH   8  23
HETATM   23  C   UNL     1      -1.513   6.241 -33.386  1.00  0.00     0.409 C 
HETATM   24  F   UNL     1      -2.614   6.516 -34.124  1.00  0.00    -0.169 F 
HETATM   25  F   UNL     1      -0.567   7.148 -33.752  1.00  0.00    -0.169 F 
HETATM   26  F   UNL     1      -1.042   5.035 -33.766  1.00  0.00    -0.169 F 
ENDBRANCH   8  23
BRANCH   6  27
HETATM   27  C   UNL     1      -1.382   7.758 -28.978  1.00  0.00    -0.035 A 
HETATM   28  C   UNL     1      -1.743   7.287 -27.703  1.00  0.00     0.012 A 
HETATM   29  C   UNL     1      -0.772   7.058 -26.723  1.00  0.00     0.043 A 
HETATM   30  C   UNL     1       0.564   7.293 -27.012  1.00  0.00     0.116 A 
HETATM   31  F   UNL     1       1.492   7.081 -26.070  1.00  0.00    -0.206 F 
HETATM   32  C   UNL     1       0.952   7.748 -28.264  1.00  0.00     0.043 A 
HETATM   33  C   UNL     1      -0.016   7.976 -29.245  1.00  0.00     0.012 A 
ENDBRANCH   6  27
TORSDOF 5
ENDMDL
MODEL 7
REMARK VINA RESULT:      -8.8      4.511      8.739
REMARK  5 active torsions:
REMARK  status: ('A' for Active; 'I' for Inactive)
REMARK    1  A    between atoms: C_3  and  O_4 
REMARK    2  A    between atoms: C_6  and  N_7 
REMARK       I    between atoms: N_7  and  C_8 
REMARK    3  A    between atoms: C_8  and  C_9 
REMARK    4  A    between atoms: C_14  and  C_15 
REMARK    5  A    between atoms: C_23  and  C_24 
ROOT
HETATM    1  C   UNL     1      -4.473   1.069 -31.906  1.00  0.00     0.148 A 
HETATM    2  N   UNL     1      -4.531   1.941 -32.938  1.00  0.00    -0.165 NA
HETATM    3  N   UNL     1      -4.576   3.145 -32.338  1.00  0.00    -0.240 N 
HETATM    4  C   UNL     1      -4.484   3.078 -30.973  1.00  0.00     0.123 A 
HETATM    5  N   UNL     1      -4.422   4.191 -30.208  1.00  0.00    -0.366 N 
HETATM    6  C   UNL     1      -4.232   5.511 -30.802  1.00  0.00     0.118 C 
HETATM    7  C   UNL     1      -4.901   5.577 -32.182  1.00  0.00     0.066 C 
HETATM    8  C   UNL     1      -4.525   4.389 -33.087  1.00  0.00     0.221 C 
HETATM    9  C   UNL     1      -4.443   1.746 -30.659  1.00  0.00     0.089 A 
HETATM   10  H   UNL     1      -4.163   4.121 -29.226  1.00  0.00     0.161 HD
ENDROOT
BRANCH   1  11
HETATM   11  C   UNL     1      -4.429  -0.392 -32.113  1.00  0.00     0.276 C 
HETATM   12  N   UNL     1      -5.064  -0.764 -33.282  1.00  0.00    -0.322 N 
HETATM   13  H   UNL     1      -5.471   0.019 -33.788  1.00  0.00     0.169 HD
HETATM   14  O   UNL     1      -3.889  -1.132 -31.300  1.00  0.00    -0.266 OA
BRANCH  12  15
HETATM   15  C   UNL     1      -5.231  -2.055 -33.811  1.00  0.00     0.037 A 
HETATM   16  C   UNL     1      -4.236  -3.034 -33.809  1.00  0.00     0.066 A 
HETATM   17  C   UNL     1      -4.492  -4.289 -34.359  1.00  0.00     0.067 A 
HETATM   18  C   UNL     1      -5.732  -4.594 -34.910  1.00  0.00     0.036 A 
HETATM   19  C   UNL     1      -6.729  -3.622 -34.916  1.00  0.00     0.005 A 
HETATM   20  C   UNL     1      -6.478  -2.359 -34.374  1.00  0.00     0.029 A 
BRANCH  17  21
HETATM   21  O   UNL     1      -3.483  -5.209 -34.340  1.00  0.00    -0.361 OA
HETATM   22  H   UNL     1      -2.833  -4.973 -35.020  1.00  0.00     0.217 HD
ENDBRANCH  17  21
ENDBRANCH  12  15
ENDBRANCH   1  11
BRANCH   8  23
HETATM   23  C   UNL     1      -5.444   4.360 -34.290  1.00  0.00     0.409 C 
HETATM   24  F   UNL     1      -6.175   3.224 -34.355  1.00  0.00    -0.169 F 
HETATM   25  F   UNL     1      -6.332   5.387 -34.213  1.00  0.00    -0.169 F 
HETATM   26  F   UNL     1      -4.797   4.513 -35.465  1.00  0.00    -0.169 F 
ENDBRANCH   8  23
BRANCH   6  27
HETATM   27  C   UNL     1      -2.773   5.945 -30.810  1.00  0.00    -0.035 A 
HETATM   28  C   UNL     1      -1.741   5.158 -31.353  1.00  0.00     0.012 A 
HETATM   29  C   UNL     1      -0.414   5.598 -31.322  1.00  0.00     0.043 A 
HETATM   30  C   UNL     1      -0.111   6.827 -30.754  1.00  0.00     0.116 A 
HETATM   31  F   UNL     1       1.161   7.243 -30.718  1.00  0.00    -0.206 F 
HETATM   32  C   UNL     1      -1.109   7.630 -30.220  1.00  0.00     0.043 A 
HETATM   33  C   UNL     1      -2.436   7.193 -30.251  1.00  0.00     0.012 A 
ENDBRANCH   6  27
TORSDOF 5
ENDMDL
MODEL 8
REMARK VINA RESULT:      -8.8      4.192      8.497
REMARK  5 active torsions:
REMARK  status: ('A' for Active; 'I' for Inactive)
REMARK    1  A    between atoms: C_3  and  O_4 
REMARK    2  A    between atoms: C_6  and  N_7 
REMARK       I    between atoms: N_7  and  C_8 
REMARK    3  A    between atoms: C_8  and  C_9 
REMARK    4  A    between atoms: C_14  and  C_15 
REMARK    5  A    between atoms: C_23  and  C_24 
ROOT
HETATM    1  C   UNL     1      -5.819   1.354 -33.269  1.00  0.00     0.148 A 
HETATM    2  N   UNL     1      -6.360   2.548 -33.604  1.00  0.00    -0.165 NA
HETATM    3  N   UNL     1      -5.943   3.375 -32.627  1.00  0.00    -0.240 N 
HETATM    4  C   UNL     1      -5.109   2.773 -31.722  1.00  0.00     0.123 A 
HETATM    5  N   UNL     1      -4.521   3.469 -30.724  1.00  0.00    -0.366 N 
HETATM    6  C   UNL     1      -4.568   4.928 -30.685  1.00  0.00     0.118 C 
HETATM    7  C   UNL     1      -5.884   5.436 -31.288  1.00  0.00     0.066 C 
HETATM    8  C   UNL     1      -6.198   4.804 -32.657  1.00  0.00     0.221 C 
HETATM    9  C   UNL     1      -5.030   1.458 -32.093  1.00  0.00     0.089 A 
HETATM   10  H   UNL     1      -3.764   3.050 -30.187  1.00  0.00     0.161 HD
ENDROOT
BRANCH   1  11
HETATM   11  C   UNL     1      -6.043   0.137 -34.072  1.00  0.00     0.276 C 
HETATM   12  N   UNL     1      -5.472  -0.977 -33.489  1.00  0.00    -0.322 N 
HETATM   13  H   UNL     1      -4.978  -0.771 -32.623  1.00  0.00     0.169 HD
HETATM   14  O   UNL     1      -6.660   0.180 -35.130  1.00  0.00    -0.266 OA
BRANCH  12  15
HETATM   15  C   UNL     1      -5.470  -2.302 -33.956  1.00  0.00     0.037 A 
HETATM   16  C   UNL     1      -4.372  -3.159 -33.868  1.00  0.00     0.066 A 
HETATM   17  C   UNL     1      -4.461  -4.460 -34.360  1.00  0.00     0.067 A 
HETATM   18  C   UNL     1      -5.635  -4.932 -34.936  1.00  0.00     0.036 A 
HETATM   19  C   UNL     1      -6.735  -4.082 -35.028  1.00  0.00     0.005 A 
HETATM   20  C   UNL     1      -6.651  -2.774 -34.545  1.00  0.00     0.029 A 
BRANCH  17  21
HETATM   21  O   UNL     1      -3.356  -5.256 -34.258  1.00  0.00    -0.361 OA
HETATM   22  H   UNL     1      -3.100  -5.317 -33.324  1.00  0.00     0.217 HD
ENDBRANCH  17  21
ENDBRANCH  12  15
ENDBRANCH   1  11
BRANCH   8  23
HETATM   23  C   UNL     1      -7.630   5.113 -33.039  1.00  0.00     0.409 C 
HETATM   24  F   UNL     1      -8.519   4.324 -32.393  1.00  0.00    -0.169 F 
HETATM   25  F   UNL     1      -7.930   6.394 -32.696  1.00  0.00    -0.169 F 
HETATM   26  F   UNL     1      -7.867   5.017 -34.365  1.00  0.00    -0.169 F 
ENDBRANCH   8  23
BRANCH   6  27
HETATM   27  C   UNL     1      -3.329   5.570 -31.294  1.00  0.00    -0.035 A 
HETATM   28  C   UNL     1      -2.137   4.863 -31.536  1.00  0.00     0.012 A 
HETATM   29  C   UNL     1      -1.023   5.504 -32.085  1.00  0.00     0.043 A 
HETATM   30  C   UNL     1      -1.093   6.853 -32.400  1.00  0.00     0.116 A 
HETATM   31  F   UNL     1      -0.023   7.468 -32.919  1.00  0.00    -0.206 F 
HETATM   32  C   UNL     1      -2.259   7.575 -32.183  1.00  0.00     0.043 A 
HETATM   33  C   UNL     1      -3.374   6.936 -31.635  1.00  0.00     0.012 A 
ENDBRANCH   6  27
TORSDOF 5
ENDMDL
MODEL 9
REMARK VINA RESULT:      -8.7     16.912     19.601
REMARK  5 active torsions:
REMARK  status: ('A' for Active; 'I' for Inactive)
REMARK    1  A    between atoms: C_3  and  O_4 
REMARK    2  A    between atoms: C_6  and  N_7 
REMARK       I    between atoms: N_7  and  C_8 
REMARK    3  A    between atoms: C_8  and  C_9 
REMARK    4  A    between atoms: C_14  and  C_15 
REMARK    5  A    between atoms: C_23  and  C_24 
ROOT
HETATM    1  C   UNL     1      -5.264 -13.201 -39.003  1.00  0.00     0.148 A 
HETATM    2  N   UNL     1      -4.735 -14.163 -39.793  1.00  0.00    -0.165 NA
HETATM    3  N   UNL     1      -3.411 -13.926 -39.746  1.00  0.00    -0.240 N 
HETATM    4  C   UNL     1      -3.071 -12.895 -38.910  1.00  0.00     0.123 A 
HETATM    5  N   UNL     1      -1.782 -12.571 -38.667  1.00  0.00    -0.366 N 
HETATM    6  C   UNL     1      -0.687 -13.431 -39.106  1.00  0.00     0.118 C 
HETATM    7  C   UNL     1      -1.055 -14.137 -40.418  1.00  0.00     0.066 C 
HETATM    8  C   UNL     1      -2.440 -14.810 -40.367  1.00  0.00     0.221 C 
HETATM    9  C   UNL     1      -4.250 -12.387 -38.434  1.00  0.00     0.089 A 
HETATM   10  H   UNL     1      -1.551 -11.937 -37.904  1.00  0.00     0.161 HD
ENDROOT
BRANCH   1  11
HETATM   11  C   UNL     1      -6.718 -13.075 -38.786  1.00  0.00     0.276 C 
HETATM   12  N   UNL     1      -7.423 -13.131 -39.972  1.00  0.00    -0.322 N 
HETATM   13  H   UNL     1      -6.827 -13.227 -40.791  1.00  0.00     0.169 HD
HETATM   14  O   UNL     1      -7.180 -12.927 -37.660  1.00  0.00    -0.266 OA
BRANCH  12  15
HETATM   15  C   UNL     1      -8.812 -13.044 -40.167  1.00  0.00     0.037 A 
HETATM   16  C   UNL     1      -9.503 -11.841 -40.319  1.00  0.00     0.066 A 
HETATM   17  C   UNL     1     -10.885 -11.850 -40.507  1.00  0.00     0.067 A 
HETATM   18  C   UNL     1     -11.596 -13.044 -40.554  1.00  0.00     0.036 A 
HETATM   19  C   UNL     1     -10.912 -14.248 -40.403  1.00  0.00     0.005 A 
HETATM   20  C   UNL     1      -9.529 -14.247 -40.205  1.00  0.00     0.029 A 
BRANCH  17  21
HETATM   21  O   UNL     1     -11.516 -10.647 -40.642  1.00  0.00    -0.361 OA
HETATM   22  H   UNL     1     -12.463 -10.770 -40.470  1.00  0.00     0.217 HD
ENDBRANCH  17  21
ENDBRANCH  12  15
ENDBRANCH   1  11
BRANCH   8  23
HETATM   23  C   UNL     1      -2.858 -15.212 -41.765  1.00  0.00     0.409 C 
HETATM   24  F   UNL     1      -3.266 -14.156 -42.506  1.00  0.00    -0.169 F 
HETATM   25  F   UNL     1      -1.799 -15.757 -42.421  1.00  0.00    -0.169 F 
HETATM   26  F   UNL     1      -3.833 -16.145 -41.789  1.00  0.00    -0.169 F 
ENDBRANCH   8  23
BRANCH   6  27
HETATM   27  C   UNL     1      -0.215 -14.380 -38.014  1.00  0.00    -0.035 A 
HETATM   28  C   UNL     1      -0.940 -14.613 -36.832  1.00  0.00     0.012 A 
HETATM   29  C   UNL     1      -0.454 -15.486 -35.853  1.00  0.00     0.043 A 
HETATM   30  C   UNL     1       0.757 -16.134 -36.051  1.00  0.00     0.116 A 
HETATM   31  F   UNL     1       1.225 -16.963 -35.110  1.00  0.00    -0.206 F 
HETATM   32  C   UNL     1       1.490 -15.933 -37.212  1.00  0.00     0.043 A 
HETATM   33  C   UNL     1       1.005 -15.062 -38.192  1.00  0.00     0.012 A 
ENDBRANCH   6  27
TORSDOF 5
ENDMDL
MODEL 10
REMARK VINA RESULT:      -8.7      2.822      5.163
REMARK  5 active torsions:
REMARK  status: ('A' for Active; 'I' for Inactive)
REMARK    1  A    between atoms: C_3  and  O_4 
REMARK    2  A    between atoms: C_6  and  N_7 
REMARK       I    between atoms: N_7  and  C_8 
REMARK    3  A    between atoms: C_8  and  C_9 
REMARK    4  A    between atoms: C_14  and  C_15 
REMARK    5  A    between atoms: C_23  and  C_24 
ROOT
HETATM    1  C   UNL     1      -6.462   3.518 -33.138  1.00  0.00     0.148 A 
HETATM    2  N   UNL     1      -7.250   2.668 -32.441  1.00  0.00    -0.165 NA
HETATM    3  N   UNL     1      -7.402   1.619 -33.270  1.00  0.00    -0.240 N 
HETATM    4  C   UNL     1      -6.693   1.737 -34.436  1.00  0.00     0.123 A 
HETATM    5  N   UNL     1      -6.653   0.741 -35.349  1.00  0.00    -0.366 N 
HETATM    6  C   UNL     1      -7.179  -0.586 -35.048  1.00  0.00     0.118 C 
HETATM    7  C   UNL     1      -8.376  -0.483 -34.095  1.00  0.00     0.066 C 
HETATM    8  C   UNL     1      -8.090   0.404 -32.868  1.00  0.00     0.221 C 
HETATM    9  C   UNL     1      -6.095   2.968 -34.394  1.00  0.00     0.089 A 
HETATM   10  H   UNL     1      -5.974   0.773 -36.108  1.00  0.00     0.161 HD
ENDROOT
BRANCH   1  11
HETATM   11  C   UNL     1      -6.055   4.831 -32.601  1.00  0.00     0.276 C 
HETATM   12  N   UNL     1      -4.719   4.853 -32.253  1.00  0.00    -0.322 N 
HETATM   13  H   UNL     1      -4.248   3.963 -32.403  1.00  0.00     0.169 HD
HETATM   14  O   UNL     1      -6.860   5.749 -32.491  1.00  0.00    -0.266 OA
BRANCH  12  15
HETATM   15  C   UNL     1      -3.976   5.914 -31.709  1.00  0.00     0.037 A 
HETATM   16  C   UNL     1      -3.228   6.813 -32.470  1.00  0.00     0.066 A 
HETATM   17  C   UNL     1      -2.519   7.837 -31.842  1.00  0.00     0.067 A 
HETATM   18  C   UNL     1      -2.546   7.988 -30.460  1.00  0.00     0.036 A 
HETATM   19  C   UNL     1      -3.289   7.092 -29.695  1.00  0.00     0.005 A 
HETATM   20  C   UNL     1      -3.995   6.059 -30.315  1.00  0.00     0.029 A 
BRANCH  17  21
HETATM   21  O   UNL     1      -1.797   8.686 -32.631  1.00  0.00    -0.361 OA
HETATM   22  H   UNL     1      -1.198   9.202 -32.068  1.00  0.00     0.217 HD
ENDBRANCH  17  21
ENDBRANCH  12  15
ENDBRANCH   1  11
BRANCH   8  23
HETATM   23  C   UNL     1      -9.386   0.703 -32.147  1.00  0.00     0.409 C 
HETATM   24  F   UNL     1     -10.238  -0.349 -32.158  1.00  0.00    -0.169 F 
HETATM   25  F   UNL     1      -9.131   0.979 -30.840  1.00  0.00    -0.169 F 
HETATM   26  F   UNL     1     -10.039   1.778 -32.636  1.00  0.00    -0.169 F 
ENDBRANCH   8  23
BRANCH   6  27
HETATM   27  C   UNL     1      -6.100  -1.549 -34.572  1.00  0.00    -0.035 A 
HETATM   28  C   UNL     1      -5.029  -1.157 -33.749  1.00  0.00     0.012 A 
HETATM   29  C   UNL     1      -4.057  -2.079 -33.350  1.00  0.00     0.043 A 
HETATM   30  C   UNL     1      -4.151  -3.399 -33.767  1.00  0.00     0.116 A 
HETATM   31  F   UNL     1      -3.214  -4.280 -33.391  1.00  0.00    -0.206 F 
HETATM   32  C   UNL     1      -5.202  -3.819 -34.571  1.00  0.00     0.043 A 
HETATM   33  C   UNL     1      -6.175  -2.899 -34.969  1.00  0.00     0.012 A 
ENDBRANCH   6  27
TORSDOF 5
ENDMDL
