MODEL 1
REMARK VINA RESULT:     -10.4      0.000      0.000
REMARK  6 active torsions:
REMARK  status: ('A' for Active; 'I' for Inactive)
REMARK       I    between atoms: N_1  and  C_2 
REMARK    1  A    between atoms: C_2  and  C_4 
REMARK    2  A    between atoms: C_7  and  N_8 
REMARK       I    between atoms: N_8  and  C_9 
REMARK       I    between atoms: C_9  and  N_11 
REMARK    3  A    between atoms: N_11  and  C_12 
REMARK    4  A    between atoms: C_12  and  C_13 
REMARK    5  A    between atoms: C_17  and  C_19 
REMARK       I    between atoms: C_19  and  N_21 
REMARK    6  A    between atoms: N_21  and  C_22 
ROOT
HETATM    1  C   UNL     1      -4.707   5.138 -33.484  1.00  0.00    -0.040 A 
HETATM    2  C   UNL     1      -4.146   4.899 -34.746  1.00  0.00     0.009 A 
HETATM    3  C   UNL     1      -2.948   5.511 -35.111  1.00  0.00     0.002 A 
HETATM    4  C   UNL     1      -2.295   6.353 -34.212  1.00  0.00     0.017 A 
HETATM    5  C   UNL     1      -2.826   6.590 -32.935  1.00  0.00     0.032 A 
HETATM    6  C   UNL     1      -4.040   5.986 -32.581  1.00  0.00     0.026 A 
ENDROOT
BRANCH   1   7
HETATM    7  C   UNL     1      -5.995   4.464 -33.083  1.00  0.00     0.162 C 
BRANCH   7   8
HETATM    8  N   UNL     1      -5.755   3.115 -32.620  1.00  0.00    -0.339 N 
HETATM    9  C   UNL     1      -6.025   2.027 -33.421  1.00  0.00     0.320 C 
HETATM   10  N   UNL     1      -5.681   0.854 -32.784  1.00  0.00    -0.309 N 
HETATM   11  O   UNL     1      -6.476   2.141 -34.554  1.00  0.00    -0.247 OA
HETATM   12  H   UNL     1      -5.222   0.962 -31.892  1.00  0.00     0.170 HD
HETATM   13  H   UNL     1      -5.803   2.972 -31.623  1.00  0.00     0.164 HD
BRANCH  10  14
HETATM   14  C   UNL     1      -5.759  -0.460 -33.288  1.00  0.00     0.036 A 
HETATM   15  C   UNL     1      -6.940  -1.056 -33.735  1.00  0.00     0.030 A 
HETATM   16  C   UNL     1      -6.932  -2.359 -34.250  1.00  0.00     0.019 A 
HETATM   17  C   UNL     1      -5.736  -3.080 -34.326  1.00  0.00     0.032 A 
HETATM   18  C   UNL     1      -4.557  -2.497 -33.852  1.00  0.00     0.019 A 
HETATM   19  C   UNL     1      -4.569  -1.196 -33.340  1.00  0.00     0.030 A 
BRANCH  17  20
HETATM   20  C   UNL     1      -5.671  -4.458 -34.881  1.00  0.00     0.249 C 
HETATM   21  N   UNL     1      -4.638  -5.256 -34.474  1.00  0.00    -0.366 N 
HETATM   22  H   UNL     1      -4.673  -6.221 -34.778  1.00  0.00     0.159 HD
HETATM   23  H   UNL     1      -4.055  -5.035 -33.680  1.00  0.00     0.159 HD
HETATM   24  O   UNL     1      -6.530  -4.884 -35.642  1.00  0.00    -0.268 OA
ENDBRANCH  17  20
ENDBRANCH  10  14
ENDBRANCH   7   8
ENDBRANCH   1   7
BRANCH   5  25
HETATM   25  C   UNL     1      -2.063   7.501 -32.025  1.00  0.00     0.256 C 
HETATM   26  O   UNL     1      -1.781   8.617 -32.449  1.00  0.00    -0.267 OA
HETATM   27  N   UNL     1      -1.722   6.989 -30.784  1.00  0.00    -0.323 N 
HETATM   28  H   UNL     1      -2.004   6.043 -30.569  1.00  0.00     0.169 HD
BRANCH  27  29
HETATM   29  C   UNL     1      -0.959   7.628 -29.780  1.00  0.00     0.035 A 
HETATM   30  C   UNL     1       0.354   7.284 -29.460  1.00  0.00     0.030 A 
HETATM   31  C   UNL     1       1.037   7.949 -28.437  1.00  0.00     0.010 A 
HETATM   32  C   UNL     1       0.421   8.984 -27.727  1.00  0.00    -0.048 A 
HETATM   33  C   UNL     1       1.146   9.663 -26.593  1.00  0.00     0.069 C 
HETATM   34  C   UNL     1      -0.902   9.340 -28.031  1.00  0.00    -0.022 A 
HETATM   35  C   UNL     1       0.499  10.998 -26.210  1.00  0.00     0.274 C 
HETATM   36  N   UNL     1      -0.949  10.853 -26.042  1.00  0.00     0.087 N 
HETATM   37  C   UNL     1      -1.575  10.492 -27.321  1.00  0.00     0.308 C 
HETATM   38  H   UNL     1      -1.344  11.736 -25.722  1.00  0.00     0.316 HD
HETATM   39  C   UNL     1      -1.578   8.661 -29.061  1.00  0.00     0.039 A 
ENDBRANCH  27  29
ENDBRANCH   5  25
TORSDOF 6
ENDMDL
MODEL 2
REMARK VINA RESULT:     -10.3      0.981      1.726
REMARK  6 active torsions:
REMARK  status: ('A' for Active; 'I' for Inactive)
REMARK       I    between atoms: N_1  and  C_2 
REMARK    1  A    between atoms: C_2  and  C_4 
REMARK    2  A    between atoms: C_7  and  N_8 
REMARK       I    between atoms: N_8  and  C_9 
REMARK       I    between atoms: C_9  and  N_11 
REMARK    3  A    between atoms: N_11  and  C_12 
REMARK    4  A    between atoms: C_12  and  C_13 
REMARK    5  A    between atoms: C_17  and  C_19 
REMARK       I    between atoms: C_19  and  N_21 
REMARK    6  A    between atoms: N_21  and  C_22 
ROOT
HETATM    1  C   UNL     1      -4.699   5.112 -33.379  1.00  0.00    -0.040 A 
HETATM    2  C   UNL     1      -4.068   4.834 -34.599  1.00  0.00     0.009 A 
HETATM    3  C   UNL     1      -2.904   5.510 -34.960  1.00  0.00     0.002 A 
HETATM    4  C   UNL     1      -2.352   6.455 -34.096  1.00  0.00     0.017 A 
HETATM    5  C   UNL     1      -2.953   6.734 -32.859  1.00  0.00     0.032 A 
HETATM    6  C   UNL     1      -4.135   6.065 -32.511  1.00  0.00     0.026 A 
ENDROOT
BRANCH   1   7
HETATM    7  C   UNL     1      -5.950   4.370 -32.982  1.00  0.00     0.162 C 
BRANCH   7   8
HETATM    8  N   UNL     1      -5.647   3.018 -32.573  1.00  0.00    -0.339 N 
HETATM    9  C   UNL     1      -5.892   1.947 -33.407  1.00  0.00     0.320 C 
HETATM   10  N   UNL     1      -5.487   0.769 -32.818  1.00  0.00    -0.309 N 
HETATM   11  O   UNL     1      -6.372   2.082 -34.525  1.00  0.00    -0.247 OA
HETATM   12  H   UNL     1      -5.012   0.864 -31.933  1.00  0.00     0.170 HD
HETATM   13  H   UNL     1      -5.667   2.838 -31.581  1.00  0.00     0.164 HD
BRANCH  10  14
HETATM   14  C   UNL     1      -5.524  -0.530 -33.367  1.00  0.00     0.036 A 
HETATM   15  C   UNL     1      -4.388  -1.296 -33.636  1.00  0.00     0.030 A 
HETATM   16  C   UNL     1      -4.507  -2.592 -34.156  1.00  0.00     0.019 A 
HETATM   17  C   UNL     1      -5.771  -3.136 -34.411  1.00  0.00     0.032 A 
HETATM   18  C   UNL     1      -6.909  -2.359 -34.172  1.00  0.00     0.019 A 
HETATM   19  C   UNL     1      -6.785  -1.067 -33.651  1.00  0.00     0.030 A 
BRANCH  17  20
HETATM   20  C   UNL     1      -5.952  -4.511 -34.946  1.00  0.00     0.249 C 
HETATM   21  N   UNL     1      -7.086  -4.766 -35.667  1.00  0.00    -0.366 N 
HETATM   22  H   UNL     1      -7.138  -5.673 -36.111  1.00  0.00     0.159 HD
HETATM   23  H   UNL     1      -7.686  -4.035 -36.021  1.00  0.00     0.159 HD
HETATM   24  O   UNL     1      -5.103  -5.378 -34.788  1.00  0.00    -0.268 OA
ENDBRANCH  17  20
ENDBRANCH  10  14
ENDBRANCH   7   8
ENDBRANCH   1   7
BRANCH   5  25
HETATM   25  C   UNL     1      -2.298   7.757 -31.985  1.00  0.00     0.256 C 
HETATM   26  O   UNL     1      -1.730   8.693 -32.537  1.00  0.00    -0.267 OA
HETATM   27  N   UNL     1      -2.375   7.541 -30.619  1.00  0.00    -0.323 N 
HETATM   28  H   UNL     1      -2.862   6.716 -30.297  1.00  0.00     0.169 HD
BRANCH  27  29
HETATM   29  C   UNL     1      -1.791   8.327 -29.599  1.00  0.00     0.035 A 
HETATM   30  C   UNL     1      -2.370   9.483 -29.077  1.00  0.00     0.030 A 
HETATM   31  C   UNL     1      -1.719  10.221 -28.084  1.00  0.00     0.010 A 
HETATM   32  C   UNL     1      -0.484   9.803 -27.581  1.00  0.00    -0.048 A 
HETATM   33  C   UNL     1       0.234  10.629 -26.545  1.00  0.00     0.069 C 
HETATM   34  C   UNL     1       0.117   8.644 -28.098  1.00  0.00    -0.022 A 
HETATM   35  C   UNL     1       1.340   9.838 -25.838  1.00  0.00     0.274 C 
HETATM   36  N   UNL     1       2.196   9.148 -26.806  1.00  0.00     0.087 N 
HETATM   37  C   UNL     1       1.424   8.135 -27.535  1.00  0.00     0.308 C 
HETATM   38  H   UNL     1       2.960   8.688 -26.315  1.00  0.00     0.316 HD
HETATM   39  C   UNL     1      -0.547   7.913 -29.100  1.00  0.00     0.039 A 
ENDBRANCH  27  29
ENDBRANCH   5  25
TORSDOF 6
ENDMDL
MODEL 3
REMARK VINA RESULT:     -10.2      2.479     12.412
REMARK  6 active torsions:
REMARK  status: ('A' for Active; 'I' for Inactive)
REMARK       I    between atoms: N_1  and  C_2 
REMARK    1  A    between atoms: C_2  and  C_4 
REMARK    2  A    between atoms: C_7  and  N_8 
REMARK       I    between atoms: N_8  and  C_9 
REMARK       I    between atoms: C_9  and  N_11 
REMARK    3  A    between atoms: N_11  and  C_12 
REMARK    4  A    between atoms: C_12  and  C_13 
REMARK    5  A    between atoms: C_17  and  C_19 
REMARK       I    between atoms: C_19  and  N_21 
REMARK    6  A    between atoms: N_21  and  C_22 
ROOT
HETATM    1  C   UNL     1      -3.741   4.426 -31.417  1.00  0.00    -0.040 A 
HETATM    2  C   UNL     1      -4.509   5.165 -30.508  1.00  0.00     0.009 A 
HETATM    3  C   UNL     1      -5.752   4.694 -30.090  1.00  0.00     0.002 A 
HETATM    4  C   UNL     1      -6.228   3.472 -30.564  1.00  0.00     0.017 A 
HETATM    5  C   UNL     1      -5.467   2.703 -31.457  1.00  0.00     0.032 A 
HETATM    6  C   UNL     1      -4.226   3.193 -31.889  1.00  0.00     0.026 A 
ENDROOT
BRANCH   1   7
HETATM    7  C   UNL     1      -2.390   4.929 -31.858  1.00  0.00     0.162 C 
BRANCH   7   8
HETATM    8  N   UNL     1      -1.450   4.930 -30.760  1.00  0.00    -0.339 N 
HETATM    9  C   UNL     1      -1.066   6.105 -30.149  1.00  0.00     0.320 C 
HETATM   10  N   UNL     1      -0.198   5.853 -29.109  1.00  0.00    -0.309 N 
HETATM   11  O   UNL     1      -1.495   7.197 -30.499  1.00  0.00    -0.247 OA
HETATM   12  H   UNL     1      -0.041   4.879 -28.899  1.00  0.00     0.170 HD
HETATM   13  H   UNL     1      -0.791   4.167 -30.737  1.00  0.00     0.164 HD
BRANCH  10  14
HETATM   14  C   UNL     1       0.375   6.782 -28.216  1.00  0.00     0.036 A 
HETATM   15  C   UNL     1       1.138   7.881 -28.617  1.00  0.00     0.030 A 
HETATM   16  C   UNL     1       1.651   8.777 -27.671  1.00  0.00     0.019 A 
HETATM   17  C   UNL     1       1.403   8.583 -26.308  1.00  0.00     0.032 A 
HETATM   18  C   UNL     1       0.666   7.467 -25.901  1.00  0.00     0.019 A 
HETATM   19  C   UNL     1       0.154   6.575 -26.849  1.00  0.00     0.030 A 
BRANCH  17  20
HETATM   20  C   UNL     1       1.911   9.513 -25.265  1.00  0.00     0.249 C 
HETATM   21  N   UNL     1       3.265   9.637 -25.131  1.00  0.00    -0.366 N 
HETATM   22  H   UNL     1       3.588  10.352 -24.492  1.00  0.00     0.159 HD
HETATM   23  H   UNL     1       3.918   9.298 -25.822  1.00  0.00     0.159 HD
HETATM   24  O   UNL     1       1.149  10.181 -24.576  1.00  0.00    -0.268 OA
ENDBRANCH  17  20
ENDBRANCH  10  14
ENDBRANCH   7   8
ENDBRANCH   1   7
BRANCH   5  25
HETATM   25  C   UNL     1      -6.044   1.400 -31.916  1.00  0.00     0.256 C 
HETATM   26  O   UNL     1      -7.026   0.974 -31.318  1.00  0.00    -0.267 OA
HETATM   27  N   UNL     1      -5.397   0.778 -32.971  1.00  0.00    -0.323 N 
HETATM   28  H   UNL     1      -4.585   1.233 -33.363  1.00  0.00     0.169 HD
BRANCH  27  29
HETATM   29  C   UNL     1      -5.713  -0.476 -33.542  1.00  0.00     0.035 A 
HETATM   30  C   UNL     1      -6.917  -0.759 -34.185  1.00  0.00     0.030 A 
HETATM   31  C   UNL     1      -7.167  -2.033 -34.705  1.00  0.00     0.010 A 
HETATM   32  C   UNL     1      -6.205  -3.042 -34.606  1.00  0.00    -0.048 A 
HETATM   33  C   UNL     1      -6.499  -4.426 -35.126  1.00  0.00     0.069 C 
HETATM   34  C   UNL     1      -4.989  -2.777 -33.956  1.00  0.00    -0.022 A 
HETATM   35  C   UNL     1      -5.227  -5.264 -35.295  1.00  0.00     0.274 C 
HETATM   36  N   UNL     1      -4.391  -5.201 -34.094  1.00  0.00     0.087 N 
HETATM   37  C   UNL     1      -3.906  -3.831 -33.884  1.00  0.00     0.308 C 
HETATM   38  H   UNL     1      -3.589  -5.818 -34.206  1.00  0.00     0.316 HD
HETATM   39  C   UNL     1      -4.752  -1.493 -33.435  1.00  0.00     0.039 A 
ENDBRANCH  27  29
ENDBRANCH   5  25
TORSDOF 6
ENDMDL
MODEL 4
REMARK VINA RESULT:      -9.5      3.958     12.402
REMARK  6 active torsions:
REMARK  status: ('A' for Active; 'I' for Inactive)
REMARK       I    between atoms: N_1  and  C_2 
REMARK    1  A    between atoms: C_2  and  C_4 
REMARK    2  A    between atoms: C_7  and  N_8 
REMARK       I    between atoms: N_8  and  C_9 
REMARK       I    between atoms: C_9  and  N_11 
REMARK    3  A    between atoms: N_11  and  C_12 
REMARK    4  A    between atoms: C_12  and  C_13 
REMARK    5  A    between atoms: C_17  and  C_19 
REMARK       I    between atoms: C_19  and  N_21 
REMARK    6  A    between atoms: N_21  and  C_22 
ROOT
HETATM    1  C   UNL     1      -3.934   3.927 -31.736  1.00  0.00    -0.040 A 
HETATM    2  C   UNL     1      -3.075   2.877 -32.088  1.00  0.00     0.009 A 
HETATM    3  C   UNL     1      -3.582   1.597 -32.309  1.00  0.00     0.002 A 
HETATM    4  C   UNL     1      -4.952   1.363 -32.198  1.00  0.00     0.017 A 
HETATM    5  C   UNL     1      -5.834   2.403 -31.869  1.00  0.00     0.032 A 
HETATM    6  C   UNL     1      -5.315   3.683 -31.628  1.00  0.00     0.026 A 
ENDROOT
BRANCH   1   7
HETATM    7  C   UNL     1      -3.388   5.314 -31.510  1.00  0.00     0.162 C 
BRANCH   7   8
HETATM    8  N   UNL     1      -2.135   5.270 -30.791  1.00  0.00    -0.339 N 
HETATM    9  C   UNL     1      -1.738   6.316 -29.985  1.00  0.00     0.320 C 
HETATM   10  N   UNL     1      -0.535   6.032 -29.376  1.00  0.00    -0.309 N 
HETATM   11  O   UNL     1      -2.416   7.325 -29.836  1.00  0.00    -0.247 OA
HETATM   12  H   UNL     1      -0.174   5.104 -29.535  1.00  0.00     0.170 HD
HETATM   13  H   UNL     1      -1.406   4.707 -31.201  1.00  0.00     0.164 HD
BRANCH  10  14
HETATM   14  C   UNL     1       0.172   6.823 -28.447  1.00  0.00     0.036 A 
HETATM   15  C   UNL     1       0.975   7.910 -28.799  1.00  0.00     0.030 A 
HETATM   16  C   UNL     1       1.624   8.667 -27.814  1.00  0.00     0.019 A 
HETATM   17  C   UNL     1       1.474   8.342 -26.462  1.00  0.00     0.032 A 
HETATM   18  C   UNL     1       0.695   7.236 -26.108  1.00  0.00     0.019 A 
HETATM   19  C   UNL     1       0.047   6.484 -27.094  1.00  0.00     0.030 A 
BRANCH  17  20
HETATM   20  C   UNL     1       2.127   9.123 -25.378  1.00  0.00     0.249 C 
HETATM   21  N   UNL     1       2.035  10.486 -25.434  1.00  0.00    -0.366 N 
HETATM   22  H   UNL     1       2.392  10.991 -24.634  1.00  0.00     0.159 HD
HETATM   23  H   UNL     1       1.388  10.966 -26.042  1.00  0.00     0.159 HD
HETATM   24  O   UNL     1       2.692   8.571 -24.442  1.00  0.00    -0.268 OA
ENDBRANCH  17  20
ENDBRANCH  10  14
ENDBRANCH   7   8
ENDBRANCH   1   7
BRANCH   5  25
HETATM   25  C   UNL     1      -7.291   2.072 -31.773  1.00  0.00     0.256 C 
HETATM   26  O   UNL     1      -7.827   2.189 -30.677  1.00  0.00    -0.267 OA
HETATM   27  N   UNL     1      -7.901   1.640 -32.939  1.00  0.00    -0.323 N 
HETATM   28  H   UNL     1      -7.336   1.574 -33.773  1.00  0.00     0.169 HD
BRANCH  27  29
HETATM   29  C   UNL     1      -9.242   1.217 -33.090  1.00  0.00     0.035 A 
HETATM   30  C   UNL     1      -9.691  -0.071 -32.799  1.00  0.00     0.030 A 
HETATM   31  C   UNL     1     -11.030  -0.421 -32.996  1.00  0.00     0.010 A 
HETATM   32  C   UNL     1     -11.948   0.519 -33.473  1.00  0.00    -0.048 A 
HETATM   33  C   UNL     1     -13.380   0.121 -33.729  1.00  0.00     0.069 C 
HETATM   34  C   UNL     1     -11.513   1.818 -33.778  1.00  0.00    -0.022 A 
HETATM   35  C   UNL     1     -14.305   1.335 -33.857  1.00  0.00     0.274 C 
HETATM   36  N   UNL     1     -13.746   2.329 -34.778  1.00  0.00     0.087 N 
HETATM   37  C   UNL     1     -12.493   2.873 -34.240  1.00  0.00     0.308 C 
HETATM   38  H   UNL     1     -14.410   3.092 -34.897  1.00  0.00     0.316 HD
HETATM   39  C   UNL     1     -10.162   2.157 -33.577  1.00  0.00     0.039 A 
ENDBRANCH  27  29
ENDBRANCH   5  25
TORSDOF 6
ENDMDL
MODEL 5
REMARK VINA RESULT:      -9.4      2.560     12.542
REMARK  6 active torsions:
REMARK  status: ('A' for Active; 'I' for Inactive)
REMARK       I    between atoms: N_1  and  C_2 
REMARK    1  A    between atoms: C_2  and  C_4 
REMARK    2  A    between atoms: C_7  and  N_8 
REMARK       I    between atoms: N_8  and  C_9 
REMARK       I    between atoms: C_9  and  N_11 
REMARK    3  A    between atoms: N_11  and  C_12 
REMARK    4  A    between atoms: C_12  and  C_13 
REMARK    5  A    between atoms: C_17  and  C_19 
REMARK       I    between atoms: C_19  and  N_21 
REMARK    6  A    between atoms: N_21  and  C_22 
ROOT
HETATM    1  C   UNL     1      -3.578   5.523 -30.916  1.00  0.00    -0.040 A 
HETATM    2  C   UNL     1      -2.304   5.486 -31.500  1.00  0.00     0.009 A 
HETATM    3  C   UNL     1      -1.957   4.451 -32.366  1.00  0.00     0.002 A 
HETATM    4  C   UNL     1      -2.885   3.455 -32.667  1.00  0.00     0.017 A 
HETATM    5  C   UNL     1      -4.174   3.483 -32.113  1.00  0.00     0.032 A 
HETATM    6  C   UNL     1      -4.510   4.517 -31.227  1.00  0.00     0.026 A 
ENDROOT
BRANCH   1   7
HETATM    7  C   UNL     1      -3.958   6.652 -29.991  1.00  0.00     0.162 C 
BRANCH   7   8
HETATM    8  N   UNL     1      -2.861   7.577 -29.818  1.00  0.00    -0.339 N 
HETATM    9  C   UNL     1      -2.183   7.664 -28.621  1.00  0.00     0.320 C 
HETATM   10  N   UNL     1      -1.158   8.582 -28.707  1.00  0.00    -0.309 N 
HETATM   11  O   UNL     1      -2.469   6.972 -27.652  1.00  0.00    -0.247 OA
HETATM   12  H   UNL     1      -1.006   8.979 -29.621  1.00  0.00     0.170 HD
HETATM   13  H   UNL     1      -2.883   8.405 -30.392  1.00  0.00     0.164 HD
BRANCH  10  14
HETATM   14  C   UNL     1      -0.213   8.918 -27.717  1.00  0.00     0.036 A 
HETATM   15  C   UNL     1      -0.322  10.030 -26.879  1.00  0.00     0.030 A 
HETATM   16  C   UNL     1       0.645  10.283 -25.897  1.00  0.00     0.019 A 
HETATM   17  C   UNL     1       1.735   9.419 -25.742  1.00  0.00     0.032 A 
HETATM   18  C   UNL     1       1.863   8.322 -26.599  1.00  0.00     0.019 A 
HETATM   19  C   UNL     1       0.894   8.073 -27.577  1.00  0.00     0.030 A 
BRANCH  17  20
HETATM   20  C   UNL     1       2.779   9.633 -24.706  1.00  0.00     0.249 C 
HETATM   21  N   UNL     1       3.082  10.922 -24.368  1.00  0.00    -0.366 N 
HETATM   22  H   UNL     1       3.715  11.042 -23.587  1.00  0.00     0.159 HD
HETATM   23  H   UNL     1       2.503  11.707 -24.626  1.00  0.00     0.159 HD
HETATM   24  O   UNL     1       3.323   8.692 -24.140  1.00  0.00    -0.268 OA
ENDBRANCH  17  20
ENDBRANCH  10  14
ENDBRANCH   7   8
ENDBRANCH   1   7
BRANCH   5  25
HETATM   25  C   UNL     1      -5.115   2.382 -32.489  1.00  0.00     0.256 C 
HETATM   26  O   UNL     1      -6.298   2.525 -32.201  1.00  0.00    -0.267 OA
HETATM   27  N   UNL     1      -4.554   1.281 -33.115  1.00  0.00    -0.323 N 
HETATM   28  H   UNL     1      -3.557   1.285 -33.278  1.00  0.00     0.169 HD
BRANCH  27  29
HETATM   29  C   UNL     1      -5.220   0.098 -33.512  1.00  0.00     0.035 A 
HETATM   30  C   UNL     1      -6.594   0.012 -33.731  1.00  0.00     0.030 A 
HETATM   31  C   UNL     1      -7.184  -1.200 -34.100  1.00  0.00     0.010 A 
HETATM   32  C   UNL     1      -6.403  -2.346 -34.275  1.00  0.00    -0.048 A 
HETATM   33  C   UNL     1      -7.051  -3.661 -34.627  1.00  0.00     0.069 C 
HETATM   34  C   UNL     1      -5.018  -2.281 -34.054  1.00  0.00    -0.022 A 
HETATM   35  C   UNL     1      -6.040  -4.681 -35.161  1.00  0.00     0.274 C 
HETATM   36  N   UNL     1      -4.865  -4.765 -34.289  1.00  0.00     0.087 N 
HETATM   37  C   UNL     1      -4.140  -3.488 -34.291  1.00  0.00     0.308 C 
HETATM   38  H   UNL     1      -4.243  -5.496 -34.628  1.00  0.00     0.316 HD
HETATM   39  C   UNL     1      -4.438  -1.055 -33.679  1.00  0.00     0.039 A 
ENDBRANCH  27  29
ENDBRANCH   5  25
TORSDOF 6
ENDMDL
MODEL 6
REMARK VINA RESULT:      -9.2      4.583     11.562
REMARK  6 active torsions:
REMARK  status: ('A' for Active; 'I' for Inactive)
REMARK       I    between atoms: N_1  and  C_2 
REMARK    1  A    between atoms: C_2  and  C_4 
REMARK    2  A    between atoms: C_7  and  N_8 
REMARK       I    between atoms: N_8  and  C_9 
REMARK       I    between atoms: C_9  and  N_11 
REMARK    3  A    between atoms: N_11  and  C_12 
REMARK    4  A    between atoms: C_12  and  C_13 
REMARK    5  A    between atoms: C_17  and  C_19 
REMARK       I    between atoms: C_19  and  N_21 
REMARK    6  A    between atoms: N_21  and  C_22 
ROOT
HETATM    1  C   UNL     1      -5.517  -0.761 -32.659  1.00  0.00    -0.040 A 
HETATM    2  C   UNL     1      -5.392  -1.189 -33.988  1.00  0.00     0.009 A 
HETATM    3  C   UNL     1      -6.499  -1.191 -34.834  1.00  0.00     0.002 A 
HETATM    4  C   UNL     1      -7.735  -0.749 -34.363  1.00  0.00     0.017 A 
HETATM    5  C   UNL     1      -7.880  -0.296 -33.043  1.00  0.00     0.032 A 
HETATM    6  C   UNL     1      -6.766  -0.315 -32.192  1.00  0.00     0.026 A 
ENDROOT
BRANCH   1   7
HETATM    7  C   UNL     1      -4.315  -0.745 -31.749  1.00  0.00     0.162 C 
BRANCH   7   8
HETATM    8  N   UNL     1      -4.171   0.538 -31.098  1.00  0.00    -0.339 N 
HETATM    9  C   UNL     1      -3.737   1.646 -31.795  1.00  0.00     0.320 C 
HETATM   10  N   UNL     1      -3.717   2.757 -30.979  1.00  0.00    -0.309 N 
HETATM   11  O   UNL     1      -3.455   1.605 -32.985  1.00  0.00    -0.247 OA
HETATM   12  H   UNL     1      -4.087   2.622 -30.050  1.00  0.00     0.170 HD
HETATM   13  H   UNL     1      -3.980   0.516 -30.109  1.00  0.00     0.164 HD
BRANCH  10  14
HETATM   14  C   UNL     1      -3.382   4.081 -31.328  1.00  0.00     0.036 A 
HETATM   15  C   UNL     1      -4.321   5.080 -31.594  1.00  0.00     0.030 A 
HETATM   16  C   UNL     1      -3.910   6.382 -31.908  1.00  0.00     0.019 A 
HETATM   17  C   UNL     1      -2.548   6.699 -31.956  1.00  0.00     0.032 A 
HETATM   18  C   UNL     1      -1.605   5.694 -31.720  1.00  0.00     0.019 A 
HETATM   19  C   UNL     1      -2.020   4.396 -31.406  1.00  0.00     0.030 A 
BRANCH  17  20
HETATM   20  C   UNL     1      -2.060   8.068 -32.266  1.00  0.00     0.249 C 
HETATM   21  N   UNL     1      -2.078   8.992 -31.258  1.00  0.00    -0.366 N 
HETATM   22  H   UNL     1      -1.643   9.882 -31.460  1.00  0.00     0.159 HD
HETATM   23  H   UNL     1      -2.205   8.741 -30.289  1.00  0.00     0.159 HD
HETATM   24  O   UNL     1      -1.616   8.356 -33.371  1.00  0.00    -0.268 OA
ENDBRANCH  17  20
ENDBRANCH  10  14
ENDBRANCH   7   8
ENDBRANCH   1   7
BRANCH   5  25
HETATM   25  C   UNL     1      -9.237   0.166 -32.614  1.00  0.00     0.256 C 
HETATM   26  O   UNL     1      -9.412   0.376 -31.418  1.00  0.00    -0.267 OA
HETATM   27  N   UNL     1     -10.187   0.296 -33.613  1.00  0.00    -0.323 N 
HETATM   28  H   UNL     1      -9.913   0.074 -34.559  1.00  0.00     0.169 HD
BRANCH  27  29
HETATM   29  C   UNL     1     -11.545   0.658 -33.453  1.00  0.00     0.035 A 
HETATM   30  C   UNL     1     -12.611  -0.229 -33.599  1.00  0.00     0.030 A 
HETATM   31  C   UNL     1     -13.930   0.209 -33.448  1.00  0.00     0.010 A 
HETATM   32  C   UNL     1     -14.204   1.542 -33.130  1.00  0.00    -0.048 A 
HETATM   33  C   UNL     1     -15.630   2.019 -33.016  1.00  0.00     0.069 C 
HETATM   34  C   UNL     1     -13.144   2.451 -32.986  1.00  0.00    -0.022 A 
HETATM   35  C   UNL     1     -15.736   3.362 -32.288  1.00  0.00     0.274 C 
HETATM   36  N   UNL     1     -14.782   4.333 -32.832  1.00  0.00     0.087 N 
HETATM   37  C   UNL     1     -13.406   3.886 -32.586  1.00  0.00     0.308 C 
HETATM   38  H   UNL     1     -14.920   5.234 -32.378  1.00  0.00     0.316 HD
HETATM   39  C   UNL     1     -11.822   1.998 -33.143  1.00  0.00     0.039 A 
ENDBRANCH  27  29
ENDBRANCH   5  25
TORSDOF 6
ENDMDL
MODEL 7
REMARK VINA RESULT:      -9.2      3.194      4.062
REMARK  6 active torsions:
REMARK  status: ('A' for Active; 'I' for Inactive)
REMARK       I    between atoms: N_1  and  C_2 
REMARK    1  A    between atoms: C_2  and  C_4 
REMARK    2  A    between atoms: C_7  and  N_8 
REMARK       I    between atoms: N_8  and  C_9 
REMARK       I    between atoms: C_9  and  N_11 
REMARK    3  A    between atoms: N_11  and  C_12 
REMARK    4  A    between atoms: C_12  and  C_13 
REMARK    5  A    between atoms: C_17  and  C_19 
REMARK       I    between atoms: C_19  and  N_21 
REMARK    6  A    between atoms: N_21  and  C_22 
ROOT
HETATM    1  C   UNL     1      -2.680   3.720 -32.108  1.00  0.00    -0.040 A 
HETATM    2  C   UNL     1      -2.604   3.896 -33.497  1.00  0.00     0.009 A 
HETATM    3  C   UNL     1      -1.908   4.978 -34.032  1.00  0.00     0.002 A 
HETATM    4  C   UNL     1      -1.268   5.882 -33.184  1.00  0.00     0.017 A 
HETATM    5  C   UNL     1      -1.311   5.713 -31.792  1.00  0.00     0.032 A 
HETATM    6  C   UNL     1      -2.029   4.634 -31.260  1.00  0.00     0.026 A 
ENDROOT
BRANCH   1   7
HETATM    7  C   UNL     1      -3.421   2.541 -31.529  1.00  0.00     0.162 C 
BRANCH   7   8
HETATM    8  N   UNL     1      -4.395   2.027 -32.466  1.00  0.00    -0.339 N 
HETATM    9  C   UNL     1      -5.744   2.057 -32.180  1.00  0.00     0.320 C 
HETATM   10  N   UNL     1      -6.476   1.551 -33.233  1.00  0.00    -0.309 N 
HETATM   11  O   UNL     1      -6.184   2.514 -31.133  1.00  0.00    -0.247 OA
HETATM   12  H   UNL     1      -5.947   1.320 -34.060  1.00  0.00     0.170 HD
HETATM   13  H   UNL     1      -4.076   1.300 -33.086  1.00  0.00     0.164 HD
BRANCH  10  14
HETATM   14  C   UNL     1      -7.878   1.458 -33.345  1.00  0.00     0.036 A 
HETATM   15  C   UNL     1      -8.670   2.381 -34.031  1.00  0.00     0.030 A 
HETATM   16  C   UNL     1     -10.056   2.204 -34.123  1.00  0.00     0.019 A 
HETATM   17  C   UNL     1     -10.667   1.094 -33.530  1.00  0.00     0.032 A 
HETATM   18  C   UNL     1      -9.881   0.184 -32.816  1.00  0.00     0.019 A 
HETATM   19  C   UNL     1      -8.497   0.363 -32.728  1.00  0.00     0.030 A 
BRANCH  17  20
HETATM   20  C   UNL     1     -12.131   0.851 -33.613  1.00  0.00     0.249 C 
HETATM   21  N   UNL     1     -12.593  -0.376 -33.224  1.00  0.00    -0.366 N 
HETATM   22  H   UNL     1     -13.598  -0.484 -33.187  1.00  0.00     0.159 HD
HETATM   23  H   UNL     1     -12.031  -1.032 -32.702  1.00  0.00     0.159 HD
HETATM   24  O   UNL     1     -12.907   1.726 -33.975  1.00  0.00    -0.268 OA
ENDBRANCH  17  20
ENDBRANCH  10  14
ENDBRANCH   7   8
ENDBRANCH   1   7
BRANCH   5  25
HETATM   25  C   UNL     1      -0.594   6.723 -30.950  1.00  0.00     0.256 C 
HETATM   26  O   UNL     1       0.553   7.015 -31.270  1.00  0.00    -0.267 OA
HETATM   27  N   UNL     1      -1.292   7.223 -29.863  1.00  0.00    -0.323 N 
HETATM   28  H   UNL     1      -2.229   6.883 -29.704  1.00  0.00     0.169 HD
BRANCH  27  29
HETATM   29  C   UNL     1      -0.815   8.136 -28.893  1.00  0.00     0.035 A 
HETATM   30  C   UNL     1      -1.371   9.394 -28.666  1.00  0.00     0.030 A 
HETATM   31  C   UNL     1      -0.828  10.251 -27.704  1.00  0.00     0.010 A 
HETATM   32  C   UNL     1       0.271   9.854 -26.938  1.00  0.00    -0.048 A 
HETATM   33  C   UNL     1       0.880  10.801 -25.935  1.00  0.00     0.069 C 
HETATM   34  C   UNL     1       0.848   8.593 -27.156  1.00  0.00    -0.022 A 
HETATM   35  C   UNL     1       1.788  10.079 -24.934  1.00  0.00     0.274 C 
HETATM   36  N   UNL     1       2.728   9.189 -25.621  1.00  0.00     0.087 N 
HETATM   37  C   UNL     1       2.001   8.112 -26.304  1.00  0.00     0.308 C 
HETATM   38  H   UNL     1       3.362   8.776 -24.940  1.00  0.00     0.316 HD
HETATM   39  C   UNL     1       0.294   7.742 -28.130  1.00  0.00     0.039 A 
ENDBRANCH  27  29
ENDBRANCH   5  25
TORSDOF 6
ENDMDL
MODEL 8
REMARK VINA RESULT:      -9.1      3.641     12.523
REMARK  6 active torsions:
REMARK  status: ('A' for Active; 'I' for Inactive)
REMARK       I    between atoms: N_1  and  C_2 
REMARK    1  A    between atoms: C_2  and  C_4 
REMARK    2  A    between atoms: C_7  and  N_8 
REMARK       I    between atoms: N_8  and  C_9 
REMARK       I    between atoms: C_9  and  N_11 
REMARK    3  A    between atoms: N_11  and  C_12 
REMARK    4  A    between atoms: C_12  and  C_13 
REMARK    5  A    between atoms: C_17  and  C_19 
REMARK       I    between atoms: C_19  and  N_21 
REMARK    6  A    between atoms: N_21  and  C_22 
ROOT
HETATM    1  C   UNL     1      -1.438   7.211 -29.658  1.00  0.00    -0.040 A 
HETATM    2  C   UNL     1      -0.064   7.355 -29.892  1.00  0.00     0.009 A 
HETATM    3  C   UNL     1       0.574   6.565 -30.847  1.00  0.00     0.002 A 
HETATM    4  C   UNL     1      -0.161   5.638 -31.586  1.00  0.00     0.017 A 
HETATM    5  C   UNL     1      -1.542   5.492 -31.385  1.00  0.00     0.032 A 
HETATM    6  C   UNL     1      -2.173   6.276 -30.409  1.00  0.00     0.026 A 
ENDROOT
BRANCH   1   7
HETATM    7  C   UNL     1      -2.131   8.076 -28.636  1.00  0.00     0.162 C 
BRANCH   7   8
HETATM    8  N   UNL     1      -1.184   8.915 -27.936  1.00  0.00    -0.339 N 
HETATM    9  C   UNL     1      -0.593   8.498 -26.762  1.00  0.00     0.320 C 
HETATM   10  N   UNL     1       0.298   9.444 -26.302  1.00  0.00    -0.309 N 
HETATM   11  O   UNL     1      -0.832   7.409 -26.257  1.00  0.00    -0.247 OA
HETATM   12  H   UNL     1       0.444  10.236 -26.910  1.00  0.00     0.170 HD
HETATM   13  H   UNL     1      -1.289   9.909 -28.066  1.00  0.00     0.164 HD
BRANCH  10  14
HETATM   14  C   UNL     1       1.131   9.368 -25.167  1.00  0.00     0.036 A 
HETATM   15  C   UNL     1       0.784   9.867 -23.910  1.00  0.00     0.030 A 
HETATM   16  C   UNL     1       1.655   9.728 -22.821  1.00  0.00     0.019 A 
HETATM   17  C   UNL     1       2.886   9.084 -22.981  1.00  0.00     0.032 A 
HETATM   18  C   UNL     1       3.250   8.610 -24.245  1.00  0.00     0.019 A 
HETATM   19  C   UNL     1       2.376   8.749 -25.329  1.00  0.00     0.030 A 
BRANCH  17  20
HETATM   20  C   UNL     1       3.839   8.896 -21.855  1.00  0.00     0.249 C 
HETATM   21  N   UNL     1       4.774   9.870 -21.646  1.00  0.00    -0.366 N 
HETATM   22  H   UNL     1       5.341   9.775 -20.813  1.00  0.00     0.159 HD
HETATM   23  H   UNL     1       4.719  10.783 -22.074  1.00  0.00     0.159 HD
HETATM   24  O   UNL     1       3.768   7.926 -21.110  1.00  0.00    -0.268 OA
ENDBRANCH  17  20
ENDBRANCH  10  14
ENDBRANCH   7   8
ENDBRANCH   1   7
BRANCH   5  25
HETATM   25  C   UNL     1      -2.260   4.479 -32.221  1.00  0.00     0.256 C 
HETATM   26  O   UNL     1      -2.030   4.475 -33.426  1.00  0.00    -0.267 OA
HETATM   27  N   UNL     1      -3.144   3.647 -31.555  1.00  0.00    -0.323 N 
HETATM   28  H   UNL     1      -3.251   3.770 -30.558  1.00  0.00     0.169 HD
BRANCH  27  29
HETATM   29  C   UNL     1      -3.977   2.657 -32.128  1.00  0.00     0.035 A 
HETATM   30  C   UNL     1      -5.284   2.890 -32.554  1.00  0.00     0.030 A 
HETATM   31  C   UNL     1      -6.055   1.853 -33.090  1.00  0.00     0.010 A 
HETATM   32  C   UNL     1      -5.522   0.569 -33.225  1.00  0.00    -0.048 A 
HETATM   33  C   UNL     1      -6.374  -0.555 -33.760  1.00  0.00     0.069 C 
HETATM   34  C   UNL     1      -4.209   0.315 -32.797  1.00  0.00    -0.022 A 
HETATM   35  C   UNL     1      -5.534  -1.756 -34.206  1.00  0.00     0.274 C 
HETATM   36  N   UNL     1      -4.561  -2.131 -33.177  1.00  0.00     0.087 N 
HETATM   37  C   UNL     1      -3.586  -1.050 -32.983  1.00  0.00     0.308 C 
HETATM   38  H   UNL     1      -4.064  -2.971 -33.470  1.00  0.00     0.316 HD
HETATM   39  C   UNL     1      -3.446   1.366 -32.256  1.00  0.00     0.039 A 
ENDBRANCH  27  29
ENDBRANCH   5  25
TORSDOF 6
ENDMDL
MODEL 9
REMARK VINA RESULT:      -9.1      4.017     12.192
REMARK  6 active torsions:
REMARK  status: ('A' for Active; 'I' for Inactive)
REMARK       I    between atoms: N_1  and  C_2 
REMARK    1  A    between atoms: C_2  and  C_4 
REMARK    2  A    between atoms: C_7  and  N_8 
REMARK       I    between atoms: N_8  and  C_9 
REMARK       I    between atoms: C_9  and  N_11 
REMARK    3  A    between atoms: N_11  and  C_12 
REMARK    4  A    between atoms: C_12  and  C_13 
REMARK    5  A    between atoms: C_17  and  C_19 
REMARK       I    between atoms: C_19  and  N_21 
REMARK    6  A    between atoms: N_21  and  C_22 
ROOT
HETATM    1  C   UNL     1      -3.699   2.668 -32.348  1.00  0.00    -0.040 A 
HETATM    2  C   UNL     1      -3.407   1.628 -31.455  1.00  0.00     0.009 A 
HETATM    3  C   UNL     1      -4.359   0.649 -31.178  1.00  0.00     0.002 A 
HETATM    4  C   UNL     1      -5.604   0.693 -31.805  1.00  0.00     0.017 A 
HETATM    5  C   UNL     1      -5.911   1.711 -32.720  1.00  0.00     0.032 A 
HETATM    6  C   UNL     1      -4.956   2.704 -32.978  1.00  0.00     0.026 A 
ENDROOT
BRANCH   1   7
HETATM    7  C   UNL     1      -2.663   3.718 -32.659  1.00  0.00     0.162 C 
BRANCH   7   8
HETATM    8  N   UNL     1      -2.751   4.827 -31.735  1.00  0.00    -0.339 N 
HETATM    9  C   UNL     1      -1.710   5.132 -30.884  1.00  0.00     0.320 C 
HETATM   10  N   UNL     1      -2.008   6.246 -30.130  1.00  0.00    -0.309 N 
HETATM   11  O   UNL     1      -0.668   4.490 -30.866  1.00  0.00    -0.247 OA
HETATM   12  H   UNL     1      -2.874   6.708 -30.359  1.00  0.00     0.170 HD
HETATM   13  H   UNL     1      -3.679   5.080 -31.431  1.00  0.00     0.164 HD
BRANCH  10  14
HETATM   14  C   UNL     1      -1.186   6.897 -29.187  1.00  0.00     0.036 A 
HETATM   15  C   UNL     1      -1.571   7.170 -27.873  1.00  0.00     0.030 A 
HETATM   16  C   UNL     1      -0.687   7.796 -26.984  1.00  0.00     0.019 A 
HETATM   17  C   UNL     1       0.599   8.153 -27.404  1.00  0.00     0.032 A 
HETATM   18  C   UNL     1       0.977   7.909 -28.728  1.00  0.00     0.019 A 
HETATM   19  C   UNL     1       0.092   7.282 -29.611  1.00  0.00     0.030 A 
BRANCH  17  20
HETATM   20  C   UNL     1       1.581   8.803 -26.497  1.00  0.00     0.249 C 
HETATM   21  N   UNL     1       1.559  10.167 -26.411  1.00  0.00    -0.366 N 
HETATM   22  H   UNL     1       2.161  10.581 -25.711  1.00  0.00     0.159 HD
HETATM   23  H   UNL     1       0.795  10.726 -26.763  1.00  0.00     0.159 HD
HETATM   24  O   UNL     1       2.357   8.145 -25.815  1.00  0.00    -0.268 OA
ENDBRANCH  17  20
ENDBRANCH  10  14
ENDBRANCH   7   8
ENDBRANCH   1   7
BRANCH   5  25
HETATM   25  C   UNL     1      -7.267   1.687 -33.355  1.00  0.00     0.256 C 
HETATM   26  O   UNL     1      -7.321   1.499 -34.566  1.00  0.00    -0.267 OA
HETATM   27  N   UNL     1      -8.345   1.902 -32.513  1.00  0.00    -0.323 N 
HETATM   28  H   UNL     1      -8.156   2.061 -31.533  1.00  0.00     0.169 HD
BRANCH  27  29
HETATM   29  C   UNL     1      -9.708   1.982 -32.880  1.00  0.00     0.035 A 
HETATM   30  C   UNL     1     -10.381   3.180 -33.124  1.00  0.00     0.030 A 
HETATM   31  C   UNL     1     -11.738   3.180 -33.461  1.00  0.00     0.010 A 
HETATM   32  C   UNL     1     -12.441   1.978 -33.577  1.00  0.00    -0.048 A 
HETATM   33  C   UNL     1     -13.915   1.988 -33.894  1.00  0.00     0.069 C 
HETATM   34  C   UNL     1     -11.782   0.763 -33.329  1.00  0.00    -0.022 A 
HETATM   35  C   UNL     1     -14.416   0.619 -34.368  1.00  0.00     0.274 C 
HETATM   36  N   UNL     1     -13.965  -0.447 -33.469  1.00  0.00     0.087 N 
HETATM   37  C   UNL     1     -12.501  -0.555 -33.503  1.00  0.00     0.308 C 
HETATM   38  H   UNL     1     -14.366  -1.334 -33.768  1.00  0.00     0.316 HD
HETATM   39  C   UNL     1     -10.418   0.777 -32.988  1.00  0.00     0.039 A 
ENDBRANCH  27  29
ENDBRANCH   5  25
TORSDOF 6
ENDMDL
MODEL 10
REMARK VINA RESULT:      -8.8      4.521     10.069
REMARK  6 active torsions:
REMARK  status: ('A' for Active; 'I' for Inactive)
REMARK       I    between atoms: N_1  and  C_2 
REMARK    1  A    between atoms: C_2  and  C_4 
REMARK    2  A    between atoms: C_7  and  N_8 
REMARK       I    between atoms: N_8  and  C_9 
REMARK       I    between atoms: C_9  and  N_11 
REMARK    3  A    between atoms: N_11  and  C_12 
REMARK    4  A    between atoms: C_12  and  C_13 
REMARK    5  A    between atoms: C_17  and  C_19 
REMARK       I    between atoms: C_19  and  N_21 
REMARK    6  A    between atoms: N_21  and  C_22 
ROOT
HETATM    1  C   UNL     1      -4.943   4.854 -31.051  1.00  0.00    -0.040 A 
HETATM    2  C   UNL     1      -3.607   5.244 -31.214  1.00  0.00     0.009 A 
HETATM    3  C   UNL     1      -2.640   4.309 -31.578  1.00  0.00     0.002 A 
HETATM    4  C   UNL     1      -3.004   2.982 -31.800  1.00  0.00     0.017 A 
HETATM    5  C   UNL     1      -4.340   2.572 -31.665  1.00  0.00     0.032 A 
HETATM    6  C   UNL     1      -5.303   3.514 -31.279  1.00  0.00     0.026 A 
ENDROOT
BRANCH   1   7
HETATM    7  C   UNL     1      -5.991   5.869 -30.670  1.00  0.00     0.162 C 
BRANCH   7   8
HETATM    8  N   UNL     1      -7.277   5.239 -30.468  1.00  0.00    -0.339 N 
HETATM    9  C   UNL     1      -8.113   4.967 -31.530  1.00  0.00     0.320 C 
HETATM   10  N   UNL     1      -9.258   4.332 -31.099  1.00  0.00    -0.309 N 
HETATM   11  O   UNL     1      -7.817   5.239 -32.687  1.00  0.00    -0.247 OA
HETATM   12  H   UNL     1      -9.281   4.093 -30.119  1.00  0.00     0.170 HD
HETATM   13  H   UNL     1      -7.712   5.393 -29.572  1.00  0.00     0.164 HD
BRANCH  10  14
HETATM   14  C   UNL     1     -10.327   3.851 -31.881  1.00  0.00     0.036 A 
HETATM   15  C   UNL     1     -11.513   4.555 -32.101  1.00  0.00     0.030 A 
HETATM   16  C   UNL     1     -12.520   4.021 -32.916  1.00  0.00     0.019 A 
HETATM   17  C   UNL     1     -12.348   2.773 -33.524  1.00  0.00     0.032 A 
HETATM   18  C   UNL     1     -11.175   2.052 -33.282  1.00  0.00     0.019 A 
HETATM   19  C   UNL     1     -10.171   2.589 -32.469  1.00  0.00     0.030 A 
BRANCH  17  20
HETATM   20  C   UNL     1     -13.378   2.170 -34.411  1.00  0.00     0.249 C 
HETATM   21  N   UNL     1     -14.593   1.873 -33.860  1.00  0.00    -0.366 N 
HETATM   22  H   UNL     1     -15.312   1.564 -34.502  1.00  0.00     0.159 HD
HETATM   23  H   UNL     1     -14.888   2.224 -32.961  1.00  0.00     0.159 HD
HETATM   24  O   UNL     1     -13.167   1.982 -35.603  1.00  0.00    -0.268 OA
ENDBRANCH  17  20
ENDBRANCH  10  14
ENDBRANCH   7   8
ENDBRANCH   1   7
BRANCH   5  25
HETATM   25  C   UNL     1      -4.652   1.132 -31.925  1.00  0.00     0.256 C 
HETATM   26  O   UNL     1      -4.307   0.316 -31.076  1.00  0.00    -0.267 OA
HETATM   27  N   UNL     1      -5.289   0.846 -33.121  1.00  0.00    -0.323 N 
HETATM   28  H   UNL     1      -5.502   1.616 -33.740  1.00  0.00     0.169 HD
BRANCH  27  29
HETATM   29  C   UNL     1      -5.635  -0.433 -33.617  1.00  0.00     0.035 A 
HETATM   30  C   UNL     1      -6.878  -0.746 -34.166  1.00  0.00     0.030 A 
HETATM   31  C   UNL     1      -7.153  -2.041 -34.615  1.00  0.00     0.010 A 
HETATM   32  C   UNL     1      -6.181  -3.042 -34.537  1.00  0.00    -0.048 A 
HETATM   33  C   UNL     1      -6.501  -4.448 -34.978  1.00  0.00     0.069 C 
HETATM   34  C   UNL     1      -4.926  -2.747 -33.981  1.00  0.00    -0.022 A 
HETATM   35  C   UNL     1      -5.239  -5.288 -35.196  1.00  0.00     0.274 C 
HETATM   36  N   UNL     1      -4.325  -5.172 -34.056  1.00  0.00     0.087 N 
HETATM   37  C   UNL     1      -3.836  -3.793 -33.936  1.00  0.00     0.308 C 
HETATM   38  H   UNL     1      -3.528  -5.791 -34.195  1.00  0.00     0.316 HD
HETATM   39  C   UNL     1      -4.663  -1.440 -33.531  1.00  0.00     0.039 A 
ENDBRANCH  27  29
ENDBRANCH   5  25
TORSDOF 6
ENDMDL
