MODEL 1
REMARK VINA RESULT:      -8.5      0.000      0.000
REMARK  8 active torsions:
REMARK  status: ('A' for Active; 'I' for Inactive)
REMARK    1  A    between atoms: C_2  and  C_3 
REMARK    2  A    between atoms: C_3  and  N_4 
REMARK    3  A    between atoms: C_3  and  C_19 
REMARK       I    between atoms: C_19  and  N_20 
REMARK    4  A    between atoms: N_20  and  C_21 
REMARK    5  A    between atoms: C_21  and  C_22 
REMARK    6  A    between atoms: C_22  and  C_23 
REMARK    7  A    between atoms: C_23  and  O_24 
REMARK    8  A    between atoms: O_24  and  C_25 
ROOT
HETATM    1  N   UNL     1      -6.154   1.490 -33.454  1.00  0.00    -0.220 N 
HETATM    2  N   UNL     1      -5.143   1.748 -32.514  1.00  0.00    -0.172 NA
HETATM    3  C   UNL     1      -4.320   0.794 -32.177  1.00  0.00     0.069 A 
HETATM    4  C   UNL     1      -3.233   1.107 -31.183  1.00  0.00     0.074 C 
HETATM    5  C   UNL     1      -4.455  -0.517 -32.748  1.00  0.00     0.048 A 
HETATM    6  C   UNL     1      -5.454  -0.822 -33.637  1.00  0.00     0.064 A 
HETATM    7  C   UNL     1      -6.400   0.217 -34.022  1.00  0.00     0.277 A 
HETATM    8  O   UNL     1      -7.338  -0.013 -34.780  1.00  0.00    -0.266 OA
HETATM    9  S   UNL     1      -3.442  -1.825 -32.413  1.00  0.00    -0.086 SA
HETATM   10  C   UNL     1      -4.328  -2.869 -33.458  1.00  0.00     0.017 A 
HETATM   11  C   UNL     1      -5.401  -2.199 -34.061  1.00  0.00    -0.002 A 
HETATM   12  C   UNL     1      -4.062  -4.228 -33.718  1.00  0.00     0.020 A 
HETATM   13  C   UNL     1      -4.892  -4.926 -34.595  1.00  0.00     0.001 A 
HETATM   14  C   UNL     1      -5.965  -4.291 -35.204  1.00  0.00     0.001 A 
HETATM   15  C   UNL     1      -6.224  -2.942 -34.946  1.00  0.00     0.014 A 
ENDROOT
BRANCH   1  16
HETATM   16  C   UNL     1      -7.108   2.579 -33.770  1.00  0.00     0.205 C 
BRANCH  16  17
HETATM   17  C   UNL     1      -8.277   2.633 -32.769  1.00  0.00     0.032 C 
HETATM   18  C   UNL     1      -9.626   2.211 -33.333  1.00  0.00     0.007 C 
ENDBRANCH  16  17
BRANCH  16  19
HETATM   19  C   UNL     1      -6.524   3.990 -34.011  1.00  0.00     0.242 C 
HETATM   20  N   UNL     1      -5.165   4.108 -33.859  1.00  0.00    -0.359 N 
HETATM   21  H   UNL     1      -4.666   3.248 -33.639  1.00  0.00     0.162 HD
HETATM   22  O   UNL     1      -7.253   4.962 -34.206  1.00  0.00    -0.271 OA
BRANCH  20  23
HETATM   23  C   UNL     1      -4.443   5.355 -33.994  1.00  0.00     0.125 C 
BRANCH  23  24
HETATM   24  C   UNL     1      -3.476   5.332 -35.174  1.00  0.00     0.046 C 
BRANCH  24  25
HETATM   25  C   UNL     1      -2.031   5.151 -34.720  1.00  0.00     0.169 C 
BRANCH  25  26
HETATM   26  O   UNL     1      -1.399   6.424 -34.636  1.00  0.00    -0.387 OA
BRANCH  26  27
HETATM   27  C   UNL     1      -0.976   6.783 -33.318  1.00  0.00     0.113 C 
HETATM   28  C   UNL     1      -1.911   7.819 -32.703  1.00  0.00     0.039 C 
HETATM   29  C   UNL     1      -0.991   5.502 -32.490  1.00  0.00     0.039 C 
ENDBRANCH  26  27
ENDBRANCH  25  26
ENDBRANCH  24  25
ENDBRANCH  23  24
ENDBRANCH  20  23
ENDBRANCH  16  19
ENDBRANCH   1  16
TORSDOF 8
ENDMDL
MODEL 2
REMARK VINA RESULT:      -8.2      2.967      6.408
REMARK  8 active torsions:
REMARK  status: ('A' for Active; 'I' for Inactive)
REMARK    1  A    between atoms: C_2  and  C_3 
REMARK    2  A    between atoms: C_3  and  N_4 
REMARK    3  A    between atoms: C_3  and  C_19 
REMARK       I    between atoms: C_19  and  N_20 
REMARK    4  A    between atoms: N_20  and  C_21 
REMARK    5  A    between atoms: C_21  and  C_22 
REMARK    6  A    between atoms: C_22  and  C_23 
REMARK    7  A    between atoms: C_23  and  O_24 
REMARK    8  A    between atoms: O_24  and  C_25 
ROOT
HETATM    1  N   UNL     1      -7.504   1.581 -32.669  1.00  0.00    -0.220 N 
HETATM    2  N   UNL     1      -6.276   2.141 -32.280  1.00  0.00    -0.172 NA
HETATM    3  C   UNL     1      -5.176   1.462 -32.457  1.00  0.00     0.069 A 
HETATM    4  C   UNL     1      -3.873   2.097 -32.051  1.00  0.00     0.074 C 
HETATM    5  C   UNL     1      -5.219   0.144 -33.028  1.00  0.00     0.048 A 
HETATM    6  C   UNL     1      -6.401  -0.455 -33.382  1.00  0.00     0.064 A 
HETATM    7  C   UNL     1      -7.649   0.270 -33.182  1.00  0.00     0.277 A 
HETATM    8  O   UNL     1      -8.737  -0.236 -33.441  1.00  0.00    -0.266 OA
HETATM    9  S   UNL     1      -3.868  -0.821 -33.329  1.00  0.00    -0.086 SA
HETATM   10  C   UNL     1      -4.837  -2.106 -33.945  1.00  0.00     0.017 A 
HETATM   11  C   UNL     1      -6.199  -1.779 -33.916  1.00  0.00    -0.002 A 
HETATM   12  C   UNL     1      -4.383  -3.348 -34.431  1.00  0.00     0.020 A 
HETATM   13  C   UNL     1      -5.315  -4.278 -34.891  1.00  0.00     0.001 A 
HETATM   14  C   UNL     1      -6.671  -3.984 -34.871  1.00  0.00     0.001 A 
HETATM   15  C   UNL     1      -7.117  -2.750 -34.391  1.00  0.00     0.014 A 
ENDROOT
BRANCH   1  16
HETATM   16  C   UNL     1      -8.739   2.354 -32.400  1.00  0.00     0.205 C 
BRANCH  16  17
HETATM   17  C   UNL     1      -8.661   3.125 -31.069  1.00  0.00     0.032 C 
HETATM   18  C   UNL     1     -10.004   3.546 -30.491  1.00  0.00     0.007 C 
ENDBRANCH  16  17
BRANCH  16  19
HETATM   19  C   UNL     1      -9.272   3.262 -33.532  1.00  0.00     0.242 C 
HETATM   20  N   UNL     1     -10.505   2.928 -34.034  1.00  0.00    -0.359 N 
HETATM   21  H   UNL     1     -10.968   2.139 -33.588  1.00  0.00     0.162 HD
HETATM   22  O   UNL     1      -8.576   4.147 -34.027  1.00  0.00    -0.271 OA
BRANCH  20  23
HETATM   23  C   UNL     1     -11.148   3.627 -35.127  1.00  0.00     0.125 C 
BRANCH  23  24
HETATM   24  C   UNL     1     -12.369   2.875 -35.649  1.00  0.00     0.046 C 
BRANCH  24  25
HETATM   25  C   UNL     1     -12.687   1.650 -34.797  1.00  0.00     0.169 C 
BRANCH  25  26
HETATM   26  O   UNL     1     -13.258   2.069 -33.562  1.00  0.00    -0.387 OA
BRANCH  26  27
HETATM   27  C   UNL     1     -14.353   1.263 -33.118  1.00  0.00     0.113 C 
HETATM   28  C   UNL     1     -15.372   2.097 -32.349  1.00  0.00     0.039 C 
HETATM   29  C   UNL     1     -14.994   0.669 -34.369  1.00  0.00     0.039 C 
ENDBRANCH  26  27
ENDBRANCH  25  26
ENDBRANCH  24  25
ENDBRANCH  23  24
ENDBRANCH  20  23
ENDBRANCH  16  19
ENDBRANCH   1  16
TORSDOF 8
ENDMDL
MODEL 3
REMARK VINA RESULT:      -8.1      1.357      1.679
REMARK  8 active torsions:
REMARK  status: ('A' for Active; 'I' for Inactive)
REMARK    1  A    between atoms: C_2  and  C_3 
REMARK    2  A    between atoms: C_3  and  N_4 
REMARK    3  A    between atoms: C_3  and  C_19 
REMARK       I    between atoms: C_19  and  N_20 
REMARK    4  A    between atoms: N_20  and  C_21 
REMARK    5  A    between atoms: C_21  and  C_22 
REMARK    6  A    between atoms: C_22  and  C_23 
REMARK    7  A    between atoms: C_23  and  O_24 
REMARK    8  A    between atoms: O_24  and  C_25 
ROOT
HETATM    1  N   UNL     1      -6.732   1.840 -32.895  1.00  0.00    -0.220 N 
HETATM    2  N   UNL     1      -5.538   2.135 -32.217  1.00  0.00    -0.172 NA
HETATM    3  C   UNL     1      -4.593   1.238 -32.160  1.00  0.00     0.069 A 
HETATM    4  C   UNL     1      -3.316   1.592 -31.445  1.00  0.00     0.074 C 
HETATM    5  C   UNL     1      -4.775  -0.050 -32.769  1.00  0.00     0.048 A 
HETATM    6  C   UNL     1      -5.941  -0.393 -33.405  1.00  0.00     0.064 A 
HETATM    7  C   UNL     1      -7.023   0.581 -33.472  1.00  0.00     0.277 A 
HETATM    8  O   UNL     1      -8.103   0.310 -33.990  1.00  0.00    -0.266 OA
HETATM    9  S   UNL     1      -3.622  -1.282 -32.785  1.00  0.00    -0.086 SA
HETATM   10  C   UNL     1      -4.667  -2.344 -33.650  1.00  0.00     0.017 A 
HETATM   11  C   UNL     1      -5.901  -1.738 -33.922  1.00  0.00    -0.002 A 
HETATM   12  C   UNL     1      -4.381  -3.661 -34.061  1.00  0.00     0.020 A 
HETATM   13  C   UNL     1      -5.354  -4.382 -34.753  1.00  0.00     0.001 A 
HETATM   14  C   UNL     1      -6.586  -3.810 -35.034  1.00  0.00     0.001 A 
HETATM   15  C   UNL     1      -6.865  -2.502 -34.628  1.00  0.00     0.014 A 
ENDROOT
BRANCH   1  16
HETATM   16  C   UNL     1      -7.807   2.859 -32.891  1.00  0.00     0.205 C 
BRANCH  16  17
HETATM   17  C   UNL     1      -8.584   2.874 -31.561  1.00  0.00     0.032 C 
HETATM   18  C   UNL     1      -9.994   3.442 -31.646  1.00  0.00     0.007 C 
ENDBRANCH  16  17
BRANCH  16  19
HETATM   19  C   UNL     1      -7.432   4.293 -33.327  1.00  0.00     0.242 C 
HETATM   20  N   UNL     1      -6.562   4.959 -32.500  1.00  0.00    -0.359 N 
HETATM   21  H   UNL     1      -6.217   4.433 -31.700  1.00  0.00     0.162 HD
HETATM   22  O   UNL     1      -7.978   4.837 -34.286  1.00  0.00    -0.271 OA
BRANCH  20  23
HETATM   23  C   UNL     1      -6.132   6.325 -32.714  1.00  0.00     0.125 C 
BRANCH  23  24
HETATM   24  C   UNL     1      -4.714   6.566 -32.203  1.00  0.00     0.046 C 
BRANCH  24  25
HETATM   25  C   UNL     1      -3.926   5.266 -32.083  1.00  0.00     0.169 C 
BRANCH  25  26
HETATM   26  O   UNL     1      -3.643   4.763 -33.384  1.00  0.00    -0.387 OA
BRANCH  26  27
HETATM   27  C   UNL     1      -2.265   4.450 -33.606  1.00  0.00     0.113 C 
HETATM   28  C   UNL     1      -1.721   5.194 -34.821  1.00  0.00     0.039 C 
HETATM   29  C   UNL     1      -1.513   4.874 -32.348  1.00  0.00     0.039 C 
ENDBRANCH  26  27
ENDBRANCH  25  26
ENDBRANCH  24  25
ENDBRANCH  23  24
ENDBRANCH  20  23
ENDBRANCH  16  19
ENDBRANCH   1  16
TORSDOF 8
ENDMDL
MODEL 4
REMARK VINA RESULT:      -7.6      2.311      3.223
REMARK  8 active torsions:
REMARK  status: ('A' for Active; 'I' for Inactive)
REMARK    1  A    between atoms: C_2  and  C_3 
REMARK    2  A    between atoms: C_3  and  N_4 
REMARK    3  A    between atoms: C_3  and  C_19 
REMARK       I    between atoms: C_19  and  N_20 
REMARK    4  A    between atoms: N_20  and  C_21 
REMARK    5  A    between atoms: C_21  and  C_22 
REMARK    6  A    between atoms: C_22  and  C_23 
REMARK    7  A    between atoms: C_23  and  O_24 
REMARK    8  A    between atoms: O_24  and  C_25 
ROOT
HETATM    1  N   UNL     1      -5.180   1.571 -32.565  1.00  0.00    -0.220 N 
HETATM    2  N   UNL     1      -6.102   1.636 -33.622  1.00  0.00    -0.172 NA
HETATM    3  C   UNL     1      -6.354   0.564 -34.321  1.00  0.00     0.069 A 
HETATM    4  C   UNL     1      -7.364   0.659 -35.434  1.00  0.00     0.074 C 
HETATM    5  C   UNL     1      -5.681  -0.671 -34.027  1.00  0.00     0.048 A 
HETATM    6  C   UNL     1      -4.743  -0.766 -33.031  1.00  0.00     0.064 A 
HETATM    7  C   UNL     1      -4.427   0.417 -32.242  1.00  0.00     0.277 A 
HETATM    8  O   UNL     1      -3.564   0.398 -31.368  1.00  0.00    -0.266 OA
HETATM    9  S   UNL     1      -5.938  -2.127 -34.840  1.00  0.00    -0.086 SA
HETATM   10  C   UNL     1      -4.771  -2.951 -33.876  1.00  0.00     0.017 A 
HETATM   11  C   UNL     1      -4.192  -2.094 -32.931  1.00  0.00    -0.002 A 
HETATM   12  C   UNL     1      -4.401  -4.307 -33.974  1.00  0.00     0.020 A 
HETATM   13  C   UNL     1      -3.428  -4.808 -33.109  1.00  0.00     0.001 A 
HETATM   14  C   UNL     1      -2.834  -3.983 -32.165  1.00  0.00     0.001 A 
HETATM   15  C   UNL     1      -3.206  -2.640 -32.069  1.00  0.00     0.014 A 
ENDROOT
BRANCH   1  16
HETATM   16  C   UNL     1      -4.873   2.820 -31.829  1.00  0.00     0.205 C 
BRANCH  16  17
HETATM   17  C   UNL     1      -5.141   2.682 -30.319  1.00  0.00     0.032 C 
HETATM   18  C   UNL     1      -6.570   2.984 -29.890  1.00  0.00     0.007 C 
ENDBRANCH  16  17
BRANCH  16  19
HETATM   19  C   UNL     1      -3.498   3.479 -32.087  1.00  0.00     0.242 C 
HETATM   20  N   UNL     1      -3.383   4.179 -33.261  1.00  0.00    -0.359 N 
HETATM   21  H   UNL     1      -4.224   4.231 -33.833  1.00  0.00     0.162 HD
HETATM   22  O   UNL     1      -2.541   3.279 -31.341  1.00  0.00    -0.271 OA
BRANCH  20  23
HETATM   23  C   UNL     1      -2.163   4.823 -33.701  1.00  0.00     0.125 C 
BRANCH  23  24
HETATM   24  C   UNL     1      -2.238   6.342 -33.572  1.00  0.00     0.046 C 
BRANCH  24  25
HETATM   25  C   UNL     1      -0.914   6.937 -33.103  1.00  0.00     0.169 C 
BRANCH  25  26
HETATM   26  O   UNL     1      -0.941   7.091 -31.687  1.00  0.00    -0.387 OA
BRANCH  26  27
HETATM   27  C   UNL     1       0.296   6.783 -31.040  1.00  0.00     0.113 C 
HETATM   28  C   UNL     1       0.291   7.258 -29.591  1.00  0.00     0.039 C 
HETATM   29  C   UNL     1       0.454   5.267 -31.096  1.00  0.00     0.039 C 
ENDBRANCH  26  27
ENDBRANCH  25  26
ENDBRANCH  24  25
ENDBRANCH  23  24
ENDBRANCH  20  23
ENDBRANCH  16  19
ENDBRANCH   1  16
TORSDOF 8
ENDMDL
MODEL 5
REMARK VINA RESULT:      -7.5      3.238      5.916
REMARK  8 active torsions:
REMARK  status: ('A' for Active; 'I' for Inactive)
REMARK    1  A    between atoms: C_2  and  C_3 
REMARK    2  A    between atoms: C_3  and  N_4 
REMARK    3  A    between atoms: C_3  and  C_19 
REMARK       I    between atoms: C_19  and  N_20 
REMARK    4  A    between atoms: N_20  and  C_21 
REMARK    5  A    between atoms: C_21  and  C_22 
REMARK    6  A    between atoms: C_22  and  C_23 
REMARK    7  A    between atoms: C_23  and  O_24 
REMARK    8  A    between atoms: O_24  and  C_25 
ROOT
HETATM    1  N   UNL     1      -8.114   1.669 -33.040  1.00  0.00    -0.220 N 
HETATM    2  N   UNL     1      -8.074   3.010 -33.452  1.00  0.00    -0.172 NA
HETATM    3  C   UNL     1      -9.172   3.594 -33.847  1.00  0.00     0.069 A 
HETATM    4  C   UNL     1      -9.101   5.040 -34.261  1.00  0.00     0.074 C 
HETATM    5  C   UNL     1     -10.411   2.868 -33.878  1.00  0.00     0.048 A 
HETATM    6  C   UNL     1     -10.485   1.545 -33.525  1.00  0.00     0.064 A 
HETATM    7  C   UNL     1      -9.273   0.859 -33.095  1.00  0.00     0.277 A 
HETATM    8  O   UNL     1      -9.276  -0.336 -32.809  1.00  0.00    -0.266 OA
HETATM    9  S   UNL     1     -11.898   3.516 -34.344  1.00  0.00    -0.086 SA
HETATM   10  C   UNL     1     -12.708   2.016 -34.094  1.00  0.00     0.017 A 
HETATM   11  C   UNL     1     -11.823   1.024 -33.651  1.00  0.00    -0.002 A 
HETATM   12  C   UNL     1     -14.078   1.754 -34.292  1.00  0.00     0.020 A 
HETATM   13  C   UNL     1     -14.565   0.470 -34.043  1.00  0.00     0.001 A 
HETATM   14  C   UNL     1     -13.713  -0.533 -33.607  1.00  0.00     0.001 A 
HETATM   15  C   UNL     1     -12.355  -0.268 -33.409  1.00  0.00     0.014 A 
ENDROOT
BRANCH   1  16
HETATM   16  C   UNL     1      -6.840   1.019 -32.654  1.00  0.00     0.205 C 
BRANCH  16  17
HETATM   17  C   UNL     1      -6.062   0.498 -33.877  1.00  0.00     0.032 C 
HETATM   18  C   UNL     1      -5.905  -1.015 -33.943  1.00  0.00     0.007 C 
ENDBRANCH  16  17
BRANCH  16  19
HETATM   19  C   UNL     1      -5.906   1.794 -31.697  1.00  0.00     0.242 C 
HETATM   20  N   UNL     1      -5.298   2.904 -32.226  1.00  0.00    -0.359 N 
HETATM   21  H   UNL     1      -5.548   3.134 -33.186  1.00  0.00     0.162 HD
HETATM   22  O   UNL     1      -5.637   1.366 -30.575  1.00  0.00    -0.271 OA
BRANCH  20  23
HETATM   23  C   UNL     1      -4.353   3.729 -31.503  1.00  0.00     0.125 C 
BRANCH  23  24
HETATM   24  C   UNL     1      -2.913   3.467 -31.937  1.00  0.00     0.046 C 
BRANCH  24  25
HETATM   25  C   UNL     1      -2.243   4.729 -32.469  1.00  0.00     0.169 C 
BRANCH  25  26
HETATM   26  O   UNL     1      -1.819   4.509 -33.811  1.00  0.00    -0.387 OA
BRANCH  26  27
HETATM   27  C   UNL     1      -2.261   5.505 -34.736  1.00  0.00     0.113 C 
HETATM   28  C   UNL     1      -3.721   5.289 -35.120  1.00  0.00     0.039 C 
HETATM   29  C   UNL     1      -2.093   6.853 -34.042  1.00  0.00     0.039 C 
ENDBRANCH  26  27
ENDBRANCH  25  26
ENDBRANCH  24  25
ENDBRANCH  23  24
ENDBRANCH  20  23
ENDBRANCH  16  19
ENDBRANCH   1  16
TORSDOF 8
ENDMDL
MODEL 6
REMARK VINA RESULT:      -7.5      2.923      4.194
REMARK  8 active torsions:
REMARK  status: ('A' for Active; 'I' for Inactive)
REMARK    1  A    between atoms: C_2  and  C_3 
REMARK    2  A    between atoms: C_3  and  N_4 
REMARK    3  A    between atoms: C_3  and  C_19 
REMARK       I    between atoms: C_19  and  N_20 
REMARK    4  A    between atoms: N_20  and  C_21 
REMARK    5  A    between atoms: C_21  and  C_22 
REMARK    6  A    between atoms: C_22  and  C_23 
REMARK    7  A    between atoms: C_23  and  O_24 
REMARK    8  A    between atoms: O_24  and  C_25 
ROOT
HETATM    1  N   UNL     1      -5.175   2.757 -32.328  1.00  0.00    -0.220 N 
HETATM    2  N   UNL     1      -6.426   3.236 -32.749  1.00  0.00    -0.172 NA
HETATM    3  C   UNL     1      -7.235   2.441 -33.393  1.00  0.00     0.069 A 
HETATM    4  C   UNL     1      -8.578   2.976 -33.812  1.00  0.00     0.074 C 
HETATM    5  C   UNL     1      -6.845   1.089 -33.685  1.00  0.00     0.048 A 
HETATM    6  C   UNL     1      -5.616   0.596 -33.328  1.00  0.00     0.064 A 
HETATM    7  C   UNL     1      -4.683   1.464 -32.623  1.00  0.00     0.277 A 
HETATM    8  O   UNL     1      -3.554   1.087 -32.320  1.00  0.00    -0.266 OA
HETATM    9  S   UNL     1      -7.809  -0.041 -34.486  1.00  0.00    -0.086 SA
HETATM   10  C   UNL     1      -6.587  -1.252 -34.392  1.00  0.00     0.017 A 
HETATM   11  C   UNL     1      -5.442  -0.775 -33.741  1.00  0.00    -0.002 A 
HETATM   12  C   UNL     1      -6.665  -2.570 -34.886  1.00  0.00     0.020 A 
HETATM   13  C   UNL     1      -5.570  -3.420 -34.725  1.00  0.00     0.001 A 
HETATM   14  C   UNL     1      -4.421  -2.974 -34.087  1.00  0.00     0.001 A 
HETATM   15  C   UNL     1      -4.349  -1.668 -33.596  1.00  0.00     0.014 A 
ENDROOT
BRANCH   1  16
HETATM   16  C   UNL     1      -4.257   3.704 -31.652  1.00  0.00     0.205 C 
BRANCH  16  17
HETATM   17  C   UNL     1      -3.614   4.693 -32.642  1.00  0.00     0.032 C 
HETATM   18  C   UNL     1      -2.151   4.423 -32.963  1.00  0.00     0.007 C 
ENDBRANCH  16  17
BRANCH  16  19
HETATM   19  C   UNL     1      -4.788   4.443 -30.403  1.00  0.00     0.242 C 
HETATM   20  N   UNL     1      -4.230   5.671 -30.153  1.00  0.00    -0.359 N 
HETATM   21  H   UNL     1      -3.546   5.996 -30.834  1.00  0.00     0.162 HD
HETATM   22  O   UNL     1      -5.571   3.902 -29.622  1.00  0.00    -0.271 OA
BRANCH  20  23
HETATM   23  C   UNL     1      -4.561   6.490 -29.006  1.00  0.00     0.125 C 
BRANCH  23  24
HETATM   24  C   UNL     1      -3.598   7.663 -28.842  1.00  0.00     0.046 C 
BRANCH  24  25
HETATM   25  C   UNL     1      -2.149   7.197 -28.734  1.00  0.00     0.169 C 
BRANCH  25  26
HETATM   26  O   UNL     1      -1.678   6.818 -30.022  1.00  0.00    -0.387 OA
BRANCH  26  27
HETATM   27  C   UNL     1      -0.400   6.176 -30.014  1.00  0.00     0.113 C 
HETATM   28  C   UNL     1       0.485   6.699 -31.142  1.00  0.00     0.039 C 
HETATM   29  C   UNL     1       0.235   6.484 -28.661  1.00  0.00     0.039 C 
ENDBRANCH  26  27
ENDBRANCH  25  26
ENDBRANCH  24  25
ENDBRANCH  23  24
ENDBRANCH  20  23
ENDBRANCH  16  19
ENDBRANCH   1  16
TORSDOF 8
ENDMDL
MODEL 7
REMARK VINA RESULT:      -7.3      3.566      5.922
REMARK  8 active torsions:
REMARK  status: ('A' for Active; 'I' for Inactive)
REMARK    1  A    between atoms: C_2  and  C_3 
REMARK    2  A    between atoms: C_3  and  N_4 
REMARK    3  A    between atoms: C_3  and  C_19 
REMARK       I    between atoms: C_19  and  N_20 
REMARK    4  A    between atoms: N_20  and  C_21 
REMARK    5  A    between atoms: C_21  and  C_22 
REMARK    6  A    between atoms: C_22  and  C_23 
REMARK    7  A    between atoms: C_23  and  O_24 
REMARK    8  A    between atoms: O_24  and  C_25 
ROOT
HETATM    1  N   UNL     1      -3.417   5.610 -32.509  1.00  0.00    -0.220 N 
HETATM    2  N   UNL     1      -4.688   6.075 -32.882  1.00  0.00    -0.172 NA
HETATM    3  C   UNL     1      -5.702   5.253 -32.872  1.00  0.00     0.069 A 
HETATM    4  C   UNL     1      -7.057   5.786 -33.254  1.00  0.00     0.074 C 
HETATM    5  C   UNL     1      -5.518   3.878 -32.500  1.00  0.00     0.048 A 
HETATM    6  C   UNL     1      -4.286   3.374 -32.170  1.00  0.00     0.064 A 
HETATM    7  C   UNL     1      -3.131   4.262 -32.188  1.00  0.00     0.277 A 
HETATM    8  O   UNL     1      -1.999   3.853 -31.944  1.00  0.00    -0.266 OA
HETATM    9  S   UNL     1      -6.749   2.726 -32.424  1.00  0.00    -0.086 SA
HETATM   10  C   UNL     1      -5.653   1.485 -31.949  1.00  0.00     0.017 A 
HETATM   11  C   UNL     1      -4.342   1.969 -31.851  1.00  0.00    -0.002 A 
HETATM   12  C   UNL     1      -5.969   0.138 -31.679  1.00  0.00     0.020 A 
HETATM   13  C   UNL     1      -4.947  -0.736 -31.308  1.00  0.00     0.001 A 
HETATM   14  C   UNL     1      -3.638  -0.286 -31.206  1.00  0.00     0.001 A 
HETATM   15  C   UNL     1      -3.330   1.051 -31.472  1.00  0.00     0.014 A 
ENDROOT
BRANCH   1  16
HETATM   16  C   UNL     1      -2.278   6.554 -32.589  1.00  0.00     0.205 C 
BRANCH  16  17
HETATM   17  C   UNL     1      -1.848   6.821 -34.043  1.00  0.00     0.032 C 
HETATM   18  C   UNL     1      -1.228   5.629 -34.760  1.00  0.00     0.007 C 
ENDBRANCH  16  17
BRANCH  16  19
HETATM   19  C   UNL     1      -2.392   7.876 -31.796  1.00  0.00     0.242 C 
HETATM   20  N   UNL     1      -3.117   7.815 -30.633  1.00  0.00    -0.359 N 
HETATM   21  H   UNL     1      -3.480   6.897 -30.383  1.00  0.00     0.162 HD
HETATM   22  O   UNL     1      -1.961   8.936 -32.250  1.00  0.00    -0.271 OA
BRANCH  20  23
HETATM   23  C   UNL     1      -3.377   8.957 -29.783  1.00  0.00     0.125 C 
BRANCH  23  24
HETATM   24  C   UNL     1      -2.976   8.695 -28.333  1.00  0.00     0.046 C 
BRANCH  24  25
HETATM   25  C   UNL     1      -1.494   8.356 -28.207  1.00  0.00     0.169 C 
BRANCH  25  26
HETATM   26  O   UNL     1      -1.302   6.971 -28.473  1.00  0.00    -0.387 OA
BRANCH  26  27
HETATM   27  C   UNL     1       0.068   6.586 -28.619  1.00  0.00     0.113 C 
HETATM   28  C   UNL     1       0.297   5.864 -29.942  1.00  0.00     0.039 C 
HETATM   29  C   UNL     1       0.891   7.870 -28.569  1.00  0.00     0.039 C 
ENDBRANCH  26  27
ENDBRANCH  25  26
ENDBRANCH  24  25
ENDBRANCH  23  24
ENDBRANCH  20  23
ENDBRANCH  16  19
ENDBRANCH   1  16
TORSDOF 8
ENDMDL
MODEL 8
REMARK VINA RESULT:      -7.3      3.539      5.376
REMARK  8 active torsions:
REMARK  status: ('A' for Active; 'I' for Inactive)
REMARK    1  A    between atoms: C_2  and  C_3 
REMARK    2  A    between atoms: C_3  and  N_4 
REMARK    3  A    between atoms: C_3  and  C_19 
REMARK       I    between atoms: C_19  and  N_20 
REMARK    4  A    between atoms: N_20  and  C_21 
REMARK    5  A    between atoms: C_21  and  C_22 
REMARK    6  A    between atoms: C_22  and  C_23 
REMARK    7  A    between atoms: C_23  and  O_24 
REMARK    8  A    between atoms: O_24  and  C_25 
ROOT
HETATM    1  N   UNL     1      -6.837   4.155 -33.408  1.00  0.00    -0.220 N 
HETATM    2  N   UNL     1      -6.400   3.105 -32.584  1.00  0.00    -0.172 NA
HETATM    3  C   UNL     1      -7.185   2.085 -32.373  1.00  0.00     0.069 A 
HETATM    4  C   UNL     1      -6.680   0.964 -31.504  1.00  0.00     0.074 C 
HETATM    5  C   UNL     1      -8.494   2.041 -32.964  1.00  0.00     0.048 A 
HETATM    6  C   UNL     1      -8.974   3.064 -33.739  1.00  0.00     0.064 A 
HETATM    7  C   UNL     1      -8.129   4.226 -33.980  1.00  0.00     0.277 A 
HETATM    8  O   UNL     1      -8.526   5.189 -34.631  1.00  0.00    -0.266 OA
HETATM    9  S   UNL     1      -9.589   0.768 -32.788  1.00  0.00    -0.086 SA
HETATM   10  C   UNL     1     -10.774   1.564 -33.753  1.00  0.00     0.017 A 
HETATM   11  C   UNL     1     -10.314   2.807 -34.207  1.00  0.00    -0.002 A 
HETATM   12  C   UNL     1     -12.057   1.082 -34.082  1.00  0.00     0.020 A 
HETATM   13  C   UNL     1     -12.892   1.867 -34.877  1.00  0.00     0.001 A 
HETATM   14  C   UNL     1     -12.466   3.104 -35.338  1.00  0.00     0.001 A 
HETATM   15  C   UNL     1     -11.192   3.577 -35.013  1.00  0.00     0.014 A 
ENDROOT
BRANCH   1  16
HETATM   16  C   UNL     1      -5.945   5.326 -33.578  1.00  0.00     0.205 C 
BRANCH  16  17
HETATM   17  C   UNL     1      -5.848   6.171 -32.294  1.00  0.00     0.032 C 
HETATM   18  C   UNL     1      -6.987   7.159 -32.087  1.00  0.00     0.007 C 
ENDBRANCH  16  17
BRANCH  16  19
HETATM   19  C   UNL     1      -4.543   5.072 -34.178  1.00  0.00     0.242 C 
HETATM   20  N   UNL     1      -3.570   4.699 -33.285  1.00  0.00    -0.359 N 
HETATM   21  H   UNL     1      -3.872   4.588 -32.319  1.00  0.00     0.162 HD
HETATM   22  O   UNL     1      -4.298   5.311 -35.359  1.00  0.00    -0.271 OA
BRANCH  20  23
HETATM   23  C   UNL     1      -2.188   4.466 -33.647  1.00  0.00     0.125 C 
BRANCH  23  24
HETATM   24  C   UNL     1      -1.338   5.726 -33.502  1.00  0.00     0.046 C 
BRANCH  24  25
HETATM   25  C   UNL     1      -1.482   6.350 -32.117  1.00  0.00     0.169 C 
BRANCH  25  26
HETATM   26  O   UNL     1      -1.350   5.337 -31.126  1.00  0.00    -0.387 OA
BRANCH  26  27
HETATM   27  C   UNL     1      -0.284   5.559 -30.199  1.00  0.00     0.113 C 
HETATM   28  C   UNL     1       1.004   4.892 -30.672  1.00  0.00     0.039 C 
HETATM   29  C   UNL     1      -0.091   7.070 -30.107  1.00  0.00     0.039 C 
ENDBRANCH  26  27
ENDBRANCH  25  26
ENDBRANCH  24  25
ENDBRANCH  23  24
ENDBRANCH  20  23
ENDBRANCH  16  19
ENDBRANCH   1  16
TORSDOF 8
ENDMDL
MODEL 9
REMARK VINA RESULT:      -7.3      3.817      9.539
REMARK  8 active torsions:
REMARK  status: ('A' for Active; 'I' for Inactive)
REMARK    1  A    between atoms: C_2  and  C_3 
REMARK    2  A    between atoms: C_3  and  N_4 
REMARK    3  A    between atoms: C_3  and  C_19 
REMARK       I    between atoms: C_19  and  N_20 
REMARK    4  A    between atoms: N_20  and  C_21 
REMARK    5  A    between atoms: C_21  and  C_22 
REMARK    6  A    between atoms: C_22  and  C_23 
REMARK    7  A    between atoms: C_23  and  O_24 
REMARK    8  A    between atoms: O_24  and  C_25 
ROOT
HETATM    1  N   UNL     1      -2.039   5.486 -31.390  1.00  0.00    -0.220 N 
HETATM    2  N   UNL     1      -0.893   4.790 -30.975  1.00  0.00    -0.172 NA
HETATM    3  C   UNL     1      -0.116   5.314 -30.067  1.00  0.00     0.069 A 
HETATM    4  C   UNL     1       1.093   4.533 -29.626  1.00  0.00     0.074 C 
HETATM    5  C   UNL     1      -0.420   6.601 -29.507  1.00  0.00     0.048 A 
HETATM    6  C   UNL     1      -1.506   7.332 -29.915  1.00  0.00     0.064 A 
HETATM    7  C   UNL     1      -2.384   6.783 -30.940  1.00  0.00     0.277 A 
HETATM    8  O   UNL     1      -3.344   7.414 -31.373  1.00  0.00    -0.266 OA
HETATM    9  S   UNL     1       0.490   7.372 -28.312  1.00  0.00    -0.086 SA
HETATM   10  C   UNL     1      -0.553   8.744 -28.307  1.00  0.00     0.017 A 
HETATM   11  C   UNL     1      -1.598   8.597 -29.228  1.00  0.00    -0.002 A 
HETATM   12  C   UNL     1      -0.427   9.897 -27.506  1.00  0.00     0.020 A 
HETATM   13  C   UNL     1      -1.366  10.920 -27.638  1.00  0.00     0.001 A 
HETATM   14  C   UNL     1      -2.410  10.804 -28.544  1.00  0.00     0.001 A 
HETATM   15  C   UNL     1      -2.533   9.658 -29.334  1.00  0.00     0.014 A 
ENDROOT
BRANCH   1  16
HETATM   16  C   UNL     1      -2.867   4.890 -32.465  1.00  0.00     0.205 C 
BRANCH  16  17
HETATM   17  C   UNL     1      -2.021   4.474 -33.683  1.00  0.00     0.032 C 
HETATM   18  C   UNL     1      -1.525   5.627 -34.545  1.00  0.00     0.007 C 
ENDBRANCH  16  17
BRANCH  16  19
HETATM   19  C   UNL     1      -3.850   3.765 -32.067  1.00  0.00     0.242 C 
HETATM   20  N   UNL     1      -3.288   2.667 -31.467  1.00  0.00    -0.359 N 
HETATM   21  H   UNL     1      -2.283   2.712 -31.306  1.00  0.00     0.162 HD
HETATM   22  O   UNL     1      -5.038   3.809 -32.384  1.00  0.00    -0.271 OA
BRANCH  20  23
HETATM   23  C   UNL     1      -4.037   1.494 -31.069  1.00  0.00     0.125 C 
BRANCH  23  24
HETATM   24  C   UNL     1      -3.246   0.207 -31.291  1.00  0.00     0.046 C 
BRANCH  24  25
HETATM   25  C   UNL     1      -3.309  -0.253 -32.745  1.00  0.00     0.169 C 
BRANCH  25  26
HETATM   26  O   UNL     1      -4.569   0.109 -33.300  1.00  0.00    -0.387 OA
BRANCH  26  27
HETATM   27  C   UNL     1      -5.458  -0.992 -33.504  1.00  0.00     0.113 C 
HETATM   28  C   UNL     1      -6.499  -0.668 -34.570  1.00  0.00     0.039 C 
HETATM   29  C   UNL     1      -4.599  -2.173 -33.947  1.00  0.00     0.039 C 
ENDBRANCH  26  27
ENDBRANCH  25  26
ENDBRANCH  24  25
ENDBRANCH  23  24
ENDBRANCH  20  23
ENDBRANCH  16  19
ENDBRANCH   1  16
TORSDOF 8
ENDMDL
MODEL 10
REMARK VINA RESULT:      -7.2      2.359      3.521
REMARK  8 active torsions:
REMARK  status: ('A' for Active; 'I' for Inactive)
REMARK    1  A    between atoms: C_2  and  C_3 
REMARK    2  A    between atoms: C_3  and  N_4 
REMARK    3  A    between atoms: C_3  and  C_19 
REMARK       I    between atoms: C_19  and  N_20 
REMARK    4  A    between atoms: N_20  and  C_21 
REMARK    5  A    between atoms: C_21  and  C_22 
REMARK    6  A    between atoms: C_22  and  C_23 
REMARK    7  A    between atoms: C_23  and  O_24 
REMARK    8  A    between atoms: O_24  and  C_25 
ROOT
HETATM    1  N   UNL     1      -5.868   3.052 -32.358  1.00  0.00    -0.220 N 
HETATM    2  N   UNL     1      -7.117   3.375 -32.913  1.00  0.00    -0.172 NA
HETATM    3  C   UNL     1      -7.754   2.485 -33.622  1.00  0.00     0.069 A 
HETATM    4  C   UNL     1      -9.101   2.852 -34.186  1.00  0.00     0.074 C 
HETATM    5  C   UNL     1      -7.177   1.189 -33.850  1.00  0.00     0.048 A 
HETATM    6  C   UNL     1      -5.942   0.849 -33.361  1.00  0.00     0.064 A 
HETATM    7  C   UNL     1      -5.197   1.826 -32.579  1.00  0.00     0.277 A 
HETATM    8  O   UNL     1      -4.069   1.589 -32.155  1.00  0.00    -0.266 OA
HETATM    9  S   UNL     1      -7.911  -0.054 -34.726  1.00  0.00    -0.086 SA
HETATM   10  C   UNL     1      -6.569  -1.108 -34.486  1.00  0.00     0.017 A 
HETATM   11  C   UNL     1      -5.564  -0.493 -33.729  1.00  0.00    -0.002 A 
HETATM   12  C   UNL     1      -6.437  -2.428 -34.963  1.00  0.00     0.020 A 
HETATM   13  C   UNL     1      -5.272  -3.139 -34.675  1.00  0.00     0.001 A 
HETATM   14  C   UNL     1      -4.257  -2.555 -33.931  1.00  0.00     0.001 A 
HETATM   15  C   UNL     1      -4.393  -1.247 -33.458  1.00  0.00     0.014 A 
ENDROOT
BRANCH   1  16
HETATM   16  C   UNL     1      -5.145   4.106 -31.608  1.00  0.00     0.205 C 
BRANCH  16  17
HETATM   17  C   UNL     1      -5.199   3.874 -30.086  1.00  0.00     0.032 C 
HETATM   18  C   UNL     1      -6.060   4.865 -29.315  1.00  0.00     0.007 C 
ENDBRANCH  16  17
BRANCH  16  19
HETATM   19  C   UNL     1      -3.706   4.444 -32.062  1.00  0.00     0.242 C 
HETATM   20  N   UNL     1      -3.530   4.606 -33.414  1.00  0.00    -0.359 N 
HETATM   21  H   UNL     1      -4.369   4.526 -33.985  1.00  0.00     0.162 HD
HETATM   22  O   UNL     1      -2.766   4.443 -31.269  1.00  0.00    -0.271 OA
BRANCH  20  23
HETATM   23  C   UNL     1      -2.250   4.876 -34.033  1.00  0.00     0.125 C 
BRANCH  23  24
HETATM   24  C   UNL     1      -2.089   6.349 -34.397  1.00  0.00     0.046 C 
BRANCH  24  25
HETATM   25  C   UNL     1      -1.183   7.081 -33.411  1.00  0.00     0.169 C 
BRANCH  25  26
HETATM   26  O   UNL     1      -1.873   8.209 -32.883  1.00  0.00    -0.387 OA
BRANCH  26  27
HETATM   27  C   UNL     1      -2.171   8.113 -31.488  1.00  0.00     0.113 C 
HETATM   28  C   UNL     1      -1.025   7.459 -30.725  1.00  0.00     0.039 C 
HETATM   29  C   UNL     1      -2.390   9.538 -30.989  1.00  0.00     0.039 C 
ENDBRANCH  26  27
ENDBRANCH  25  26
ENDBRANCH  24  25
ENDBRANCH  23  24
ENDBRANCH  20  23
ENDBRANCH  16  19
ENDBRANCH   1  16
TORSDOF 8
ENDMDL
