MODEL 1
REMARK VINA RESULT:      -8.5      0.000      0.000
REMARK  3 active torsions:
REMARK  status: ('A' for Active; 'I' for Inactive)
REMARK       I    between atoms: C_2  and  N_3 
REMARK    1  A    between atoms: N_3  and  N_4 
REMARK       I    between atoms: N_4  and  C_5 
REMARK    2  A    between atoms: C_5  and  C_6 
REMARK    3  A    between atoms: C_11  and  C_12 
ROOT
HETATM    1  C   UNL     1      -6.047   0.555 -32.155  1.00  0.00     0.115 A 
HETATM    2  N   UNL     1      -4.901  -0.215 -32.195  1.00  0.00    -0.350 N 
HETATM    3  H   UNL     1      -4.039   0.016 -31.719  1.00  0.00     0.166 HD
HETATM    4  C   UNL     1      -5.055  -1.308 -33.010  1.00  0.00     0.044 A 
HETATM    5  C   UNL     1      -6.344  -1.245 -33.534  1.00  0.00     0.006 A 
HETATM    6  C   UNL     1      -6.961  -0.064 -33.003  1.00  0.00     0.019 A 
HETATM    7  C   UNL     1      -4.153  -2.332 -33.323  1.00  0.00     0.032 A 
HETATM    8  C   UNL     1      -4.589  -3.332 -34.197  1.00  0.00     0.026 A 
HETATM    9  C   UNL     1      -5.876  -3.300 -34.729  1.00  0.00     0.035 A 
HETATM   10 CL   UNL     1      -6.381  -4.549 -35.801  1.00  0.00    -0.084 Cl
HETATM   11  C   UNL     1      -6.764  -2.270 -34.408  1.00  0.00     0.038 A 
ENDROOT
BRANCH   1  12
HETATM   12  C   UNL     1      -6.151   1.787 -31.396  1.00  0.00     0.287 C 
HETATM   13  N   UNL     1      -7.070   1.738 -30.359  1.00  0.00    -0.262 N 
HETATM   14  H   UNL     1      -7.831   1.061 -30.358  1.00  0.00     0.190 HD
HETATM   15  O   UNL     1      -5.509   2.811 -31.618  1.00  0.00    -0.264 OA
BRANCH  13  16
HETATM   16  N   UNL     1      -7.340   2.927 -29.662  1.00  0.00    -0.268 N 
HETATM   17  C   UNL     1      -8.382   3.703 -30.119  1.00  0.00     0.232 C 
HETATM   18  C   UNL     1      -8.528   5.029 -29.427  1.00  0.00     0.119 C 
HETATM   19  O   UNL     1      -9.146   3.327 -31.006  1.00  0.00    -0.272 OA
HETATM   20  H   UNL     1      -6.566   3.308 -29.116  1.00  0.00     0.190 HD
ENDBRANCH  13  16
ENDBRANCH   1  12
BRANCH   6  21
HETATM   21  C   UNL     1      -8.305   0.427 -33.274  1.00  0.00    -0.023 A 
HETATM   22  C   UNL     1      -9.428  -0.219 -32.743  1.00  0.00     0.012 A 
HETATM   23  C   UNL     1     -10.712   0.243 -33.040  1.00  0.00     0.001 A 
HETATM   24  C   UNL     1     -10.882   1.346 -33.876  1.00  0.00     0.000 A 
HETATM   25  C   UNL     1      -9.770   1.991 -34.414  1.00  0.00     0.001 A 
HETATM   26  C   UNL     1      -8.485   1.533 -34.115  1.00  0.00     0.012 A 
ENDBRANCH   6  21
TORSDOF 3
ENDMDL
MODEL 2
REMARK VINA RESULT:      -8.4      1.874      2.656
REMARK  3 active torsions:
REMARK  status: ('A' for Active; 'I' for Inactive)
REMARK       I    between atoms: C_2  and  N_3 
REMARK    1  A    between atoms: N_3  and  N_4 
REMARK       I    between atoms: N_4  and  C_5 
REMARK    2  A    between atoms: C_5  and  C_6 
REMARK    3  A    between atoms: C_11  and  C_12 
ROOT
HETATM    1  C   UNL     1      -5.681   0.729 -32.712  1.00  0.00     0.115 A 
HETATM    2  N   UNL     1      -4.574  -0.093 -32.793  1.00  0.00    -0.350 N 
HETATM    3  H   UNL     1      -3.653   0.152 -32.455  1.00  0.00     0.166 HD
HETATM    4  C   UNL     1      -4.863  -1.267 -33.442  1.00  0.00     0.044 A 
HETATM    5  C   UNL     1      -6.204  -1.207 -33.812  1.00  0.00     0.006 A 
HETATM    6  C   UNL     1      -6.713   0.056 -33.362  1.00  0.00     0.019 A 
HETATM    7  C   UNL     1      -4.040  -2.362 -33.732  1.00  0.00     0.032 A 
HETATM    8  C   UNL     1      -4.613  -3.438 -34.417  1.00  0.00     0.026 A 
HETATM    9  C   UNL     1      -5.954  -3.409 -34.791  1.00  0.00     0.035 A 
HETATM   10 CL   UNL     1      -6.628  -4.752 -35.633  1.00  0.00    -0.084 Cl
HETATM   11  C   UNL     1      -6.762  -2.308 -34.496  1.00  0.00     0.038 A 
ENDROOT
BRANCH   1  12
HETATM   12  C   UNL     1      -5.651   2.045 -32.104  1.00  0.00     0.287 C 
HETATM   13  N   UNL     1      -4.758   2.924 -32.699  1.00  0.00    -0.262 N 
HETATM   14  H   UNL     1      -3.968   2.586 -33.246  1.00  0.00     0.190 HD
HETATM   15  O   UNL     1      -6.332   2.396 -31.143  1.00  0.00    -0.264 OA
BRANCH  13  16
HETATM   16  N   UNL     1      -4.559   4.173 -32.088  1.00  0.00    -0.268 N 
HETATM   17  C   UNL     1      -3.294   4.451 -31.620  1.00  0.00     0.232 C 
HETATM   18  C   UNL     1      -3.179   5.736 -30.849  1.00  0.00     0.119 C 
HETATM   19  O   UNL     1      -2.332   3.717 -31.839  1.00  0.00    -0.272 OA
HETATM   20  H   UNL     1      -5.397   4.626 -31.720  1.00  0.00     0.190 HD
ENDBRANCH  13  16
ENDBRANCH   1  12
BRANCH   6  21
HETATM   21  C   UNL     1      -8.064   0.573 -33.529  1.00  0.00    -0.023 A 
HETATM   22  C   UNL     1      -8.301   1.746 -34.255  1.00  0.00     0.012 A 
HETATM   23  C   UNL     1      -9.599   2.248 -34.378  1.00  0.00     0.001 A 
HETATM   24  C   UNL     1     -10.665   1.587 -33.767  1.00  0.00     0.000 A 
HETATM   25  C   UNL     1     -10.436   0.422 -33.037  1.00  0.00     0.001 A 
HETATM   26  C   UNL     1      -9.140  -0.083 -32.917  1.00  0.00     0.012 A 
ENDBRANCH   6  21
TORSDOF 3
ENDMDL
MODEL 3
REMARK VINA RESULT:      -8.0      2.667      4.253
REMARK  3 active torsions:
REMARK  status: ('A' for Active; 'I' for Inactive)
REMARK       I    between atoms: C_2  and  N_3 
REMARK    1  A    between atoms: N_3  and  N_4 
REMARK       I    between atoms: N_4  and  C_5 
REMARK    2  A    between atoms: C_5  and  C_6 
REMARK    3  A    between atoms: C_11  and  C_12 
ROOT
HETATM    1  C   UNL     1      -7.308   0.350 -34.202  1.00  0.00     0.115 A 
HETATM    2  N   UNL     1      -7.345  -0.758 -35.027  1.00  0.00    -0.350 N 
HETATM    3  H   UNL     1      -8.014  -0.894 -35.773  1.00  0.00     0.166 HD
HETATM    4  C   UNL     1      -6.395  -1.683 -34.674  1.00  0.00     0.044 A 
HETATM    5  C   UNL     1      -5.720  -1.170 -33.569  1.00  0.00     0.006 A 
HETATM    6  C   UNL     1      -6.306   0.105 -33.267  1.00  0.00     0.019 A 
HETATM    7  C   UNL     1      -6.094  -2.926 -35.243  1.00  0.00     0.032 A 
HETATM    8  C   UNL     1      -5.059  -3.667 -34.665  1.00  0.00     0.026 A 
HETATM    9  C   UNL     1      -4.360  -3.175 -33.565  1.00  0.00     0.035 A 
HETATM   10 CL   UNL     1      -3.090  -4.113 -32.879  1.00  0.00    -0.084 Cl
HETATM   11  C   UNL     1      -4.674  -1.932 -33.008  1.00  0.00     0.038 A 
ENDROOT
BRANCH   1  12
HETATM   12  C   UNL     1      -8.224   1.467 -34.330  1.00  0.00     0.287 C 
HETATM   13  N   UNL     1      -9.513   1.106 -34.690  1.00  0.00    -0.262 N 
HETATM   14  H   UNL     1      -9.703   0.222 -35.160  1.00  0.00     0.190 HD
HETATM   15  O   UNL     1      -7.929   2.647 -34.153  1.00  0.00    -0.264 OA
BRANCH  13  16
HETATM   16  N   UNL     1     -10.429   2.132 -34.976  1.00  0.00    -0.268 N 
HETATM   17  C   UNL     1     -11.744   1.919 -34.626  1.00  0.00     0.232 C 
HETATM   18  C   UNL     1     -12.696   2.985 -35.088  1.00  0.00     0.119 C 
HETATM   19  O   UNL     1     -12.103   0.944 -33.967  1.00  0.00    -0.272 OA
HETATM   20  H   UNL     1     -10.151   2.783 -35.711  1.00  0.00     0.190 HD
ENDBRANCH  13  16
ENDBRANCH   1  12
BRANCH   6  21
HETATM   21  C   UNL     1      -5.938   1.011 -32.188  1.00  0.00    -0.023 A 
HETATM   22  C   UNL     1      -6.623   0.992 -30.968  1.00  0.00     0.012 A 
HETATM   23  C   UNL     1      -6.281   1.891 -29.955  1.00  0.00     0.001 A 
HETATM   24  C   UNL     1      -5.261   2.820 -30.160  1.00  0.00     0.000 A 
HETATM   25  C   UNL     1      -4.579   2.850 -31.375  1.00  0.00     0.001 A 
HETATM   26  C   UNL     1      -4.917   1.948 -32.387  1.00  0.00     0.012 A 
ENDBRANCH   6  21
TORSDOF 3
ENDMDL
MODEL 4
REMARK VINA RESULT:      -7.9      2.207      3.121
REMARK  3 active torsions:
REMARK  status: ('A' for Active; 'I' for Inactive)
REMARK       I    between atoms: C_2  and  N_3 
REMARK    1  A    between atoms: N_3  and  N_4 
REMARK       I    between atoms: N_4  and  C_5 
REMARK    2  A    between atoms: C_5  and  C_6 
REMARK    3  A    between atoms: C_11  and  C_12 
ROOT
HETATM    1  C   UNL     1      -8.626   2.062 -31.782  1.00  0.00     0.115 A 
HETATM    2  N   UNL     1      -7.347   1.688 -31.418  1.00  0.00    -0.350 N 
HETATM    3  H   UNL     1      -6.776   2.181 -30.746  1.00  0.00     0.166 HD
HETATM    4  C   UNL     1      -6.921   0.591 -32.125  1.00  0.00     0.044 A 
HETATM    5  C   UNL     1      -7.953   0.242 -32.993  1.00  0.00     0.006 A 
HETATM    6  C   UNL     1      -9.020   1.179 -32.784  1.00  0.00     0.019 A 
HETATM    7  C   UNL     1      -5.707  -0.104 -32.063  1.00  0.00     0.032 A 
HETATM    8  C   UNL     1      -5.548  -1.200 -32.915  1.00  0.00     0.026 A 
HETATM    9  C   UNL     1      -6.565  -1.578 -33.787  1.00  0.00     0.035 A 
HETATM   10 CL   UNL     1      -6.335  -2.934 -34.822  1.00  0.00    -0.084 Cl
HETATM   11  C   UNL     1      -7.771  -0.873 -33.838  1.00  0.00     0.038 A 
ENDROOT
BRANCH   1  12
HETATM   12  C   UNL     1      -9.310   3.209 -31.216  1.00  0.00     0.287 C 
HETATM   13  N   UNL     1     -10.481   2.895 -30.542  1.00  0.00    -0.262 N 
HETATM   14  H   UNL     1     -10.985   2.030 -30.732  1.00  0.00     0.190 HD
HETATM   15  O   UNL     1      -8.930   4.374 -31.305  1.00  0.00    -0.264 OA
BRANCH  13  16
HETATM   16  N   UNL     1     -11.282   3.955 -30.086  1.00  0.00    -0.268 N 
HETATM   17  C   UNL     1     -12.394   4.272 -30.834  1.00  0.00     0.232 C 
HETATM   18  C   UNL     1     -13.125   5.503 -30.378  1.00  0.00     0.119 C 
HETATM   19  O   UNL     1     -12.770   3.587 -31.783  1.00  0.00    -0.272 OA
HETATM   20  H   UNL     1     -10.822   4.624 -29.467  1.00  0.00     0.190 HD
ENDBRANCH  13  16
ENDBRANCH   1  12
BRANCH   6  21
HETATM   21  C   UNL     1     -10.303   1.222 -33.471  1.00  0.00    -0.023 A 
HETATM   22  C   UNL     1     -10.588   2.231 -34.398  1.00  0.00     0.012 A 
HETATM   23  C   UNL     1     -11.836   2.279 -35.024  1.00  0.00     0.001 A 
HETATM   24  C   UNL     1     -12.808   1.326 -34.720  1.00  0.00     0.000 A 
HETATM   25  C   UNL     1     -12.534   0.322 -33.793  1.00  0.00     0.001 A 
HETATM   26  C   UNL     1     -11.285   0.270 -33.170  1.00  0.00     0.012 A 
ENDBRANCH   6  21
TORSDOF 3
ENDMDL
MODEL 5
REMARK VINA RESULT:      -7.8      3.050      4.757
REMARK  3 active torsions:
REMARK  status: ('A' for Active; 'I' for Inactive)
REMARK       I    between atoms: C_2  and  N_3 
REMARK    1  A    between atoms: N_3  and  N_4 
REMARK       I    between atoms: N_4  and  C_5 
REMARK    2  A    between atoms: C_5  and  C_6 
REMARK    3  A    between atoms: C_11  and  C_12 
ROOT
HETATM    1  C   UNL     1      -8.654   0.807 -33.644  1.00  0.00     0.115 A 
HETATM    2  N   UNL     1      -8.264  -0.385 -34.221  1.00  0.00    -0.350 N 
HETATM    3  H   UNL     1      -8.854  -0.955 -34.813  1.00  0.00     0.166 HD
HETATM    4  C   UNL     1      -6.990  -0.735 -33.848  1.00  0.00     0.044 A 
HETATM    5  C   UNL     1      -6.534   0.257 -32.983  1.00  0.00     0.006 A 
HETATM    6  C   UNL     1      -7.589   1.220 -32.847  1.00  0.00     0.019 A 
HETATM    7  C   UNL     1      -6.222  -1.850 -34.204  1.00  0.00     0.032 A 
HETATM    8  C   UNL     1      -4.937  -1.948 -33.661  1.00  0.00     0.026 A 
HETATM    9  C   UNL     1      -4.451  -0.967 -32.802  1.00  0.00     0.035 A 
HETATM   10 CL   UNL     1      -2.864  -1.119 -32.153  1.00  0.00    -0.084 Cl
HETATM   11  C   UNL     1      -5.231   0.140 -32.454  1.00  0.00     0.038 A 
ENDROOT
BRANCH   1  12
HETATM   12  C   UNL     1      -9.965   1.395 -33.842  1.00  0.00     0.287 C 
HETATM   13  N   UNL     1     -10.991   0.723 -33.197  1.00  0.00    -0.262 N 
HETATM   14  H   UNL     1     -10.896  -0.254 -32.926  1.00  0.00     0.190 HD
HETATM   15  O   UNL     1     -10.197   2.395 -34.518  1.00  0.00    -0.264 OA
BRANCH  13  16
HETATM   16  N   UNL     1     -12.310   1.137 -33.449  1.00  0.00    -0.268 N 
HETATM   17  C   UNL     1     -13.263   0.154 -33.597  1.00  0.00     0.232 C 
HETATM   18  C   UNL     1     -14.619   0.652 -34.009  1.00  0.00     0.119 C 
HETATM   19  O   UNL     1     -13.025  -1.034 -33.385  1.00  0.00    -0.272 OA
HETATM   20  H   UNL     1     -12.413   2.072 -33.847  1.00  0.00     0.190 HD
ENDBRANCH  13  16
ENDBRANCH   1  12
BRANCH   6  21
HETATM   21  C   UNL     1      -7.580   2.429 -32.036  1.00  0.00    -0.023 A 
HETATM   22  C   UNL     1      -6.940   3.590 -32.483  1.00  0.00     0.012 A 
HETATM   23  C   UNL     1      -6.910   4.733 -31.679  1.00  0.00     0.001 A 
HETATM   24  C   UNL     1      -7.511   4.717 -30.421  1.00  0.00     0.000 A 
HETATM   25  C   UNL     1      -8.145   3.562 -29.965  1.00  0.00     0.001 A 
HETATM   26  C   UNL     1      -8.179   2.421 -30.770  1.00  0.00     0.012 A 
ENDBRANCH   6  21
TORSDOF 3
ENDMDL
MODEL 6
REMARK VINA RESULT:      -7.6      2.898      5.540
REMARK  3 active torsions:
REMARK  status: ('A' for Active; 'I' for Inactive)
REMARK       I    between atoms: C_2  and  N_3 
REMARK    1  A    between atoms: N_3  and  N_4 
REMARK       I    between atoms: N_4  and  C_5 
REMARK    2  A    between atoms: C_5  and  C_6 
REMARK    3  A    between atoms: C_11  and  C_12 
ROOT
HETATM    1  C   UNL     1      -7.803   3.052 -33.629  1.00  0.00     0.115 A 
HETATM    2  N   UNL     1      -8.954   3.811 -33.543  1.00  0.00    -0.350 N 
HETATM    3  H   UNL     1      -8.970   4.817 -33.449  1.00  0.00     0.166 HD
HETATM    4  C   UNL     1     -10.079   3.025 -33.545  1.00  0.00     0.044 A 
HETATM    5  C   UNL     1      -9.650   1.702 -33.620  1.00  0.00     0.006 A 
HETATM    6  C   UNL     1      -8.216   1.722 -33.661  1.00  0.00     0.019 A 
HETATM    7  C   UNL     1     -11.430   3.387 -33.477  1.00  0.00     0.032 A 
HETATM    8  C   UNL     1     -12.376   2.357 -33.497  1.00  0.00     0.026 A 
HETATM    9  C   UNL     1     -11.976   1.026 -33.581  1.00  0.00     0.035 A 
HETATM   10 CL   UNL     1     -13.168  -0.217 -33.604  1.00  0.00    -0.084 Cl
HETATM   11  C   UNL     1     -10.623   0.681 -33.646  1.00  0.00     0.038 A 
ENDROOT
BRANCH   1  12
HETATM   12  C   UNL     1      -6.471   3.624 -33.616  1.00  0.00     0.287 C 
HETATM   13  N   UNL     1      -5.852   3.592 -32.375  1.00  0.00    -0.262 N 
HETATM   14  H   UNL     1      -6.394   3.516 -31.516  1.00  0.00     0.190 HD
HETATM   15  O   UNL     1      -5.901   4.112 -34.589  1.00  0.00    -0.264 OA
BRANCH  13  16
HETATM   16  N   UNL     1      -4.620   4.251 -32.237  1.00  0.00    -0.268 N 
HETATM   17  C   UNL     1      -3.492   3.466 -32.145  1.00  0.00     0.232 C 
HETATM   18  C   UNL     1      -2.226   4.220 -31.852  1.00  0.00     0.119 C 
HETATM   19  O   UNL     1      -3.518   2.248 -32.314  1.00  0.00    -0.272 OA
HETATM   20  H   UNL     1      -4.663   5.202 -31.867  1.00  0.00     0.190 HD
ENDBRANCH  13  16
ENDBRANCH   1  12
BRANCH   6  21
HETATM   21  C   UNL     1      -7.320   0.577 -33.731  1.00  0.00    -0.023 A 
HETATM   22  C   UNL     1      -7.179  -0.155 -34.915  1.00  0.00     0.012 A 
HETATM   23  C   UNL     1      -6.341  -1.272 -34.957  1.00  0.00     0.001 A 
HETATM   24  C   UNL     1      -5.648  -1.669 -33.814  1.00  0.00     0.000 A 
HETATM   25  C   UNL     1      -5.787  -0.950 -32.629  1.00  0.00     0.001 A 
HETATM   26  C   UNL     1      -6.621   0.170 -32.586  1.00  0.00     0.012 A 
ENDBRANCH   6  21
TORSDOF 3
ENDMDL
MODEL 7
REMARK VINA RESULT:      -7.3      2.892      4.383
REMARK  3 active torsions:
REMARK  status: ('A' for Active; 'I' for Inactive)
REMARK       I    between atoms: C_2  and  N_3 
REMARK    1  A    between atoms: N_3  and  N_4 
REMARK       I    between atoms: N_4  and  C_5 
REMARK    2  A    between atoms: C_5  and  C_6 
REMARK    3  A    between atoms: C_11  and  C_12 
ROOT
HETATM    1  C   UNL     1      -8.182   0.262 -33.538  1.00  0.00     0.115 A 
HETATM    2  N   UNL     1      -7.681  -0.918 -34.051  1.00  0.00    -0.350 N 
HETATM    3  H   UNL     1      -8.210  -1.565 -34.621  1.00  0.00     0.166 HD
HETATM    4  C   UNL     1      -6.388  -1.136 -33.646  1.00  0.00     0.044 A 
HETATM    5  C   UNL     1      -6.033  -0.068 -32.827  1.00  0.00     0.006 A 
HETATM    6  C   UNL     1      -7.170   0.804 -32.751  1.00  0.00     0.019 A 
HETATM    7  C   UNL     1      -5.520  -2.196 -33.938  1.00  0.00     0.032 A 
HETATM    8  C   UNL     1      -4.240  -2.155 -33.377  1.00  0.00     0.026 A 
HETATM    9  C   UNL     1      -3.855  -1.094 -32.562  1.00  0.00     0.035 A 
HETATM   10 CL   UNL     1      -2.271  -1.075 -31.888  1.00  0.00    -0.084 Cl
HETATM   11  C   UNL     1      -4.733  -0.045 -32.279  1.00  0.00     0.038 A 
ENDROOT
BRANCH   1  12
HETATM   12  C   UNL     1      -9.536   0.723 -33.780  1.00  0.00     0.287 C 
HETATM   13  N   UNL     1      -9.663   1.554 -34.883  1.00  0.00    -0.262 N 
HETATM   14  H   UNL     1      -8.865   2.067 -35.254  1.00  0.00     0.190 HD
HETATM   15  O   UNL     1     -10.514   0.437 -33.094  1.00  0.00    -0.264 OA
BRANCH  13  16
HETATM   16  N   UNL     1     -10.910   2.161 -35.109  1.00  0.00    -0.268 N 
HETATM   17  C   UNL     1     -10.980   3.529 -34.966  1.00  0.00     0.232 C 
HETATM   18  C   UNL     1     -12.365   4.101 -35.075  1.00  0.00     0.119 C 
HETATM   19  O   UNL     1      -9.983   4.227 -34.787  1.00  0.00    -0.272 OA
HETATM   20  H   UNL     1     -11.724   1.553 -35.013  1.00  0.00     0.190 HD
ENDBRANCH  13  16
ENDBRANCH   1  12
BRANCH   6  21
HETATM   21  C   UNL     1      -7.278   2.048 -32.001  1.00  0.00    -0.023 A 
HETATM   22  C   UNL     1      -7.082   3.285 -32.626  1.00  0.00     0.012 A 
HETATM   23  C   UNL     1      -7.156   4.467 -31.885  1.00  0.00     0.001 A 
HETATM   24  C   UNL     1      -7.415   4.419 -30.516  1.00  0.00     0.000 A 
HETATM   25  C   UNL     1      -7.606   3.192 -29.885  1.00  0.00     0.001 A 
HETATM   26  C   UNL     1      -7.537   2.009 -30.624  1.00  0.00     0.012 A 
ENDBRANCH   6  21
TORSDOF 3
ENDMDL
MODEL 8
REMARK VINA RESULT:      -7.3     14.695     16.290
REMARK  3 active torsions:
REMARK  status: ('A' for Active; 'I' for Inactive)
REMARK       I    between atoms: C_2  and  N_3 
REMARK    1  A    between atoms: N_3  and  N_4 
REMARK       I    between atoms: N_4  and  C_5 
REMARK    2  A    between atoms: C_5  and  C_6 
REMARK    3  A    between atoms: C_11  and  C_12 
ROOT
HETATM    1  C   UNL     1      -3.850 -12.837 -38.678  1.00  0.00     0.115 A 
HETATM    2  N   UNL     1      -4.404 -12.271 -39.810  1.00  0.00    -0.350 N 
HETATM    3  H   UNL     1      -3.878 -11.782 -40.521  1.00  0.00     0.166 HD
HETATM    4  C   UNL     1      -5.769 -12.405 -39.824  1.00  0.00     0.044 A 
HETATM    5  C   UNL     1      -6.125 -13.071 -38.654  1.00  0.00     0.006 A 
HETATM    6  C   UNL     1      -4.915 -13.329 -37.928  1.00  0.00     0.019 A 
HETATM    7  C   UNL     1      -6.705 -11.983 -40.777  1.00  0.00     0.032 A 
HETATM    8  C   UNL     1      -8.052 -12.260 -40.525  1.00  0.00     0.026 A 
HETATM    9  C   UNL     1      -8.435 -12.931 -39.368  1.00  0.00     0.035 A 
HETATM   10 CL   UNL     1     -10.104 -13.257 -39.090  1.00  0.00    -0.084 Cl
HETATM   11  C   UNL     1      -7.490 -13.345 -38.426  1.00  0.00     0.038 A 
ENDROOT
BRANCH   1  12
HETATM   12  C   UNL     1      -2.428 -12.810 -38.390  1.00  0.00     0.287 C 
HETATM   13  N   UNL     1      -1.792 -14.030 -38.565  1.00  0.00    -0.262 N 
HETATM   14  H   UNL     1      -2.310 -14.906 -38.541  1.00  0.00     0.190 HD
HETATM   15  O   UNL     1      -1.801 -11.823 -38.015  1.00  0.00    -0.264 OA
BRANCH  13  16
HETATM   16  N   UNL     1      -0.446 -14.132 -38.174  1.00  0.00    -0.268 N 
HETATM   17  C   UNL     1       0.484 -14.356 -39.165  1.00  0.00     0.232 C 
HETATM   18  C   UNL     1       1.881 -14.602 -38.669  1.00  0.00     0.119 C 
HETATM   19  O   UNL     1       0.195 -14.332 -40.360  1.00  0.00    -0.272 OA
HETATM   20  H   UNL     1      -0.286 -14.385 -37.198  1.00  0.00     0.190 HD
ENDBRANCH  13  16
ENDBRANCH   1  12
BRANCH   6  21
HETATM   21  C   UNL     1      -4.784 -13.994 -36.639  1.00  0.00    -0.023 A 
HETATM   22  C   UNL     1      -4.465 -15.354 -36.560  1.00  0.00     0.012 A 
HETATM   23  C   UNL     1      -4.377 -15.986 -35.317  1.00  0.00     0.001 A 
HETATM   24  C   UNL     1      -4.618 -15.265 -34.148  1.00  0.00     0.000 A 
HETATM   25  C   UNL     1      -4.942 -13.911 -34.218  1.00  0.00     0.001 A 
HETATM   26  C   UNL     1      -5.026 -13.277 -35.460  1.00  0.00     0.012 A 
ENDBRANCH   6  21
TORSDOF 3
ENDMDL
MODEL 9
REMARK VINA RESULT:      -7.3      4.559      6.296
REMARK  3 active torsions:
REMARK  status: ('A' for Active; 'I' for Inactive)
REMARK       I    between atoms: C_2  and  N_3 
REMARK    1  A    between atoms: N_3  and  N_4 
REMARK       I    between atoms: N_4  and  C_5 
REMARK    2  A    between atoms: C_5  and  C_6 
REMARK    3  A    between atoms: C_11  and  C_12 
ROOT
HETATM    1  C   UNL     1      -4.791   4.386 -30.493  1.00  0.00     0.115 A 
HETATM    2  N   UNL     1      -5.419   3.465 -29.677  1.00  0.00    -0.350 N 
HETATM    3  H   UNL     1      -5.734   3.655 -28.735  1.00  0.00     0.166 HD
HETATM    4  C   UNL     1      -5.514   2.236 -30.282  1.00  0.00     0.044 A 
HETATM    5  C   UNL     1      -4.915   2.353 -31.534  1.00  0.00     0.006 A 
HETATM    6  C   UNL     1      -4.450   3.704 -31.658  1.00  0.00     0.019 A 
HETATM    7  C   UNL     1      -6.075   1.042 -29.812  1.00  0.00     0.032 A 
HETATM    8  C   UNL     1      -6.028  -0.069 -30.658  1.00  0.00     0.026 A 
HETATM    9  C   UNL     1      -5.444   0.020 -31.918  1.00  0.00     0.035 A 
HETATM   10 CL   UNL     1      -5.405  -1.370 -32.934  1.00  0.00    -0.084 Cl
HETATM   11  C   UNL     1      -4.887   1.218 -32.373  1.00  0.00     0.038 A 
ENDROOT
BRANCH   1  12
HETATM   12  C   UNL     1      -4.529   5.755 -30.092  1.00  0.00     0.287 C 
HETATM   13  N   UNL     1      -3.217   5.993 -29.712  1.00  0.00    -0.262 N 
HETATM   14  H   UNL     1      -2.610   5.236 -29.403  1.00  0.00     0.190 HD
HETATM   15  O   UNL     1      -5.364   6.657 -30.068  1.00  0.00    -0.264 OA
BRANCH  13  16
HETATM   16  N   UNL     1      -2.907   7.253 -29.173  1.00  0.00    -0.268 N 
HETATM   17  C   UNL     1      -1.617   7.449 -28.731  1.00  0.00     0.232 C 
HETATM   18  C   UNL     1      -1.386   8.760 -28.035  1.00  0.00     0.119 C 
HETATM   19  O   UNL     1      -0.722   6.625 -28.916  1.00  0.00    -0.272 OA
HETATM   20  H   UNL     1      -3.699   7.794 -28.825  1.00  0.00     0.190 HD
ENDBRANCH  13  16
ENDBRANCH   1  12
BRANCH   6  21
HETATM   21  C   UNL     1      -3.749   4.295 -32.790  1.00  0.00    -0.023 A 
HETATM   22  C   UNL     1      -4.451   4.749 -33.913  1.00  0.00     0.012 A 
HETATM   23  C   UNL     1      -3.762   5.282 -35.005  1.00  0.00     0.001 A 
HETATM   24  C   UNL     1      -2.370   5.355 -34.985  1.00  0.00     0.000 A 
HETATM   25  C   UNL     1      -1.663   4.899 -33.874  1.00  0.00     0.001 A 
HETATM   26  C   UNL     1      -2.351   4.370 -32.779  1.00  0.00     0.012 A 
ENDBRANCH   6  21
TORSDOF 3
ENDMDL
MODEL 10
REMARK VINA RESULT:      -7.3     14.597     15.873
REMARK  3 active torsions:
REMARK  status: ('A' for Active; 'I' for Inactive)
REMARK       I    between atoms: C_2  and  N_3 
REMARK    1  A    between atoms: N_3  and  N_4 
REMARK       I    between atoms: N_4  and  C_5 
REMARK    2  A    between atoms: C_5  and  C_6 
REMARK    3  A    between atoms: C_11  and  C_12 
ROOT
HETATM    1  C   UNL     1      -5.752 -13.747 -38.569  1.00  0.00     0.115 A 
HETATM    2  N   UNL     1      -4.419 -13.998 -38.833  1.00  0.00    -0.350 N 
HETATM    3  H   UNL     1      -3.688 -13.999 -38.134  1.00  0.00     0.166 HD
HETATM    4  C   UNL     1      -4.196 -14.191 -40.173  1.00  0.00     0.044 A 
HETATM    5  C   UNL     1      -5.424 -14.048 -40.813  1.00  0.00     0.006 A 
HETATM    6  C   UNL     1      -6.400 -13.756 -39.802  1.00  0.00     0.019 A 
HETATM    7  C   UNL     1      -3.007 -14.471 -40.856  1.00  0.00     0.032 A 
HETATM    8  C   UNL     1      -3.080 -14.618 -42.244  1.00  0.00     0.026 A 
HETATM    9  C   UNL     1      -4.296 -14.490 -42.910  1.00  0.00     0.035 A 
HETATM   10 CL   UNL     1      -4.349 -14.679 -44.621  1.00  0.00    -0.084 Cl
HETATM   11  C   UNL     1      -5.474 -14.209 -42.214  1.00  0.00     0.038 A 
ENDROOT
BRANCH   1  12
HETATM   12  C   UNL     1      -6.262 -13.476 -37.240  1.00  0.00     0.287 C 
HETATM   13  N   UNL     1      -5.299 -13.046 -36.339  1.00  0.00    -0.262 N 
HETATM   14  H   UNL     1      -4.311 -13.246 -36.486  1.00  0.00     0.190 HD
HETATM   15  O   UNL     1      -7.434 -13.606 -36.891  1.00  0.00    -0.264 OA
BRANCH  13  16
HETATM   16  N   UNL     1      -5.676 -12.896 -34.994  1.00  0.00    -0.268 N 
HETATM   17  C   UNL     1      -5.278 -13.879 -34.115  1.00  0.00     0.232 C 
HETATM   18  C   UNL     1      -5.834 -13.740 -32.726  1.00  0.00     0.119 C 
HETATM   19  O   UNL     1      -4.510 -14.784 -34.438  1.00  0.00    -0.272 OA
HETATM   20  H   UNL     1      -6.483 -12.295 -34.823  1.00  0.00     0.190 HD
ENDBRANCH  13  16
ENDBRANCH   1  12
BRANCH   6  21
HETATM   21  C   UNL     1      -7.823 -13.516 -39.993  1.00  0.00    -0.023 A 
HETATM   22  C   UNL     1      -8.321 -12.215 -40.128  1.00  0.00     0.012 A 
HETATM   23  C   UNL     1      -9.693 -11.998 -40.276  1.00  0.00     0.001 A 
HETATM   24  C   UNL     1     -10.575 -13.078 -40.279  1.00  0.00     0.000 A 
HETATM   25  C   UNL     1     -10.088 -14.376 -40.139  1.00  0.00     0.001 A 
HETATM   26  C   UNL     1      -8.716 -14.595 -39.995  1.00  0.00     0.012 A 
ENDBRANCH   6  21
TORSDOF 3
ENDMDL
