MODEL 1
REMARK VINA RESULT:      -9.3      0.000      0.000
REMARK  5 active torsions:
REMARK  status: ('A' for Active; 'I' for Inactive)
REMARK    1  A    between atoms: C_2  and  C_3 
REMARK    2  A    between atoms: C_7  and  N_8 
REMARK    3  A    between atoms: C_13  and  N_14 
REMARK       I    between atoms: N_14  and  C_15 
REMARK    4  A    between atoms: C_15  and  C_16 
REMARK       I    between atoms: C_16  and  N_17 
REMARK    5  A    between atoms: N_17  and  C_18 
ROOT
HETATM    1  N   UNL     1      -7.797   0.073 -32.787  1.00  0.00    -0.045 N 
HETATM    2  N   UNL     1      -9.086  -0.234 -33.139  1.00  0.00    -0.156 NA
HETATM    3  C   UNL     1      -9.732   0.938 -33.085  1.00  0.00     0.055 C 
HETATM    4  C   UNL     1     -11.165   1.032 -33.461  1.00  0.00     0.072 C 
HETATM    5  C   UNL     1      -8.897   1.984 -32.627  1.00  0.00     0.079 C 
HETATM    6  C   UNL     1      -7.702   1.378 -32.327  1.00  0.00     0.152 C 
ENDROOT
BRANCH   6   7
HETATM    7  N   UNL     1      -6.656   2.032 -31.705  1.00  0.00    -0.303 N 
HETATM    8  C   UNL     1      -5.733   2.850 -32.444  1.00  0.00     0.315 C 
HETATM    9  O   UNL     1      -5.762   2.946 -33.657  1.00  0.00    -0.262 OA
HETATM   10  H   UNL     1      -6.408   1.821 -30.742  1.00  0.00     0.171 HD
BRANCH   8  11
HETATM   11  C   UNL     1      -4.547   3.311 -31.580  1.00  0.00     0.310 C 
HETATM   12  N   UNL     1      -4.121   4.610 -31.800  1.00  0.00    -0.348 N 
HETATM   13  H   UNL     1      -4.660   5.187 -32.442  1.00  0.00     0.163 HD
HETATM   14  O   UNL     1      -3.965   2.462 -30.916  1.00  0.00    -0.262 OA
BRANCH  12  15
HETATM   15  C   UNL     1      -2.751   4.994 -31.484  1.00  0.00     0.085 C 
HETATM   16  C   UNL     1      -1.805   4.788 -32.682  1.00  0.00     0.034 C 
HETATM   17  C   UNL     1      -1.922   5.844 -33.806  1.00  0.00    -0.045 C 
HETATM   18  C   UNL     1      -3.234   5.710 -34.603  1.00  0.00     0.015 C 
HETATM   19  C   UNL     1      -0.765   5.619 -34.802  1.00  0.00     0.015 C 
HETATM   20  C   UNL     1      -1.796   7.254 -33.193  1.00  0.00     0.013 C 
HETATM   21  C   UNL     1      -2.772   7.509 -32.031  1.00  0.00    -0.016 C 
HETATM   22  C   UNL     1      -2.508   8.892 -31.428  1.00  0.00     0.010 C 
HETATM   23  C   UNL     1      -2.658   6.427 -30.945  1.00  0.00     0.029 C 
ENDBRANCH  12  15
ENDBRANCH   8  11
ENDBRANCH   6   7
BRANCH   1  24
HETATM   24  C   UNL     1      -6.760  -0.826 -33.085  1.00  0.00     0.732 A 
HETATM   25  N   UNL     1      -7.158  -1.779 -33.975  1.00  0.00    -0.152 N 
HETATM   26  C   UNL     1      -6.294  -2.714 -34.444  1.00  0.00     0.268 A 
HETATM   27  H   UNL     1      -8.107  -1.771 -34.337  1.00  0.00     0.188 HD
HETATM   28  C   UNL     1      -4.903  -2.628 -33.912  1.00  0.00     0.035 A 
HETATM   29  O   UNL     1      -6.638  -3.560 -35.260  1.00  0.00    -0.267 OA
HETATM   30  C   UNL     1      -4.633  -1.639 -33.032  1.00  0.00     0.061 A 
HETATM   31  N   UNL     1      -5.566  -0.716 -32.602  1.00  0.00    -0.067 NA
HETATM   32  C   UNL     1      -3.261  -1.402 -32.452  1.00  0.00     0.072 C 
BRANCH  28  33
HETATM   33  C   UNL     1      -3.946  -3.680 -34.407  1.00  0.00     0.042 C 
HETATM   34  C   UNL     1      -3.798  -4.826 -33.418  1.00  0.00     0.010 C 
ENDBRANCH  28  33
ENDBRANCH   1  24
TORSDOF 5
ENDMDL
MODEL 2
REMARK VINA RESULT:      -8.9      2.107      3.045
REMARK  5 active torsions:
REMARK  status: ('A' for Active; 'I' for Inactive)
REMARK    1  A    between atoms: C_2  and  C_3 
REMARK    2  A    between atoms: C_7  and  N_8 
REMARK    3  A    between atoms: C_13  and  N_14 
REMARK       I    between atoms: N_14  and  C_15 
REMARK    4  A    between atoms: C_15  and  C_16 
REMARK       I    between atoms: C_16  and  N_17 
REMARK    5  A    between atoms: N_17  and  C_18 
ROOT
HETATM    1  N   UNL     1      -7.299   2.276 -31.842  1.00  0.00    -0.045 N 
HETATM    2  N   UNL     1      -8.460   2.214 -31.116  1.00  0.00    -0.156 NA
HETATM    3  C   UNL     1      -8.817   3.494 -30.953  1.00  0.00     0.055 C 
HETATM    4  C   UNL     1     -10.078   3.847 -30.252  1.00  0.00     0.072 C 
HETATM    5  C   UNL     1      -7.862   4.385 -31.495  1.00  0.00     0.079 C 
HETATM    6  C   UNL     1      -6.844   3.581 -31.947  1.00  0.00     0.152 C 
ENDROOT
BRANCH   6   7
HETATM    7  N   UNL     1      -5.641   4.074 -32.417  1.00  0.00    -0.303 N 
HETATM    8  C   UNL     1      -5.557   4.798 -33.657  1.00  0.00     0.315 C 
HETATM    9  O   UNL     1      -6.510   4.945 -34.401  1.00  0.00    -0.262 OA
HETATM   10  H   UNL     1      -4.762   3.796 -31.991  1.00  0.00     0.171 HD
BRANCH   8  11
HETATM   11  C   UNL     1      -4.102   5.072 -34.070  1.00  0.00     0.310 C 
HETATM   12  N   UNL     1      -3.187   5.117 -33.032  1.00  0.00    -0.348 N 
HETATM   13  H   UNL     1      -3.516   4.887 -32.097  1.00  0.00     0.163 HD
HETATM   14  O   UNL     1      -3.895   5.407 -35.230  1.00  0.00    -0.262 OA
BRANCH  12  15
HETATM   15  C   UNL     1      -1.946   5.864 -33.181  1.00  0.00     0.085 C 
HETATM   16  C   UNL     1      -2.135   7.361 -32.870  1.00  0.00     0.034 C 
HETATM   17  C   UNL     1      -2.256   7.715 -31.369  1.00  0.00    -0.045 C 
HETATM   18  C   UNL     1      -3.593   7.247 -30.761  1.00  0.00     0.015 C 
HETATM   19  C   UNL     1      -2.212   9.251 -31.229  1.00  0.00     0.015 C 
HETATM   20  C   UNL     1      -1.063   7.102 -30.606  1.00  0.00     0.013 C 
HETATM   21  C   UNL     1      -0.886   5.594 -30.852  1.00  0.00    -0.016 C 
HETATM   22  C   UNL     1       0.372   5.097 -30.133  1.00  0.00     0.010 C 
HETATM   23  C   UNL     1      -0.803   5.267 -32.351  1.00  0.00     0.029 C 
ENDBRANCH  12  15
ENDBRANCH   8  11
ENDBRANCH   6   7
BRANCH   1  24
HETATM   24  C   UNL     1      -6.833   1.132 -32.511  1.00  0.00     0.732 A 
HETATM   25  N   UNL     1      -7.497   0.928 -33.684  1.00  0.00    -0.152 N 
HETATM   26  C   UNL     1      -7.164  -0.090 -34.518  1.00  0.00     0.268 A 
HETATM   27  H   UNL     1      -8.227   1.572 -33.973  1.00  0.00     0.188 HD
HETATM   28  C   UNL     1      -6.044  -0.959 -34.054  1.00  0.00     0.035 A 
HETATM   29  O   UNL     1      -7.741  -0.267 -35.583  1.00  0.00    -0.267 OA
HETATM   30  C   UNL     1      -5.468  -0.655 -32.871  1.00  0.00     0.061 A 
HETATM   31  N   UNL     1      -5.857   0.404 -32.076  1.00  0.00    -0.067 NA
HETATM   32  C   UNL     1      -4.295  -1.416 -32.304  1.00  0.00     0.072 C 
BRANCH  28  33
HETATM   33  C   UNL     1      -5.688  -2.108 -34.961  1.00  0.00     0.042 C 
HETATM   34  C   UNL     1      -6.565  -3.326 -34.708  1.00  0.00     0.010 C 
ENDBRANCH  28  33
ENDBRANCH   1  24
TORSDOF 5
ENDMDL
MODEL 3
REMARK VINA RESULT:      -8.8      1.322      2.329
REMARK  5 active torsions:
REMARK  status: ('A' for Active; 'I' for Inactive)
REMARK    1  A    between atoms: C_2  and  C_3 
REMARK    2  A    between atoms: C_7  and  N_8 
REMARK    3  A    between atoms: C_13  and  N_14 
REMARK       I    between atoms: N_14  and  C_15 
REMARK    4  A    between atoms: C_15  and  C_16 
REMARK       I    between atoms: C_16  and  N_17 
REMARK    5  A    between atoms: N_17  and  C_18 
ROOT
HETATM    1  N   UNL     1      -7.662   0.201 -33.569  1.00  0.00    -0.045 N 
HETATM    2  N   UNL     1      -8.928  -0.185 -33.210  1.00  0.00    -0.156 NA
HETATM    3  C   UNL     1      -9.710   0.820 -33.623  1.00  0.00     0.055 C 
HETATM    4  C   UNL     1     -11.185   0.748 -33.463  1.00  0.00     0.072 C 
HETATM    5  C   UNL     1      -8.961   1.885 -34.173  1.00  0.00     0.079 C 
HETATM    6  C   UNL     1      -7.647   1.515 -34.012  1.00  0.00     0.152 C 
ENDROOT
BRANCH   6   7
HETATM    7  N   UNL     1      -6.584   2.354 -34.288  1.00  0.00    -0.303 N 
HETATM    8  C   UNL     1      -5.921   3.095 -33.249  1.00  0.00     0.315 C 
HETATM    9  O   UNL     1      -6.304   3.097 -32.093  1.00  0.00    -0.262 OA
HETATM   10  H   UNL     1      -6.351   2.602 -35.245  1.00  0.00     0.171 HD
BRANCH   8  11
HETATM   11  C   UNL     1      -4.908   4.104 -33.814  1.00  0.00     0.310 C 
HETATM   12  N   UNL     1      -3.740   4.246 -33.084  1.00  0.00    -0.348 N 
HETATM   13  H   UNL     1      -3.597   3.627 -32.289  1.00  0.00     0.163 HD
HETATM   14  O   UNL     1      -5.276   4.823 -34.735  1.00  0.00    -0.262 OA
BRANCH  12  15
HETATM   15  C   UNL     1      -2.969   5.479 -33.169  1.00  0.00     0.085 C 
HETATM   16  C   UNL     1      -3.660   6.641 -32.429  1.00  0.00     0.034 C 
HETATM   17  C   UNL     1      -3.559   6.595 -30.886  1.00  0.00    -0.045 C 
HETATM   18  C   UNL     1      -4.420   5.472 -30.275  1.00  0.00     0.015 C 
HETATM   19  C   UNL     1      -4.097   7.929 -30.328  1.00  0.00     0.015 C 
HETATM   20  C   UNL     1      -2.080   6.435 -30.479  1.00  0.00     0.013 C 
HETATM   21  C   UNL     1      -1.380   5.245 -31.158  1.00  0.00    -0.016 C 
HETATM   22  C   UNL     1       0.101   5.224 -30.768  1.00  0.00     0.010 C 
HETATM   23  C   UNL     1      -1.525   5.297 -32.687  1.00  0.00     0.029 C 
ENDBRANCH  12  15
ENDBRANCH   8  11
ENDBRANCH   6   7
BRANCH   1  24
HETATM   24  C   UNL     1      -6.633  -0.753 -33.627  1.00  0.00     0.732 A 
HETATM   25  N   UNL     1      -6.977  -1.820 -34.401  1.00  0.00    -0.152 N 
HETATM   26  C   UNL     1      -6.104  -2.832 -34.641  1.00  0.00     0.268 A 
HETATM   27  H   UNL     1      -7.887  -1.849 -34.851  1.00  0.00     0.188 HD
HETATM   28  C   UNL     1      -4.767  -2.693 -33.995  1.00  0.00     0.035 A 
HETATM   29  O   UNL     1      -6.399  -3.784 -35.353  1.00  0.00    -0.267 OA
HETATM   30  C   UNL     1      -4.548  -1.588 -33.249  1.00  0.00     0.061 A 
HETATM   31  N   UNL     1      -5.486  -0.593 -33.053  1.00  0.00    -0.067 NA
HETATM   32  C   UNL     1      -3.229  -1.293 -32.579  1.00  0.00     0.072 C 
BRANCH  28  33
HETATM   33  C   UNL     1      -3.803  -3.826 -34.233  1.00  0.00     0.042 C 
HETATM   34  C   UNL     1      -3.879  -4.878 -33.136  1.00  0.00     0.010 C 
ENDBRANCH  28  33
ENDBRANCH   1  24
TORSDOF 5
ENDMDL
MODEL 4
REMARK VINA RESULT:      -8.7      2.217      3.383
REMARK  5 active torsions:
REMARK  status: ('A' for Active; 'I' for Inactive)
REMARK    1  A    between atoms: C_2  and  C_3 
REMARK    2  A    between atoms: C_7  and  N_8 
REMARK    3  A    between atoms: C_13  and  N_14 
REMARK       I    between atoms: N_14  and  C_15 
REMARK    4  A    between atoms: C_15  and  C_16 
REMARK       I    between atoms: C_16  and  N_17 
REMARK    5  A    between atoms: N_17  and  C_18 
ROOT
HETATM    1  N   UNL     1      -9.868   1.938 -33.045  1.00  0.00    -0.045 N 
HETATM    2  N   UNL     1     -11.096   1.450 -33.412  1.00  0.00    -0.156 NA
HETATM    3  C   UNL     1     -11.780   2.534 -33.800  1.00  0.00     0.055 C 
HETATM    4  C   UNL     1     -13.161   2.409 -34.332  1.00  0.00     0.072 C 
HETATM    5  C   UNL     1     -11.039   3.724 -33.616  1.00  0.00     0.079 C 
HETATM    6  C   UNL     1      -9.869   3.324 -33.018  1.00  0.00     0.152 C 
ENDROOT
BRANCH   6   7
HETATM    7  N   UNL     1      -8.925   4.209 -32.533  1.00  0.00    -0.303 N 
HETATM    8  C   UNL     1      -8.329   5.211 -33.375  1.00  0.00     0.315 C 
HETATM    9  O   UNL     1      -8.549   5.285 -34.570  1.00  0.00    -0.262 OA
HETATM   10  H   UNL     1      -8.502   4.071 -31.619  1.00  0.00     0.171 HD
BRANCH   8  11
HETATM   11  C   UNL     1      -7.172   5.943 -32.674  1.00  0.00     0.310 C 
HETATM   12  N   UNL     1      -5.929   5.792 -33.264  1.00  0.00    -0.348 N 
HETATM   13  H   UNL     1      -5.878   5.289 -34.147  1.00  0.00     0.163 HD
HETATM   14  O   UNL     1      -7.395   6.435 -31.575  1.00  0.00    -0.262 OA
BRANCH  12  15
HETATM   15  C   UNL     1      -4.718   5.951 -32.470  1.00  0.00     0.085 C 
HETATM   16  C   UNL     1      -4.478   4.747 -31.539  1.00  0.00     0.034 C 
HETATM   17  C   UNL     1      -3.946   3.471 -32.232  1.00  0.00    -0.045 C 
HETATM   18  C   UNL     1      -5.015   2.792 -33.112  1.00  0.00     0.015 C 
HETATM   19  C   UNL     1      -3.553   2.455 -31.139  1.00  0.00     0.015 C 
HETATM   20  C   UNL     1      -2.697   3.828 -33.064  1.00  0.00     0.013 C 
HETATM   21  C   UNL     1      -2.925   4.989 -34.047  1.00  0.00    -0.016 C 
HETATM   22  C   UNL     1      -1.611   5.333 -34.756  1.00  0.00     0.010 C 
HETATM   23  C   UNL     1      -3.485   6.233 -33.338  1.00  0.00     0.029 C 
ENDBRANCH  12  15
ENDBRANCH   8  11
ENDBRANCH   6   7
BRANCH   1  24
HETATM   24  C   UNL     1      -8.776   1.062 -32.932  1.00  0.00     0.732 A 
HETATM   25  N   UNL     1      -8.476   0.473 -34.124  1.00  0.00    -0.152 N 
HETATM   26  C   UNL     1      -7.416  -0.366 -34.253  1.00  0.00     0.268 A 
HETATM   27  H   UNL     1      -9.022   0.694 -34.952  1.00  0.00     0.188 HD
HETATM   28  C   UNL     1      -6.627  -0.597 -33.008  1.00  0.00     0.035 A 
HETATM   29  O   UNL     1      -7.127  -0.882 -35.324  1.00  0.00    -0.267 OA
HETATM   30  C   UNL     1      -7.027   0.044 -31.889  1.00  0.00     0.061 A 
HETATM   31  N   UNL     1      -8.116   0.890 -31.834  1.00  0.00    -0.067 NA
HETATM   32  C   UNL     1      -6.295  -0.058 -30.573  1.00  0.00     0.072 C 
BRANCH  28  33
HETATM   33  C   UNL     1      -5.466  -1.549 -33.137  1.00  0.00     0.042 C 
HETATM   34  C   UNL     1      -4.161  -0.821 -33.422  1.00  0.00     0.010 C 
ENDBRANCH  28  33
ENDBRANCH   1  24
TORSDOF 5
ENDMDL
MODEL 5
REMARK VINA RESULT:      -8.7      3.521      6.084
REMARK  5 active torsions:
REMARK  status: ('A' for Active; 'I' for Inactive)
REMARK    1  A    between atoms: C_2  and  C_3 
REMARK    2  A    between atoms: C_7  and  N_8 
REMARK    3  A    between atoms: C_13  and  N_14 
REMARK       I    between atoms: N_14  and  C_15 
REMARK    4  A    between atoms: C_15  and  C_16 
REMARK       I    between atoms: C_16  and  N_17 
REMARK    5  A    between atoms: N_17  and  C_18 
ROOT
HETATM    1  N   UNL     1      -4.922   2.798 -31.258  1.00  0.00    -0.045 N 
HETATM    2  N   UNL     1      -5.464   1.701 -31.877  1.00  0.00    -0.156 NA
HETATM    3  C   UNL     1      -6.573   1.441 -31.174  1.00  0.00     0.055 C 
HETATM    4  C   UNL     1      -7.484   0.338 -31.576  1.00  0.00     0.072 C 
HETATM    5  C   UNL     1      -6.714   2.304 -30.063  1.00  0.00     0.079 C 
HETATM    6  C   UNL     1      -5.581   3.080 -30.071  1.00  0.00     0.152 C 
ENDROOT
BRANCH   6   7
HETATM    7  N   UNL     1      -5.257   3.959 -29.055  1.00  0.00    -0.303 N 
HETATM    8  C   UNL     1      -5.597   5.355 -29.130  1.00  0.00     0.315 C 
HETATM    9  O   UNL     1      -6.106   5.858 -30.115  1.00  0.00    -0.262 OA
HETATM   10  H   UNL     1      -4.624   3.684 -28.309  1.00  0.00     0.171 HD
BRANCH   8  11
HETATM   11  C   UNL     1      -4.966   6.167 -27.987  1.00  0.00     0.310 C 
HETATM   12  N   UNL     1      -3.785   6.817 -28.301  1.00  0.00    -0.348 N 
HETATM   13  H   UNL     1      -3.466   6.786 -29.267  1.00  0.00     0.163 HD
HETATM   14  O   UNL     1      -5.439   6.030 -26.865  1.00  0.00    -0.262 OA
BRANCH  12  15
HETATM   15  C   UNL     1      -2.832   7.153 -27.251  1.00  0.00     0.085 C 
HETATM   16  C   UNL     1      -1.376   6.953 -27.712  1.00  0.00     0.034 C 
HETATM   17  C   UNL     1      -0.828   8.044 -28.662  1.00  0.00    -0.045 C 
HETATM   18  C   UNL     1      -1.459   7.971 -30.066  1.00  0.00     0.015 C 
HETATM   19  C   UNL     1       0.688   7.814 -28.838  1.00  0.00     0.015 C 
HETATM   20  C   UNL     1      -1.059   9.432 -28.029  1.00  0.00     0.013 C 
HETATM   21  C   UNL     1      -2.520   9.681 -27.613  1.00  0.00    -0.016 C 
HETATM   22  C   UNL     1      -2.633  11.039 -26.912  1.00  0.00     0.010 C 
HETATM   23  C   UNL     1      -3.049   8.566 -26.698  1.00  0.00     0.029 C 
ENDBRANCH  12  15
ENDBRANCH   8  11
ENDBRANCH   6   7
BRANCH   1  24
HETATM   24  C   UNL     1      -3.960   3.572 -31.928  1.00  0.00     0.732 A 
HETATM   25  N   UNL     1      -4.445   4.078 -33.097  1.00  0.00    -0.152 N 
HETATM   26  C   UNL     1      -3.699   4.904 -33.875  1.00  0.00     0.268 A 
HETATM   27  H   UNL     1      -5.399   3.877 -33.381  1.00  0.00     0.188 HD
HETATM   28  C   UNL     1      -2.329   5.201 -33.366  1.00  0.00     0.035 A 
HETATM   29  O   UNL     1      -4.135   5.379 -34.915  1.00  0.00    -0.267 OA
HETATM   30  C   UNL     1      -1.964   4.636 -32.194  1.00  0.00     0.061 A 
HETATM   31  N   UNL     1      -2.781   3.807 -31.452  1.00  0.00    -0.067 NA
HETATM   32  C   UNL     1      -0.630   4.888 -31.537  1.00  0.00     0.072 C 
BRANCH  28  33
HETATM   33  C   UNL     1      -1.485   6.094 -34.238  1.00  0.00     0.042 C 
HETATM   34  C   UNL     1      -1.573   7.552 -33.813  1.00  0.00     0.010 C 
ENDBRANCH  28  33
ENDBRANCH   1  24
TORSDOF 5
ENDMDL
MODEL 6
REMARK VINA RESULT:      -8.5      2.575      8.083
REMARK  5 active torsions:
REMARK  status: ('A' for Active; 'I' for Inactive)
REMARK    1  A    between atoms: C_2  and  C_3 
REMARK    2  A    between atoms: C_7  and  N_8 
REMARK    3  A    between atoms: C_13  and  N_14 
REMARK       I    between atoms: N_14  and  C_15 
REMARK    4  A    between atoms: C_15  and  C_16 
REMARK       I    between atoms: C_16  and  N_17 
REMARK    5  A    between atoms: N_17  and  C_18 
ROOT
HETATM    1  N   UNL     1      -4.468   6.312 -31.136  1.00  0.00    -0.045 N 
HETATM    2  N   UNL     1      -4.041   7.606 -30.985  1.00  0.00    -0.156 NA
HETATM    3  C   UNL     1      -2.715   7.539 -31.154  1.00  0.00     0.055 C 
HETATM    4  C   UNL     1      -1.882   8.769 -31.120  1.00  0.00     0.072 C 
HETATM    5  C   UNL     1      -2.268   6.209 -31.334  1.00  0.00     0.079 C 
HETATM    6  C   UNL     1      -3.395   5.436 -31.194  1.00  0.00     0.152 C 
ENDROOT
BRANCH   6   7
HETATM    7  N   UNL     1      -3.366   4.055 -31.153  1.00  0.00    -0.303 N 
HETATM    8  C   UNL     1      -3.504   3.262 -32.345  1.00  0.00     0.315 C 
HETATM    9  O   UNL     1      -3.738   3.748 -33.437  1.00  0.00    -0.262 OA
HETATM   10  H   UNL     1      -3.417   3.559 -30.268  1.00  0.00     0.171 HD
BRANCH   8  11
HETATM   11  C   UNL     1      -3.639   1.763 -32.032  1.00  0.00     0.310 C 
HETATM   12  N   UNL     1      -4.649   1.103 -32.709  1.00  0.00    -0.348 N 
HETATM   13  H   UNL     1      -5.168   1.621 -33.415  1.00  0.00     0.163 HD
HETATM   14  O   UNL     1      -2.986   1.318 -31.096  1.00  0.00    -0.262 OA
BRANCH  12  15
HETATM   15  C   UNL     1      -5.231  -0.112 -32.153  1.00  0.00     0.085 C 
HETATM   16  C   UNL     1      -6.749   0.029 -31.928  1.00  0.00     0.034 C 
HETATM   17  C   UNL     1      -7.617  -0.051 -33.207  1.00  0.00    -0.045 C 
HETATM   18  C   UNL     1      -7.463   1.197 -34.099  1.00  0.00     0.015 C 
HETATM   19  C   UNL     1      -9.098  -0.119 -32.781  1.00  0.00     0.015 C 
HETATM   20  C   UNL     1      -7.254  -1.330 -33.988  1.00  0.00     0.013 C 
HETATM   21  C   UNL     1      -5.749  -1.467 -34.278  1.00  0.00    -0.016 C 
HETATM   22  C   UNL     1      -5.476  -2.807 -34.969  1.00  0.00     0.010 C 
HETATM   23  C   UNL     1      -4.909  -1.351 -32.997  1.00  0.00     0.029 C 
ENDBRANCH  12  15
ENDBRANCH   8  11
ENDBRANCH   6   7
BRANCH   1  24
HETATM   24  C   UNL     1      -5.825   6.051 -31.388  1.00  0.00     0.732 A 
HETATM   25  N   UNL     1      -6.042   5.729 -32.695  1.00  0.00    -0.152 N 
HETATM   26  C   UNL     1      -7.276   5.381 -33.143  1.00  0.00     0.268 A 
HETATM   27  H   UNL     1      -5.265   5.700 -33.347  1.00  0.00     0.188 HD
HETATM   28  C   UNL     1      -8.357   5.390 -32.115  1.00  0.00     0.035 A 
HETATM   29  O   UNL     1      -7.476   5.070 -34.309  1.00  0.00    -0.267 OA
HETATM   30  C   UNL     1      -8.015   5.729 -30.853  1.00  0.00     0.061 A 
HETATM   31  N   UNL     1      -6.733   6.067 -30.468  1.00  0.00    -0.067 NA
HETATM   32  C   UNL     1      -8.993   5.732 -29.705  1.00  0.00     0.072 C 
BRANCH  28  33
HETATM   33  C   UNL     1      -9.734   5.033 -32.610  1.00  0.00     0.042 C 
HETATM   34  C   UNL     1      -9.995   3.536 -32.538  1.00  0.00     0.010 C 
ENDBRANCH  28  33
ENDBRANCH   1  24
TORSDOF 5
ENDMDL
MODEL 7
REMARK VINA RESULT:      -8.5      1.757      2.725
REMARK  5 active torsions:
REMARK  status: ('A' for Active; 'I' for Inactive)
REMARK    1  A    between atoms: C_2  and  C_3 
REMARK    2  A    between atoms: C_7  and  N_8 
REMARK    3  A    between atoms: C_13  and  N_14 
REMARK       I    between atoms: N_14  and  C_15 
REMARK    4  A    between atoms: C_15  and  C_16 
REMARK       I    between atoms: C_16  and  N_17 
REMARK    5  A    between atoms: N_17  and  C_18 
ROOT
HETATM    1  N   UNL     1      -6.304   1.055 -32.508  1.00  0.00    -0.045 N 
HETATM    2  N   UNL     1      -7.634   1.032 -32.174  1.00  0.00    -0.156 NA
HETATM    3  C   UNL     1      -8.034   2.301 -32.325  1.00  0.00     0.055 C 
HETATM    4  C   UNL     1      -9.455   2.678 -32.108  1.00  0.00     0.072 C 
HETATM    5  C   UNL     1      -6.966   3.158 -32.675  1.00  0.00     0.079 C 
HETATM    6  C   UNL     1      -5.850   2.356 -32.664  1.00  0.00     0.152 C 
ENDROOT
BRANCH   6   7
HETATM    7  N   UNL     1      -4.565   2.843 -32.810  1.00  0.00    -0.303 N 
HETATM    8  C   UNL     1      -3.792   3.279 -31.678  1.00  0.00     0.315 C 
HETATM    9  O   UNL     1      -4.245   3.327 -30.549  1.00  0.00    -0.262 OA
HETATM   10  H   UNL     1      -4.194   3.067 -33.729  1.00  0.00     0.171 HD
BRANCH   8  11
HETATM   11  C   UNL     1      -2.481   3.961 -32.101  1.00  0.00     0.310 C 
HETATM   12  N   UNL     1      -1.801   4.621 -31.091  1.00  0.00    -0.348 N 
HETATM   13  H   UNL     1      -2.161   4.541 -30.143  1.00  0.00     0.163 HD
HETATM   14  O   UNL     1      -2.237   4.029 -33.299  1.00  0.00    -0.262 OA
BRANCH  12  15
HETATM   15  C   UNL     1      -0.892   5.713 -31.413  1.00  0.00     0.085 C 
HETATM   16  C   UNL     1      -1.647   7.020 -31.718  1.00  0.00     0.034 C 
HETATM   17  C   UNL     1      -2.217   7.758 -30.484  1.00  0.00    -0.045 C 
HETATM   18  C   UNL     1      -3.413   7.015 -29.856  1.00  0.00     0.015 C 
HETATM   19  C   UNL     1      -2.734   9.137 -30.942  1.00  0.00     0.015 C 
HETATM   20  C   UNL     1      -1.092   7.958 -29.448  1.00  0.00     0.013 C 
HETATM   21  C   UNL     1      -0.357   6.657 -29.079  1.00  0.00    -0.016 C 
HETATM   22  C   UNL     1       0.798   6.968 -28.123  1.00  0.00     0.010 C 
HETATM   23  C   UNL     1       0.168   5.927 -30.326  1.00  0.00     0.029 C 
ENDBRANCH  12  15
ENDBRANCH   8  11
ENDBRANCH   6   7
BRANCH   1  24
HETATM   24  C   UNL     1      -5.643  -0.144 -32.819  1.00  0.00     0.732 A 
HETATM   25  N   UNL     1      -6.182  -0.748 -33.915  1.00  0.00    -0.152 N 
HETATM   26  C   UNL     1      -5.656  -1.891 -34.425  1.00  0.00     0.268 A 
HETATM   27  H   UNL     1      -6.966  -0.319 -34.398  1.00  0.00     0.188 HD
HETATM   28  C   UNL     1      -4.470  -2.431 -33.699  1.00  0.00     0.035 A 
HETATM   29  O   UNL     1      -6.121  -2.428 -35.422  1.00  0.00    -0.267 OA
HETATM   30  C   UNL     1      -4.031  -1.741 -32.623  1.00  0.00     0.061 A 
HETATM   31  N   UNL     1      -4.616  -0.578 -32.164  1.00  0.00    -0.067 NA
HETATM   32  C   UNL     1      -2.816  -2.143 -31.825  1.00  0.00     0.072 C 
BRANCH  28  33
HETATM   33  C   UNL     1      -3.898  -3.715 -34.242  1.00  0.00     0.042 C 
HETATM   34  C   UNL     1      -4.645  -4.935 -33.722  1.00  0.00     0.010 C 
ENDBRANCH  28  33
ENDBRANCH   1  24
TORSDOF 5
ENDMDL
MODEL 8
REMARK VINA RESULT:      -8.5      2.819      8.859
REMARK  5 active torsions:
REMARK  status: ('A' for Active; 'I' for Inactive)
REMARK    1  A    between atoms: C_2  and  C_3 
REMARK    2  A    between atoms: C_7  and  N_8 
REMARK    3  A    between atoms: C_13  and  N_14 
REMARK       I    between atoms: N_14  and  C_15 
REMARK    4  A    between atoms: C_15  and  C_16 
REMARK       I    between atoms: C_16  and  N_17 
REMARK    5  A    between atoms: N_17  and  C_18 
ROOT
HETATM    1  N   UNL     1      -4.088   6.896 -30.930  1.00  0.00    -0.045 N 
HETATM    2  N   UNL     1      -4.712   8.070 -31.265  1.00  0.00    -0.156 NA
HETATM    3  C   UNL     1      -5.998   7.729 -31.415  1.00  0.00     0.055 C 
HETATM    4  C   UNL     1      -7.023   8.758 -31.729  1.00  0.00     0.072 C 
HETATM    5  C   UNL     1      -6.202   6.339 -31.259  1.00  0.00     0.079 C 
HETATM    6  C   UNL     1      -4.945   5.816 -31.072  1.00  0.00     0.152 C 
ENDROOT
BRANCH   6   7
HETATM    7  N   UNL     1      -4.689   4.458 -31.028  1.00  0.00    -0.303 N 
HETATM    8  C   UNL     1      -3.934   3.800 -32.060  1.00  0.00     0.315 C 
HETATM    9  O   UNL     1      -3.554   4.372 -33.065  1.00  0.00    -0.262 OA
HETATM   10  H   UNL     1      -5.166   3.859 -30.360  1.00  0.00     0.171 HD
BRANCH   8  11
HETATM   11  C   UNL     1      -3.947   2.271 -31.902  1.00  0.00     0.310 C 
HETATM   12  N   UNL     1      -5.047   1.627 -32.440  1.00  0.00    -0.348 N 
HETATM   13  H   UNL     1      -5.716   2.184 -32.967  1.00  0.00     0.163 HD
HETATM   14  O   UNL     1      -3.103   1.769 -31.169  1.00  0.00    -0.262 OA
BRANCH  12  15
HETATM   15  C   UNL     1      -5.460   0.328 -31.925  1.00  0.00     0.085 C 
HETATM   16  C   UNL     1      -6.962   0.295 -31.583  1.00  0.00     0.034 C 
HETATM   17  C   UNL     1      -7.914   0.200 -32.798  1.00  0.00    -0.045 C 
HETATM   18  C   UNL     1      -7.956   1.507 -33.615  1.00  0.00     0.015 C 
HETATM   19  C   UNL     1      -9.343  -0.049 -32.273  1.00  0.00     0.015 C 
HETATM   20  C   UNL     1      -7.488  -0.987 -33.686  1.00  0.00     0.013 C 
HETATM   21  C   UNL     1      -6.004  -0.949 -34.093  1.00  0.00    -0.016 C 
HETATM   22  C   UNL     1      -5.653  -2.209 -34.889  1.00  0.00     0.010 C 
HETATM   23  C   UNL     1      -5.082  -0.820 -32.870  1.00  0.00     0.029 C 
ENDBRANCH  12  15
ENDBRANCH   8  11
ENDBRANCH   6   7
BRANCH   1  24
HETATM   24  C   UNL     1      -2.812   6.927 -30.343  1.00  0.00     0.732 A 
HETATM   25  N   UNL     1      -2.884   6.991 -28.983  1.00  0.00    -0.152 N 
HETATM   26  C   UNL     1      -1.765   6.971 -28.213  1.00  0.00     0.268 A 
HETATM   27  H   UNL     1      -3.788   7.008 -28.522  1.00  0.00     0.188 HD
HETATM   28  C   UNL     1      -0.476   6.887 -28.958  1.00  0.00     0.035 A 
HETATM   29  O   UNL     1      -1.822   7.006 -26.991  1.00  0.00    -0.267 OA
HETATM   30  C   UNL     1      -0.537   6.832 -30.306  1.00  0.00     0.061 A 
HETATM   31  N   UNL     1      -1.716   6.851 -31.024  1.00  0.00    -0.067 NA
HETATM   32  C   UNL     1       0.683   6.695 -31.183  1.00  0.00     0.072 C 
BRANCH  28  33
HETATM   33  C   UNL     1       0.771   6.893 -28.112  1.00  0.00     0.042 C 
HETATM   34  C   UNL     1       1.311   8.301 -27.904  1.00  0.00     0.010 C 
ENDBRANCH  28  33
ENDBRANCH   1  24
TORSDOF 5
ENDMDL
MODEL 9
REMARK VINA RESULT:      -8.5      2.305      4.787
REMARK  5 active torsions:
REMARK  status: ('A' for Active; 'I' for Inactive)
REMARK    1  A    between atoms: C_2  and  C_3 
REMARK    2  A    between atoms: C_7  and  N_8 
REMARK    3  A    between atoms: C_13  and  N_14 
REMARK       I    between atoms: N_14  and  C_15 
REMARK    4  A    between atoms: C_15  and  C_16 
REMARK       I    between atoms: C_16  and  N_17 
REMARK    5  A    between atoms: N_17  and  C_18 
ROOT
HETATM    1  N   UNL     1      -7.087  -0.422 -33.826  1.00  0.00    -0.045 N 
HETATM    2  N   UNL     1      -7.532  -1.516 -34.523  1.00  0.00    -0.156 NA
HETATM    3  C   UNL     1      -6.538  -2.407 -34.408  1.00  0.00     0.055 C 
HETATM    4  C   UNL     1      -6.668  -3.767 -34.992  1.00  0.00     0.072 C 
HETATM    5  C   UNL     1      -5.426  -1.876 -33.715  1.00  0.00     0.079 C 
HETATM    6  C   UNL     1      -5.757  -0.567 -33.463  1.00  0.00     0.152 C 
ENDROOT
BRANCH   6   7
HETATM    7  N   UNL     1      -4.871   0.349 -32.928  1.00  0.00    -0.303 N 
HETATM    8  C   UNL     1      -4.684   0.475 -31.508  1.00  0.00     0.315 C 
HETATM    9  O   UNL     1      -5.346  -0.147 -30.698  1.00  0.00    -0.262 OA
HETATM   10  H   UNL     1      -4.456   1.072 -33.509  1.00  0.00     0.171 HD
BRANCH   8  11
HETATM   11  C   UNL     1      -3.806   1.684 -31.144  1.00  0.00     0.310 C 
HETATM   12  N   UNL     1      -4.453   2.908 -31.139  1.00  0.00    -0.348 N 
HETATM   13  H   UNL     1      -5.459   2.916 -31.289  1.00  0.00     0.163 HD
HETATM   14  O   UNL     1      -2.596   1.506 -31.073  1.00  0.00    -0.262 OA
BRANCH  12  15
HETATM   15  C   UNL     1      -3.697   4.136 -31.345  1.00  0.00     0.085 C 
HETATM   16  C   UNL     1      -3.351   4.356 -32.830  1.00  0.00     0.034 C 
HETATM   17  C   UNL     1      -4.522   4.839 -33.717  1.00  0.00    -0.045 C 
HETATM   18  C   UNL     1      -5.574   3.737 -33.951  1.00  0.00     0.015 C 
HETATM   19  C   UNL     1      -3.955   5.220 -35.100  1.00  0.00     0.015 C 
HETATM   20  C   UNL     1      -5.167   6.084 -33.073  1.00  0.00     0.013 C 
HETATM   21  C   UNL     1      -5.577   5.873 -31.605  1.00  0.00    -0.016 C 
HETATM   22  C   UNL     1      -6.117   7.185 -31.026  1.00  0.00     0.010 C 
HETATM   23  C   UNL     1      -4.404   5.362 -30.754  1.00  0.00     0.029 C 
ENDBRANCH  12  15
ENDBRANCH   8  11
ENDBRANCH   6   7
BRANCH   1  24
HETATM   24  C   UNL     1      -8.002   0.564 -33.421  1.00  0.00     0.732 A 
HETATM   25  N   UNL     1      -9.110   0.580 -34.213  1.00  0.00    -0.152 N 
HETATM   26  C   UNL     1     -10.149   1.419 -33.961  1.00  0.00     0.268 A 
HETATM   27  H   UNL     1      -9.194  -0.075 -34.984  1.00  0.00     0.188 HD
HETATM   28  C   UNL     1      -9.979   2.312 -32.778  1.00  0.00     0.035 A 
HETATM   29  O   UNL     1     -11.157   1.424 -34.655  1.00  0.00    -0.267 OA
HETATM   30  C   UNL     1      -8.832   2.201 -32.073  1.00  0.00     0.061 A 
HETATM   31  N   UNL     1      -7.818   1.318 -32.387  1.00  0.00    -0.067 NA
HETATM   32  C   UNL     1      -8.548   3.005 -30.828  1.00  0.00     0.072 C 
BRANCH  28  33
HETATM   33  C   UNL     1     -11.115   3.264 -32.509  1.00  0.00     0.042 C 
HETATM   34  C   UNL     1     -10.914   4.601 -33.208  1.00  0.00     0.010 C 
ENDBRANCH  28  33
ENDBRANCH   1  24
TORSDOF 5
ENDMDL
MODEL 10
REMARK VINA RESULT:      -8.3      1.988      4.679
REMARK  5 active torsions:
REMARK  status: ('A' for Active; 'I' for Inactive)
REMARK    1  A    between atoms: C_2  and  C_3 
REMARK    2  A    between atoms: C_7  and  N_8 
REMARK    3  A    between atoms: C_13  and  N_14 
REMARK       I    between atoms: N_14  and  C_15 
REMARK    4  A    between atoms: C_15  and  C_16 
REMARK       I    between atoms: C_16  and  N_17 
REMARK    5  A    between atoms: N_17  and  C_18 
ROOT
HETATM    1  N   UNL     1      -7.096   0.161 -34.175  1.00  0.00    -0.045 N 
HETATM    2  N   UNL     1      -7.244  -1.002 -34.886  1.00  0.00    -0.156 NA
HETATM    3  C   UNL     1      -6.255  -1.788 -34.442  1.00  0.00     0.055 C 
HETATM    4  C   UNL     1      -6.113  -3.181 -34.939  1.00  0.00     0.072 C 
HETATM    5  C   UNL     1      -5.423  -1.123 -33.512  1.00  0.00     0.079 C 
HETATM    6  C   UNL     1      -5.911   0.160 -33.455  1.00  0.00     0.152 C 
ENDROOT
BRANCH   6   7
HETATM    7  N   UNL     1      -5.281   1.180 -32.768  1.00  0.00    -0.303 N 
HETATM    8  C   UNL     1      -5.750   1.623 -31.482  1.00  0.00     0.315 C 
HETATM    9  O   UNL     1      -6.766   1.194 -30.966  1.00  0.00    -0.262 OA
HETATM   10  H   UNL     1      -4.579   1.758 -33.221  1.00  0.00     0.171 HD
BRANCH   8  11
HETATM   11  C   UNL     1      -5.021   2.890 -31.005  1.00  0.00     0.310 C 
HETATM   12  N   UNL     1      -4.185   3.482 -31.937  1.00  0.00    -0.348 N 
HETATM   13  H   UNL     1      -4.174   3.098 -32.879  1.00  0.00     0.163 HD
HETATM   14  O   UNL     1      -5.085   3.167 -29.813  1.00  0.00    -0.262 OA
BRANCH  12  15
HETATM   15  C   UNL     1      -3.072   4.312 -31.498  1.00  0.00     0.085 C 
HETATM   16  C   UNL     1      -2.034   4.521 -32.617  1.00  0.00     0.034 C 
HETATM   17  C   UNL     1      -2.445   5.524 -33.721  1.00  0.00    -0.045 C 
HETATM   18  C   UNL     1      -3.562   4.972 -34.629  1.00  0.00     0.015 C 
HETATM   19  C   UNL     1      -1.219   5.779 -34.622  1.00  0.00     0.015 C 
HETATM   20  C   UNL     1      -2.878   6.851 -33.066  1.00  0.00     0.013 C 
HETATM   21  C   UNL     1      -3.958   6.679 -31.984  1.00  0.00    -0.016 C 
HETATM   22  C   UNL     1      -4.253   8.031 -31.327  1.00  0.00     0.010 C 
HETATM   23  C   UNL     1      -3.539   5.654 -30.919  1.00  0.00     0.029 C 
ENDBRANCH  12  15
ENDBRANCH   8  11
ENDBRANCH   6   7
BRANCH   1  24
HETATM   24  C   UNL     1      -8.160   1.076 -34.106  1.00  0.00     0.732 A 
HETATM   25  N   UNL     1      -9.353   0.447 -33.907  1.00  0.00    -0.152 N 
HETATM   26  C   UNL     1     -10.505   1.148 -33.751  1.00  0.00     0.268 A 
HETATM   27  H   UNL     1      -9.387  -0.564 -33.827  1.00  0.00     0.188 HD
HETATM   28  C   UNL     1     -10.368   2.632 -33.822  1.00  0.00     0.035 A 
HETATM   29  O   UNL     1     -11.577   0.592 -33.551  1.00  0.00    -0.267 OA
HETATM   30  C   UNL     1      -9.131   3.134 -34.025  1.00  0.00     0.061 A 
HETATM   31  N   UNL     1      -7.999   2.357 -34.171  1.00  0.00    -0.067 NA
HETATM   32  C   UNL     1      -8.838   4.613 -34.070  1.00  0.00     0.072 C 
BRANCH  28  33
HETATM   33  C   UNL     1     -11.647   3.415 -33.678  1.00  0.00     0.042 C 
HETATM   34  C   UNL     1     -12.318   3.661 -35.021  1.00  0.00     0.010 C 
ENDBRANCH  28  33
ENDBRANCH   1  24
TORSDOF 5
ENDMDL
