MODEL 1
REMARK VINA RESULT:      -7.9      0.000      0.000
REMARK  4 active torsions:
REMARK  status: ('A' for Active; 'I' for Inactive)
REMARK    1  A    between atoms: C_3  and  N_4 
REMARK       I    between atoms: N_4  and  C_5 
REMARK    2  A    between atoms: C_5  and  C_6 
REMARK    3  A    between atoms: C_7  and  C_8 
REMARK    4  A    between atoms: C_15  and  C_16 
ROOT
HETATM    1  C   UNL     1      -7.675   0.757 -35.025  1.00  0.00     0.003 A 
HETATM    2  C   UNL     1      -6.957   1.566 -34.142  1.00  0.00     0.029 A 
HETATM    3  C   UNL     1      -5.917   1.032 -33.386  1.00  0.00     0.035 A 
HETATM    4  C   UNL     1      -5.594  -0.326 -33.538  1.00  0.00     0.043 A 
HETATM    5  C   UNL     1      -6.312  -1.157 -34.416  1.00  0.00    -0.006 A 
HETATM    6  C   UNL     1      -7.359  -0.597 -35.156  1.00  0.00     0.014 A 
ENDROOT
BRANCH   3   7
HETATM    7  N   UNL     1      -5.169   1.774 -32.446  1.00  0.00    -0.324 N 
HETATM    8  C   UNL     1      -3.821   1.659 -32.178  1.00  0.00     0.245 C 
HETATM    9  O   UNL     1      -3.009   0.890 -32.672  1.00  0.00    -0.268 OA
HETATM   10  H   UNL     1      -5.676   2.476 -31.925  1.00  0.00     0.169 HD
BRANCH   8  11
HETATM   11  C   UNL     1      -3.368   2.717 -31.240  1.00  0.00     0.077 C 
HETATM   12  C   UNL     1      -3.094   3.983 -31.583  1.00  0.00     0.042 C 
BRANCH  12  13
HETATM   13  C   UNL     1      -3.081   4.460 -32.921  1.00  0.00     0.075 A 
HETATM   14  O   UNL     1      -4.212   4.675 -33.678  1.00  0.00    -0.323 OA
HETATM   15  C   UNL     1      -3.830   5.108 -34.903  1.00  0.00     0.142 A 
HETATM   16  C   UNL     1      -2.464   5.170 -34.986  1.00  0.00     0.027 A 
HETATM   17  C   UNL     1      -1.983   4.747 -33.724  1.00  0.00     0.039 A 
ENDBRANCH  12  13
ENDBRANCH   8  11
ENDBRANCH   3   7
BRANCH   5  18
HETATM   18  C   UNL     1      -5.979  -2.579 -34.525  1.00  0.00     0.061 A 
HETATM   19  N   UNL     1      -4.739  -3.103 -34.250  1.00  0.00    -0.278 N 
HETATM   20  H   UNL     1      -3.915  -2.609 -33.928  1.00  0.00     0.189 HD
HETATM   21  N   UNL     1      -4.647  -4.432 -34.427  1.00  0.00    -0.187 NA
HETATM   22  C   UNL     1      -5.872  -4.780 -34.819  1.00  0.00     0.141 A 
HETATM   23  C   UNL     1      -6.740  -3.676 -34.891  1.00  0.00     0.053 A 
ENDBRANCH   5  18
TORSDOF 4
ENDMDL
MODEL 2
REMARK VINA RESULT:      -7.7      4.088      6.741
REMARK  4 active torsions:
REMARK  status: ('A' for Active; 'I' for Inactive)
REMARK    1  A    between atoms: C_3  and  N_4 
REMARK       I    between atoms: N_4  and  C_5 
REMARK    2  A    between atoms: C_5  and  C_6 
REMARK    3  A    between atoms: C_7  and  C_8 
REMARK    4  A    between atoms: C_15  and  C_16 
ROOT
HETATM    1  C   UNL     1      -8.141   1.248 -31.642  1.00  0.00     0.003 A 
HETATM    2  C   UNL     1      -7.207   0.449 -32.304  1.00  0.00     0.029 A 
HETATM    3  C   UNL     1      -7.508  -0.105 -33.546  1.00  0.00     0.035 A 
HETATM    4  C   UNL     1      -8.759   0.166 -34.124  1.00  0.00     0.043 A 
HETATM    5  C   UNL     1      -9.714   0.961 -33.468  1.00  0.00    -0.006 A 
HETATM    6  C   UNL     1      -9.389   1.497 -32.217  1.00  0.00     0.014 A 
ENDROOT
BRANCH   3   7
HETATM    7  N   UNL     1      -6.634  -0.951 -34.261  1.00  0.00    -0.324 N 
HETATM    8  C   UNL     1      -6.728  -2.321 -34.398  1.00  0.00     0.245 C 
HETATM    9  O   UNL     1      -7.560  -3.078 -33.920  1.00  0.00    -0.268 OA
HETATM   10  H   UNL     1      -5.864  -0.501 -34.736  1.00  0.00     0.169 HD
BRANCH   8  11
HETATM   11  C   UNL     1      -5.715  -2.836 -35.353  1.00  0.00     0.077 C 
HETATM   12  C   UNL     1      -4.483  -3.246 -35.021  1.00  0.00     0.042 C 
BRANCH  12  13
HETATM   13  C   UNL     1      -3.930  -3.130 -33.718  1.00  0.00     0.075 A 
HETATM   14  O   UNL     1      -3.786  -1.939 -33.041  1.00  0.00    -0.323 OA
HETATM   15  C   UNL     1      -3.209  -2.196 -31.842  1.00  0.00     0.142 A 
HETATM   16  C   UNL     1      -2.949  -3.535 -31.712  1.00  0.00     0.027 A 
HETATM   17  C   UNL     1      -3.400  -4.132 -32.913  1.00  0.00     0.039 A 
ENDBRANCH  12  13
ENDBRANCH   8  11
ENDBRANCH   3   7
BRANCH   5  18
HETATM   18  C   UNL     1     -11.025   1.195 -34.078  1.00  0.00     0.061 A 
HETATM   19  N   UNL     1     -11.214   1.843 -35.276  1.00  0.00    -0.278 N 
HETATM   20  H   UNL     1     -10.505   2.222 -35.893  1.00  0.00     0.189 HD
HETATM   21  N   UNL     1     -12.500   1.960 -35.646  1.00  0.00    -0.187 NA
HETATM   22  C   UNL     1     -13.164   1.357 -34.660  1.00  0.00     0.141 A 
HETATM   23  C   UNL     1     -12.303   0.858 -33.667  1.00  0.00     0.053 A 
ENDBRANCH   5  18
TORSDOF 4
ENDMDL
MODEL 3
REMARK VINA RESULT:      -7.5      2.810      4.759
REMARK  4 active torsions:
REMARK  status: ('A' for Active; 'I' for Inactive)
REMARK    1  A    between atoms: C_3  and  N_4 
REMARK       I    between atoms: N_4  and  C_5 
REMARK    2  A    between atoms: C_5  and  C_6 
REMARK    3  A    between atoms: C_7  and  C_8 
REMARK    4  A    between atoms: C_15  and  C_16 
ROOT
HETATM    1  C   UNL     1      -3.084  -0.138 -32.907  1.00  0.00     0.003 A 
HETATM    2  C   UNL     1      -3.895   0.732 -32.176  1.00  0.00     0.029 A 
HETATM    3  C   UNL     1      -5.262   0.490 -32.059  1.00  0.00     0.035 A 
HETATM    4  C   UNL     1      -5.804  -0.649 -32.676  1.00  0.00     0.043 A 
HETATM    5  C   UNL     1      -5.004  -1.531 -33.422  1.00  0.00    -0.006 A 
HETATM    6  C   UNL     1      -3.636  -1.259 -33.531  1.00  0.00     0.014 A 
ENDROOT
BRANCH   3   7
HETATM    7  N   UNL     1      -6.154   1.341 -31.371  1.00  0.00    -0.324 N 
HETATM    8  C   UNL     1      -6.572   2.597 -31.757  1.00  0.00     0.245 C 
HETATM    9  O   UNL     1      -6.247   3.237 -32.747  1.00  0.00    -0.268 OA
HETATM   10  H   UNL     1      -6.539   0.980 -30.509  1.00  0.00     0.169 HD
BRANCH   8  11
HETATM   11  C   UNL     1      -7.632   3.111 -30.854  1.00  0.00     0.077 C 
HETATM   12  C   UNL     1      -8.905   2.691 -30.844  1.00  0.00     0.042 C 
BRANCH  12  13
HETATM   13  C   UNL     1      -9.448   1.776 -31.785  1.00  0.00     0.075 A 
HETATM   14  O   UNL     1      -9.236   0.416 -31.755  1.00  0.00    -0.323 OA
HETATM   15  C   UNL     1      -9.883  -0.142 -32.807  1.00  0.00     0.142 A 
HETATM   16  C   UNL     1     -10.509   0.824 -33.551  1.00  0.00     0.027 A 
HETATM   17  C   UNL     1     -10.224   2.051 -32.906  1.00  0.00     0.039 A 
ENDBRANCH  12  13
ENDBRANCH   8  11
ENDBRANCH   3   7
BRANCH   5  18
HETATM   18  C   UNL     1      -5.605  -2.690 -34.087  1.00  0.00     0.061 A 
HETATM   19  N   UNL     1      -4.940  -3.869 -34.330  1.00  0.00    -0.278 N 
HETATM   20  H   UNL     1      -3.987  -4.105 -34.081  1.00  0.00     0.189 HD
HETATM   21  N   UNL     1      -5.675  -4.798 -34.963  1.00  0.00    -0.187 NA
HETATM   22  C   UNL     1      -6.857  -4.205 -35.125  1.00  0.00     0.141 A 
HETATM   23  C   UNL     1      -6.874  -2.902 -34.596  1.00  0.00     0.053 A 
ENDBRANCH   5  18
TORSDOF 4
ENDMDL
MODEL 4
REMARK VINA RESULT:      -7.5      1.568      2.571
REMARK  4 active torsions:
REMARK  status: ('A' for Active; 'I' for Inactive)
REMARK    1  A    between atoms: C_3  and  N_4 
REMARK       I    between atoms: N_4  and  C_5 
REMARK    2  A    between atoms: C_5  and  C_6 
REMARK    3  A    between atoms: C_7  and  C_8 
REMARK    4  A    between atoms: C_15  and  C_16 
ROOT
HETATM    1  C   UNL     1      -3.223  -0.593 -32.207  1.00  0.00     0.003 A 
HETATM    2  C   UNL     1      -3.851   0.638 -32.402  1.00  0.00     0.029 A 
HETATM    3  C   UNL     1      -5.010   0.722 -33.171  1.00  0.00     0.035 A 
HETATM    4  C   UNL     1      -5.540  -0.452 -33.730  1.00  0.00     0.043 A 
HETATM    5  C   UNL     1      -4.916  -1.698 -33.550  1.00  0.00    -0.006 A 
HETATM    6  C   UNL     1      -3.747  -1.752 -32.781  1.00  0.00     0.014 A 
ENDROOT
BRANCH   3   7
HETATM    7  N   UNL     1      -5.683   1.932 -33.446  1.00  0.00    -0.324 N 
HETATM    8  C   UNL     1      -6.121   2.868 -32.532  1.00  0.00     0.245 C 
HETATM    9  O   UNL     1      -6.042   2.837 -31.313  1.00  0.00    -0.268 OA
HETATM   10  H   UNL     1      -5.846   2.141 -34.422  1.00  0.00     0.169 HD
BRANCH   8  11
HETATM   11  C   UNL     1      -6.642   4.080 -33.214  1.00  0.00     0.077 C 
HETATM   12  C   UNL     1      -5.904   4.931 -33.940  1.00  0.00     0.042 C 
BRANCH  12  13
HETATM   13  C   UNL     1      -4.491   4.857 -34.059  1.00  0.00     0.075 A 
HETATM   14  O   UNL     1      -3.652   4.407 -33.064  1.00  0.00    -0.323 OA
HETATM   15  C   UNL     1      -2.375   4.491 -33.509  1.00  0.00     0.142 A 
HETATM   16  C   UNL     1      -2.343   5.007 -34.778  1.00  0.00     0.027 A 
HETATM   17  C   UNL     1      -3.693   5.251 -35.128  1.00  0.00     0.039 A 
ENDBRANCH  12  13
ENDBRANCH   8  11
ENDBRANCH   3   7
BRANCH   5  18
HETATM   18  C   UNL     1      -5.470  -2.900 -34.178  1.00  0.00     0.061 A 
HETATM   19  N   UNL     1      -4.787  -4.085 -34.308  1.00  0.00    -0.278 N 
HETATM   20  H   UNL     1      -3.849  -4.298 -33.989  1.00  0.00     0.189 HD
HETATM   21  N   UNL     1      -5.478  -5.057 -34.927  1.00  0.00    -0.187 NA
HETATM   22  C   UNL     1      -6.651  -4.484 -35.195  1.00  0.00     0.141 A 
HETATM   23  C   UNL     1      -6.706  -3.152 -34.748  1.00  0.00     0.053 A 
ENDBRANCH   5  18
TORSDOF 4
ENDMDL
MODEL 5
REMARK VINA RESULT:      -7.4      3.153      7.761
REMARK  4 active torsions:
REMARK  status: ('A' for Active; 'I' for Inactive)
REMARK    1  A    between atoms: C_3  and  N_4 
REMARK       I    between atoms: N_4  and  C_5 
REMARK    2  A    between atoms: C_5  and  C_6 
REMARK    3  A    between atoms: C_7  and  C_8 
REMARK    4  A    between atoms: C_15  and  C_16 
ROOT
HETATM    1  C   UNL     1      -2.168   4.586 -33.801  1.00  0.00     0.003 A 
HETATM    2  C   UNL     1      -3.111   3.653 -33.366  1.00  0.00     0.029 A 
HETATM    3  C   UNL     1      -3.266   3.390 -32.007  1.00  0.00     0.035 A 
HETATM    4  C   UNL     1      -2.470   4.090 -31.085  1.00  0.00     0.043 A 
HETATM    5  C   UNL     1      -1.511   5.026 -31.506  1.00  0.00    -0.006 A 
HETATM    6  C   UNL     1      -1.369   5.263 -32.879  1.00  0.00     0.014 A 
ENDROOT
BRANCH   3   7
HETATM    7  N   UNL     1      -4.169   2.437 -31.490  1.00  0.00    -0.324 N 
HETATM    8  C   UNL     1      -3.903   1.118 -31.185  1.00  0.00     0.245 C 
HETATM    9  O   UNL     1      -2.855   0.503 -31.316  1.00  0.00    -0.268 OA
HETATM   10  H   UNL     1      -5.109   2.762 -31.310  1.00  0.00     0.169 HD
BRANCH   8  11
HETATM   11  C   UNL     1      -5.064   0.478 -30.515  1.00  0.00     0.077 C 
HETATM   12  C   UNL     1      -6.091  -0.106 -31.148  1.00  0.00     0.042 C 
BRANCH  12  13
HETATM   13  C   UNL     1      -6.273  -0.085 -32.556  1.00  0.00     0.075 A 
HETATM   14  O   UNL     1      -6.449   1.063 -33.297  1.00  0.00    -0.323 OA
HETATM   15  C   UNL     1      -6.612   0.713 -34.596  1.00  0.00     0.142 A 
HETATM   16  C   UNL     1      -6.567  -0.650 -34.735  1.00  0.00     0.027 A 
HETATM   17  C   UNL     1      -6.361  -1.162 -33.431  1.00  0.00     0.039 A 
ENDBRANCH  12  13
ENDBRANCH   8  11
ENDBRANCH   3   7
BRANCH   5  18
HETATM   18  C   UNL     1      -0.667   5.712 -30.525  1.00  0.00     0.061 A 
HETATM   19  N   UNL     1      -0.049   5.085 -29.469  1.00  0.00    -0.278 N 
HETATM   20  H   UNL     1      -0.071   4.100 -29.234  1.00  0.00     0.189 HD
HETATM   21  N   UNL     1       0.669   5.905 -28.682  1.00  0.00    -0.187 NA
HETATM   22  C   UNL     1       0.519   7.098 -29.256  1.00  0.00     0.141 A 
HETATM   23  C   UNL     1      -0.291   7.038 -30.403  1.00  0.00     0.053 A 
ENDBRANCH   5  18
TORSDOF 4
ENDMDL
MODEL 6
REMARK VINA RESULT:      -7.4      4.308      6.590
REMARK  4 active torsions:
REMARK  status: ('A' for Active; 'I' for Inactive)
REMARK    1  A    between atoms: C_3  and  N_4 
REMARK       I    between atoms: N_4  and  C_5 
REMARK    2  A    between atoms: C_5  and  C_6 
REMARK    3  A    between atoms: C_7  and  C_8 
REMARK    4  A    between atoms: C_15  and  C_16 
ROOT
HETATM    1  C   UNL     1      -9.218   2.914 -32.445  1.00  0.00     0.003 A 
HETATM    2  C   UNL     1      -8.353   1.876 -32.798  1.00  0.00     0.029 A 
HETATM    3  C   UNL     1      -8.848   0.717 -33.390  1.00  0.00     0.035 A 
HETATM    4  C   UNL     1     -10.227   0.617 -33.638  1.00  0.00     0.043 A 
HETATM    5  C   UNL     1     -11.113   1.648 -33.281  1.00  0.00    -0.006 A 
HETATM    6  C   UNL     1     -10.590   2.798 -32.679  1.00  0.00     0.014 A 
ENDROOT
BRANCH   3   7
HETATM    7  N   UNL     1      -8.046  -0.389 -33.741  1.00  0.00    -0.324 N 
HETATM    8  C   UNL     1      -7.162  -0.475 -34.797  1.00  0.00     0.245 C 
HETATM    9  O   UNL     1      -6.909   0.364 -35.648  1.00  0.00    -0.268 OA
HETATM   10  H   UNL     1      -8.117  -1.201 -33.143  1.00  0.00     0.169 HD
BRANCH   8  11
HETATM   11  C   UNL     1      -6.387  -1.741 -34.746  1.00  0.00     0.077 C 
HETATM   12  C   UNL     1      -5.416  -2.013 -33.863  1.00  0.00     0.042 C 
BRANCH  12  13
HETATM   13  C   UNL     1      -4.907  -1.075 -32.926  1.00  0.00     0.075 A 
HETATM   14  O   UNL     1      -5.572  -0.679 -31.787  1.00  0.00    -0.323 OA
HETATM   15  C   UNL     1      -4.808   0.235 -31.141  1.00  0.00     0.142 A 
HETATM   16  C   UNL     1      -3.651   0.470 -31.836  1.00  0.00     0.027 A 
HETATM   17  C   UNL     1      -3.717  -0.358 -32.982  1.00  0.00     0.039 A 
ENDBRANCH  12  13
ENDBRANCH   8  11
ENDBRANCH   3   7
BRANCH   5  18
HETATM   18  C   UNL     1     -12.552   1.500 -33.516  1.00  0.00     0.061 A 
HETATM   19  N   UNL     1     -13.524   2.029 -32.701  1.00  0.00    -0.278 N 
HETATM   20  H   UNL     1     -13.395   2.587 -31.865  1.00  0.00     0.189 HD
HETATM   21  N   UNL     1     -14.781   1.763 -33.094  1.00  0.00    -0.187 NA
HETATM   22  C   UNL     1     -14.616   1.049 -34.207  1.00  0.00     0.141 A 
HETATM   23  C   UNL     1     -13.258   0.862 -34.521  1.00  0.00     0.053 A 
ENDBRANCH   5  18
TORSDOF 4
ENDMDL
MODEL 7
REMARK VINA RESULT:      -7.2      5.104      7.282
REMARK  4 active torsions:
REMARK  status: ('A' for Active; 'I' for Inactive)
REMARK    1  A    between atoms: C_3  and  N_4 
REMARK       I    between atoms: N_4  and  C_5 
REMARK    2  A    between atoms: C_5  and  C_6 
REMARK    3  A    between atoms: C_7  and  C_8 
REMARK    4  A    between atoms: C_15  and  C_16 
ROOT
HETATM    1  C   UNL     1      -7.679   1.502 -31.409  1.00  0.00     0.003 A 
HETATM    2  C   UNL     1      -9.049   1.466 -31.674  1.00  0.00     0.029 A 
HETATM    3  C   UNL     1      -9.569   0.532 -32.567  1.00  0.00     0.035 A 
HETATM    4  C   UNL     1      -8.695  -0.379 -33.183  1.00  0.00     0.043 A 
HETATM    5  C   UNL     1      -7.312  -0.352 -32.933  1.00  0.00    -0.006 A 
HETATM    6  C   UNL     1      -6.815   0.603 -32.039  1.00  0.00     0.014 A 
ENDROOT
BRANCH   3   7
HETATM    7  N   UNL     1     -10.934   0.456 -32.917  1.00  0.00    -0.324 N 
HETATM    8  C   UNL     1     -11.581   1.166 -33.907  1.00  0.00     0.245 C 
HETATM    9  O   UNL     1     -11.122   2.010 -34.662  1.00  0.00    -0.268 OA
HETATM   10  H   UNL     1     -11.494  -0.203 -32.393  1.00  0.00     0.169 HD
BRANCH   8  11
HETATM   11  C   UNL     1     -12.980   0.697 -34.077  1.00  0.00     0.077 C 
HETATM   12  C   UNL     1     -14.071   1.386 -33.716  1.00  0.00     0.042 C 
BRANCH  12  13
HETATM   13  C   UNL     1     -14.038   2.615 -33.005  1.00  0.00     0.075 A 
HETATM   14  O   UNL     1     -13.600   3.806 -33.539  1.00  0.00    -0.323 OA
HETATM   15  C   UNL     1     -13.686   4.761 -32.581  1.00  0.00     0.142 A 
HETATM   16  C   UNL     1     -14.157   4.225 -31.411  1.00  0.00     0.027 A 
HETATM   17  C   UNL     1     -14.372   2.852 -31.677  1.00  0.00     0.039 A 
ENDBRANCH  12  13
ENDBRANCH   8  11
ENDBRANCH   3   7
BRANCH   5  18
HETATM   18  C   UNL     1      -6.419  -1.288 -33.619  1.00  0.00     0.061 A 
HETATM   19  N   UNL     1      -5.069  -1.380 -33.382  1.00  0.00    -0.278 N 
HETATM   20  H   UNL     1      -4.520  -0.849 -32.716  1.00  0.00     0.189 HD
HETATM   21  N   UNL     1      -4.435  -2.298 -34.130  1.00  0.00    -0.187 NA
HETATM   22  C   UNL     1      -5.412  -2.827 -34.868  1.00  0.00     0.141 A 
HETATM   23  C   UNL     1      -6.661  -2.246 -34.589  1.00  0.00     0.053 A 
ENDBRANCH   5  18
TORSDOF 4
ENDMDL
MODEL 8
REMARK VINA RESULT:      -7.2      3.691      5.449
REMARK  4 active torsions:
REMARK  status: ('A' for Active; 'I' for Inactive)
REMARK    1  A    between atoms: C_3  and  N_4 
REMARK       I    between atoms: N_4  and  C_5 
REMARK    2  A    between atoms: C_5  and  C_6 
REMARK    3  A    between atoms: C_7  and  C_8 
REMARK    4  A    between atoms: C_15  and  C_16 
ROOT
HETATM    1  C   UNL     1      -5.951   1.323 -33.538  1.00  0.00     0.003 A 
HETATM    2  C   UNL     1      -7.231   1.727 -33.921  1.00  0.00     0.029 A 
HETATM    3  C   UNL     1      -8.125   0.808 -34.465  1.00  0.00     0.035 A 
HETATM    4  C   UNL     1      -7.722  -0.530 -34.605  1.00  0.00     0.043 A 
HETATM    5  C   UNL     1      -6.435  -0.952 -34.232  1.00  0.00    -0.006 A 
HETATM    6  C   UNL     1      -5.553  -0.006 -33.698  1.00  0.00     0.014 A 
ENDROOT
BRANCH   3   7
HETATM    7  N   UNL     1      -9.421   1.144 -34.911  1.00  0.00    -0.324 N 
HETATM    8  C   UNL     1     -10.565   1.245 -34.147  1.00  0.00     0.245 C 
HETATM    9  O   UNL     1     -10.700   1.046 -32.949  1.00  0.00    -0.268 OA
HETATM   10  H   UNL     1      -9.516   1.349 -35.897  1.00  0.00     0.169 HD
BRANCH   8  11
HETATM   11  C   UNL     1     -11.700   1.774 -34.946  1.00  0.00     0.077 C 
HETATM   12  C   UNL     1     -11.924   3.071 -35.196  1.00  0.00     0.042 C 
BRANCH  12  13
HETATM   13  C   UNL     1     -11.173   4.134 -34.627  1.00  0.00     0.075 A 
HETATM   14  O   UNL     1     -11.381   4.639 -33.363  1.00  0.00    -0.323 OA
HETATM   15  C   UNL     1     -10.505   5.652 -33.158  1.00  0.00     0.142 A 
HETATM   16  C   UNL     1      -9.726   5.845 -34.268  1.00  0.00     0.027 A 
HETATM   17  C   UNL     1     -10.158   4.883 -35.212  1.00  0.00     0.039 A 
ENDBRANCH  12  13
ENDBRANCH   8  11
ENDBRANCH   3   7
BRANCH   5  18
HETATM   18  C   UNL     1      -6.029  -2.346 -34.426  1.00  0.00     0.061 A 
HETATM   19  N   UNL     1      -4.752  -2.812 -34.222  1.00  0.00    -0.278 N 
HETATM   20  H   UNL     1      -3.945  -2.288 -33.904  1.00  0.00     0.189 HD
HETATM   21  N   UNL     1      -4.595  -4.123 -34.471  1.00  0.00    -0.187 NA
HETATM   22  C   UNL     1      -5.813  -4.519 -34.837  1.00  0.00     0.141 A 
HETATM   23  C   UNL     1      -6.742  -3.464 -34.821  1.00  0.00     0.053 A 
ENDBRANCH   5  18
TORSDOF 4
ENDMDL
MODEL 9
REMARK VINA RESULT:      -6.9      3.709      4.790
REMARK  4 active torsions:
REMARK  status: ('A' for Active; 'I' for Inactive)
REMARK    1  A    between atoms: C_3  and  N_4 
REMARK       I    between atoms: N_4  and  C_5 
REMARK    2  A    between atoms: C_5  and  C_6 
REMARK    3  A    between atoms: C_7  and  C_8 
REMARK    4  A    between atoms: C_15  and  C_16 
ROOT
HETATM    1  C   UNL     1      -5.493   2.953 -30.077  1.00  0.00     0.003 A 
HETATM    2  C   UNL     1      -4.580   3.466 -31.001  1.00  0.00     0.029 A 
HETATM    3  C   UNL     1      -4.842   3.389 -32.366  1.00  0.00     0.035 A 
HETATM    4  C   UNL     1      -6.044   2.803 -32.795  1.00  0.00     0.043 A 
HETATM    5  C   UNL     1      -6.970   2.274 -31.880  1.00  0.00    -0.006 A 
HETATM    6  C   UNL     1      -6.677   2.355 -30.514  1.00  0.00     0.014 A 
ENDROOT
BRANCH   3   7
HETATM    7  N   UNL     1      -3.955   3.850 -33.363  1.00  0.00    -0.324 N 
HETATM    8  C   UNL     1      -3.919   5.107 -33.929  1.00  0.00     0.245 C 
HETATM    9  O   UNL     1      -4.648   6.063 -33.708  1.00  0.00    -0.268 OA
HETATM   10  H   UNL     1      -3.261   3.189 -33.683  1.00  0.00     0.169 HD
BRANCH   8  11
HETATM   11  C   UNL     1      -2.745   5.258 -34.826  1.00  0.00     0.077 C 
HETATM   12  C   UNL     1      -1.482   5.439 -34.416  1.00  0.00     0.042 C 
BRANCH  12  13
HETATM   13  C   UNL     1      -1.106   5.635 -33.060  1.00  0.00     0.075 A 
HETATM   14  O   UNL     1      -1.129   4.648 -32.100  1.00  0.00    -0.323 OA
HETATM   15  C   UNL     1      -0.729   5.187 -30.923  1.00  0.00     0.142 A 
HETATM   16  C   UNL     1      -0.455   6.521 -31.075  1.00  0.00     0.027 A 
HETATM   17  C   UNL     1      -0.705   6.812 -32.437  1.00  0.00     0.039 A 
ENDBRANCH  12  13
ENDBRANCH   8  11
ENDBRANCH   3   7
BRANCH   5  18
HETATM   18  C   UNL     1      -8.197   1.632 -32.358  1.00  0.00     0.061 A 
HETATM   19  N   UNL     1      -8.670   0.429 -31.891  1.00  0.00    -0.278 N 
HETATM   20  H   UNL     1      -8.267  -0.156 -31.168  1.00  0.00     0.189 HD
HETATM   21  N   UNL     1      -9.807   0.016 -32.475  1.00  0.00    -0.187 NA
HETATM   22  C   UNL     1     -10.085   0.991 -33.340  1.00  0.00     0.141 A 
HETATM   23  C   UNL     1      -9.128   2.020 -33.306  1.00  0.00     0.053 A 
ENDBRANCH   5  18
TORSDOF 4
ENDMDL
MODEL 10
REMARK VINA RESULT:      -6.9      3.040      7.184
REMARK  4 active torsions:
REMARK  status: ('A' for Active; 'I' for Inactive)
REMARK    1  A    between atoms: C_3  and  N_4 
REMARK       I    between atoms: N_4  and  C_5 
REMARK    2  A    between atoms: C_5  and  C_6 
REMARK    3  A    between atoms: C_7  and  C_8 
REMARK    4  A    between atoms: C_15  and  C_16 
ROOT
HETATM    1  C   UNL     1      -3.939   5.289 -34.963  1.00  0.00     0.003 A 
HETATM    2  C   UNL     1      -4.969   4.459 -34.518  1.00  0.00     0.029 A 
HETATM    3  C   UNL     1      -4.894   3.854 -33.265  1.00  0.00     0.035 A 
HETATM    4  C   UNL     1      -3.774   4.105 -32.456  1.00  0.00     0.043 A 
HETATM    5  C   UNL     1      -2.724   4.931 -32.892  1.00  0.00    -0.006 A 
HETATM    6  C   UNL     1      -2.820   5.519 -34.159  1.00  0.00     0.014 A 
ENDROOT
BRANCH   3   7
HETATM    7  N   UNL     1      -5.874   2.974 -32.759  1.00  0.00    -0.324 N 
HETATM    8  C   UNL     1      -6.571   2.012 -33.459  1.00  0.00     0.245 C 
HETATM    9  O   UNL     1      -6.505   1.738 -34.649  1.00  0.00    -0.268 OA
HETATM   10  H   UNL     1      -6.074   3.048 -31.771  1.00  0.00     0.169 HD
BRANCH   8  11
HETATM   11  C   UNL     1      -7.400   1.180 -32.550  1.00  0.00     0.077 C 
HETATM   12  C   UNL     1      -7.017   0.014 -32.011  1.00  0.00     0.042 C 
BRANCH  12  13
HETATM   13  C   UNL     1      -5.805  -0.652 -32.334  1.00  0.00     0.075 A 
HETATM   14  O   UNL     1      -5.652  -1.506 -33.404  1.00  0.00    -0.323 OA
HETATM   15  C   UNL     1      -4.381  -1.975 -33.399  1.00  0.00     0.142 A 
HETATM   16  C   UNL     1      -3.685  -1.463 -32.336  1.00  0.00     0.027 A 
HETATM   17  C   UNL     1      -4.596  -0.626 -31.648  1.00  0.00     0.039 A 
ENDBRANCH  12  13
ENDBRANCH   8  11
ENDBRANCH   3   7
BRANCH   5  18
HETATM   18  C   UNL     1      -1.549   5.144 -32.043  1.00  0.00     0.061 A 
HETATM   19  N   UNL     1      -1.302   4.450 -30.883  1.00  0.00    -0.278 N 
HETATM   20  H   UNL     1      -1.860   3.711 -30.472  1.00  0.00     0.189 HD
HETATM   21  N   UNL     1      -0.172   4.812 -30.251  1.00  0.00    -0.187 NA
HETATM   22  C   UNL     1       0.333   5.764 -31.036  1.00  0.00     0.141 A 
HETATM   23  C   UNL     1      -0.473   6.006 -32.163  1.00  0.00     0.053 A 
ENDBRANCH   5  18
TORSDOF 4
ENDMDL
