MODEL 1
REMARK VINA RESULT:      -9.9      0.000      0.000
REMARK  5 active torsions:
REMARK  status: ('A' for Active; 'I' for Inactive)
REMARK    1  A    between atoms: C_5  and  C_6 
REMARK    2  A    between atoms: C_10  and  C_11 
REMARK       I    between atoms: C_11  and  N_12 
REMARK    3  A    between atoms: N_12  and  N_13 
REMARK       I    between atoms: N_13  and  C_14 
REMARK       I    between atoms: C_14  and  N_15 
REMARK    4  A    between atoms: N_15  and  C_16 
REMARK    5  A    between atoms: C_16  and  C_17 
ROOT
HETATM    1  C   UNL     1      -3.803   3.039 -31.175  1.00  0.00     0.288 C 
HETATM    2  N   UNL     1      -2.530   3.552 -31.279  1.00  0.00    -0.261 N 
HETATM    3  O   UNL     1      -4.751   3.700 -30.757  1.00  0.00    -0.264 OA
HETATM    4  H   UNL     1      -1.758   3.035 -31.696  1.00  0.00     0.190 HD
ENDROOT
BRANCH   2   5
HETATM    5  N   UNL     1      -2.313   4.931 -31.138  1.00  0.00    -0.249 N 
HETATM    6  C   UNL     1      -1.080   5.294 -30.643  1.00  0.00     0.334 C 
HETATM    7  N   UNL     1      -0.950   6.652 -30.488  1.00  0.00    -0.341 N 
HETATM    8  O   UNL     1      -0.193   4.477 -30.409  1.00  0.00    -0.246 OA
HETATM    9  H   UNL     1      -1.510   7.189 -31.135  1.00  0.00     0.164 HD
HETATM   10  H   UNL     1      -3.131   5.485 -30.902  1.00  0.00     0.192 HD
BRANCH   7  11
HETATM   11  C   UNL     1       0.357   7.179 -30.144  1.00  0.00     0.129 C 
BRANCH  11  12
HETATM   12  C   UNL     1       0.432   7.876 -28.779  1.00  0.00     0.004 C 
HETATM   13  C   UNL     1       0.772   6.902 -27.640  1.00  0.00     0.010 C 
HETATM   14  C   UNL     1       0.883   7.599 -26.273  1.00  0.00    -0.018 C 
HETATM   15  C   UNL     1      -0.368   8.442 -25.984  1.00  0.00     0.004 C 
HETATM   16  C   UNL     1       2.164   8.434 -26.163  1.00  0.00     0.010 C 
HETATM   17  C   UNL     1      -0.725   9.398 -27.121  1.00  0.00     0.001 C 
HETATM   18  C   UNL     1      -0.844   8.666 -28.456  1.00  0.00     0.006 C 
ENDBRANCH  11  12
ENDBRANCH   7  11
ENDBRANCH   2   5
BRANCH   1  19
HETATM   19  C   UNL     1      -3.936   1.672 -31.606  1.00  0.00     0.121 A 
HETATM   20  N   UNL     1      -3.305   0.640 -30.969  1.00  0.00    -0.272 N 
HETATM   21  N   UNL     1      -3.583  -0.572 -31.476  1.00  0.00    -0.174 NA
HETATM   22  H   UNL     1      -2.685   0.705 -30.168  1.00  0.00     0.189 HD
HETATM   23  C   UNL     1      -4.414  -0.330 -32.502  1.00  0.00     0.089 A 
HETATM   24  C   UNL     1      -4.652   1.068 -32.620  1.00  0.00     0.071 A 
BRANCH  23  25
HETATM   25  C   UNL     1      -4.982  -1.406 -33.321  1.00  0.00    -0.006 A 
HETATM   26  C   UNL     1      -4.190  -2.491 -33.721  1.00  0.00     0.014 A 
HETATM   27  C   UNL     1      -4.736  -3.542 -34.466  1.00  0.00     0.007 A 
HETATM   28  C   UNL     1      -6.083  -3.521 -34.839  1.00  0.00    -0.062 A 
HETATM   29  C   UNL     1      -6.690  -4.654 -35.612  1.00  0.00     0.048 C 
HETATM   30  C   UNL     1      -6.877  -2.437 -34.450  1.00  0.00     0.007 A 
HETATM   31  C   UNL     1      -6.331  -1.389 -33.701  1.00  0.00     0.014 A 
ENDBRANCH  23  25
ENDBRANCH   1  19
TORSDOF 5
ENDMDL
MODEL 2
REMARK VINA RESULT:      -9.5      0.539      1.569
REMARK  5 active torsions:
REMARK  status: ('A' for Active; 'I' for Inactive)
REMARK    1  A    between atoms: C_5  and  C_6 
REMARK    2  A    between atoms: C_10  and  C_11 
REMARK       I    between atoms: C_11  and  N_12 
REMARK    3  A    between atoms: N_12  and  N_13 
REMARK       I    between atoms: N_13  and  C_14 
REMARK       I    between atoms: C_14  and  N_15 
REMARK    4  A    between atoms: N_15  and  C_16 
REMARK    5  A    between atoms: C_16  and  C_17 
ROOT
HETATM    1  C   UNL     1      -3.861   3.190 -31.276  1.00  0.00     0.288 C 
HETATM    2  N   UNL     1      -2.584   3.704 -31.217  1.00  0.00    -0.261 N 
HETATM    3  O   UNL     1      -4.856   3.855 -30.995  1.00  0.00    -0.264 OA
HETATM    4  H   UNL     1      -1.764   3.184 -31.520  1.00  0.00     0.190 HD
ENDROOT
BRANCH   2   5
HETATM    5  N   UNL     1      -2.388   5.085 -31.065  1.00  0.00    -0.249 N 
HETATM    6  C   UNL     1      -1.192   5.459 -30.491  1.00  0.00     0.334 C 
HETATM    7  N   UNL     1      -1.083   6.818 -30.332  1.00  0.00    -0.341 N 
HETATM    8  O   UNL     1      -0.317   4.650 -30.199  1.00  0.00    -0.246 OA
HETATM    9  H   UNL     1      -1.604   7.349 -31.015  1.00  0.00     0.164 HD
HETATM   10  H   UNL     1      -3.225   5.633 -30.884  1.00  0.00     0.192 HD
BRANCH   7  11
HETATM   11  C   UNL     1       0.194   7.356 -29.905  1.00  0.00     0.129 C 
BRANCH  11  12
HETATM   12  C   UNL     1       0.216   7.903 -28.472  1.00  0.00     0.004 C 
HETATM   13  C   UNL     1      -0.898   8.932 -28.219  1.00  0.00     0.010 C 
HETATM   14  C   UNL     1      -0.903   9.460 -26.774  1.00  0.00    -0.018 C 
HETATM   15  C   UNL     1       0.487   9.975 -26.373  1.00  0.00     0.004 C 
HETATM   16  C   UNL     1      -1.422   8.410 -25.786  1.00  0.00     0.010 C 
HETATM   17  C   UNL     1       1.603   8.967 -26.642  1.00  0.00     0.001 C 
HETATM   18  C   UNL     1       1.587   8.481 -28.089  1.00  0.00     0.006 C 
ENDBRANCH  11  12
ENDBRANCH   7  11
ENDBRANCH   2   5
BRANCH   1  19
HETATM   19  C   UNL     1      -3.935   1.818 -31.703  1.00  0.00     0.121 A 
HETATM   20  N   UNL     1      -3.126   0.846 -31.186  1.00  0.00    -0.272 N 
HETATM   21  N   UNL     1      -3.369  -0.385 -31.664  1.00  0.00    -0.174 NA
HETATM   22  H   UNL     1      -2.399   0.965 -30.487  1.00  0.00     0.189 HD
HETATM   23  C   UNL     1      -4.365  -0.217 -32.549  1.00  0.00     0.089 A 
HETATM   24  C   UNL     1      -4.740   1.154 -32.607  1.00  0.00     0.071 A 
BRANCH  23  25
HETATM   25  C   UNL     1      -4.952  -1.338 -33.289  1.00  0.00    -0.006 A 
HETATM   26  C   UNL     1      -6.289  -1.293 -33.708  1.00  0.00     0.014 A 
HETATM   27  C   UNL     1      -6.844  -2.340 -34.451  1.00  0.00     0.007 A 
HETATM   28  C   UNL     1      -6.075  -3.460 -34.781  1.00  0.00    -0.062 A 
HETATM   29  C   UNL     1      -6.647  -4.577 -35.603  1.00  0.00     0.048 C 
HETATM   30  C   UNL     1      -4.742  -3.514 -34.361  1.00  0.00     0.007 A 
HETATM   31  C   UNL     1      -4.188  -2.465 -33.620  1.00  0.00     0.014 A 
ENDBRANCH  23  25
ENDBRANCH   1  19
TORSDOF 5
ENDMDL
MODEL 3
REMARK VINA RESULT:      -9.4      1.491     11.370
REMARK  5 active torsions:
REMARK  status: ('A' for Active; 'I' for Inactive)
REMARK    1  A    between atoms: C_5  and  C_6 
REMARK    2  A    between atoms: C_10  and  C_11 
REMARK       I    between atoms: C_11  and  N_12 
REMARK    3  A    between atoms: N_12  and  N_13 
REMARK       I    between atoms: N_13  and  C_14 
REMARK       I    between atoms: C_14  and  N_15 
REMARK    4  A    between atoms: N_15  and  C_16 
REMARK    5  A    between atoms: C_16  and  C_17 
ROOT
HETATM    1  C   UNL     1      -1.969   4.522 -31.765  1.00  0.00     0.288 C 
HETATM    2  N   UNL     1      -2.810   3.499 -31.388  1.00  0.00    -0.261 N 
HETATM    3  O   UNL     1      -1.562   4.654 -32.917  1.00  0.00    -0.264 OA
HETATM    4  H   UNL     1      -3.211   3.429 -30.456  1.00  0.00     0.190 HD
ENDROOT
BRANCH   2   5
HETATM    5  N   UNL     1      -3.432   2.704 -32.364  1.00  0.00    -0.249 N 
HETATM    6  C   UNL     1      -4.309   1.753 -31.889  1.00  0.00     0.334 C 
HETATM    7  N   UNL     1      -4.847   0.983 -32.889  1.00  0.00    -0.341 N 
HETATM    8  O   UNL     1      -4.594   1.651 -30.699  1.00  0.00    -0.246 OA
HETATM    9  H   UNL     1      -4.915   1.460 -33.776  1.00  0.00     0.164 HD
HETATM   10  H   UNL     1      -2.877   2.506 -33.192  1.00  0.00     0.192 HD
BRANCH   7  11
HETATM   11  C   UNL     1      -5.916   0.065 -32.545  1.00  0.00     0.129 C 
BRANCH  11  12
HETATM   12  C   UNL     1      -5.778  -1.340 -33.145  1.00  0.00     0.004 C 
HETATM   13  C   UNL     1      -4.479  -1.510 -33.949  1.00  0.00     0.010 C 
HETATM   14  C   UNL     1      -4.317  -2.927 -34.525  1.00  0.00    -0.018 C 
HETATM   15  C   UNL     1      -5.566  -3.344 -35.316  1.00  0.00     0.004 C 
HETATM   16  C   UNL     1      -3.971  -3.949 -33.437  1.00  0.00     0.010 C 
HETATM   17  C   UNL     1      -6.863  -3.157 -34.532  1.00  0.00     0.001 C 
HETATM   18  C   UNL     1      -6.997  -1.735 -33.992  1.00  0.00     0.006 C 
ENDBRANCH  11  12
ENDBRANCH   7  11
ENDBRANCH   2   5
BRANCH   1  19
HETATM   19  C   UNL     1      -1.614   5.428 -30.705  1.00  0.00     0.121 A 
HETATM   20  N   UNL     1      -2.535   6.227 -30.087  1.00  0.00    -0.272 N 
HETATM   21  N   UNL     1      -2.036   6.970 -29.086  1.00  0.00    -0.174 NA
HETATM   22  H   UNL     1      -3.526   6.291 -30.297  1.00  0.00     0.189 HD
HETATM   23  C   UNL     1      -0.729   6.666 -29.055  1.00  0.00     0.089 A 
HETATM   24  C   UNL     1      -0.425   5.709 -30.062  1.00  0.00     0.071 A 
BRANCH  23  25
HETATM   25  C   UNL     1       0.189   7.254 -28.074  1.00  0.00    -0.006 A 
HETATM   26  C   UNL     1       1.060   8.289 -28.443  1.00  0.00     0.014 A 
HETATM   27  C   UNL     1       1.907   8.883 -27.502  1.00  0.00     0.007 A 
HETATM   28  C   UNL     1       1.910   8.445 -26.174  1.00  0.00    -0.062 A 
HETATM   29  C   UNL     1       2.792   9.092 -25.148  1.00  0.00     0.048 C 
HETATM   30  C   UNL     1       1.049   7.409 -25.801  1.00  0.00     0.007 A 
HETATM   31  C   UNL     1       0.199   6.818 -26.742  1.00  0.00     0.014 A 
ENDBRANCH  23  25
ENDBRANCH   1  19
TORSDOF 5
ENDMDL
MODEL 4
REMARK VINA RESULT:      -8.7      1.689     11.522
REMARK  5 active torsions:
REMARK  status: ('A' for Active; 'I' for Inactive)
REMARK    1  A    between atoms: C_5  and  C_6 
REMARK    2  A    between atoms: C_10  and  C_11 
REMARK       I    between atoms: C_11  and  N_12 
REMARK    3  A    between atoms: N_12  and  N_13 
REMARK       I    between atoms: N_13  and  C_14 
REMARK       I    between atoms: C_14  and  N_15 
REMARK    4  A    between atoms: N_15  and  C_16 
REMARK    5  A    between atoms: C_16  and  C_17 
ROOT
HETATM    1  C   UNL     1      -2.953   6.127 -31.262  1.00  0.00     0.288 C 
HETATM    2  N   UNL     1      -3.226   4.907 -30.683  1.00  0.00    -0.261 N 
HETATM    3  O   UNL     1      -3.311   6.412 -32.403  1.00  0.00    -0.264 OA
HETATM    4  H   UNL     1      -3.001   4.692 -29.714  1.00  0.00     0.190 HD
ENDROOT
BRANCH   2   5
HETATM    5  N   UNL     1      -4.138   4.029 -31.289  1.00  0.00    -0.249 N 
HETATM    6  C   UNL     1      -3.677   2.750 -31.512  1.00  0.00     0.334 C 
HETATM    7  N   UNL     1      -4.601   1.957 -32.146  1.00  0.00    -0.341 N 
HETATM    8  O   UNL     1      -2.570   2.371 -31.140  1.00  0.00    -0.246 OA
HETATM    9  H   UNL     1      -5.558   2.217 -31.953  1.00  0.00     0.164 HD
HETATM   10  H   UNL     1      -4.787   4.451 -31.948  1.00  0.00     0.192 HD
BRANCH   7  11
HETATM   11  C   UNL     1      -4.310   0.543 -32.281  1.00  0.00     0.129 C 
BRANCH  11  12
HETATM   12  C   UNL     1      -5.160  -0.194 -33.325  1.00  0.00     0.004 C 
HETATM   13  C   UNL     1      -6.649  -0.233 -32.946  1.00  0.00     0.010 C 
HETATM   14  C   UNL     1      -7.514  -0.941 -34.004  1.00  0.00    -0.018 C 
HETATM   15  C   UNL     1      -6.946  -2.328 -34.338  1.00  0.00     0.004 C 
HETATM   16  C   UNL     1      -7.687  -0.083 -35.263  1.00  0.00     0.010 C 
HETATM   17  C   UNL     1      -5.461  -2.300 -34.694  1.00  0.00     0.001 C 
HETATM   18  C   UNL     1      -4.635  -1.607 -33.613  1.00  0.00     0.006 C 
ENDBRANCH  11  12
ENDBRANCH   7  11
ENDBRANCH   2   5
BRANCH   1  19
HETATM   19  C   UNL     1      -2.226   7.040 -30.421  1.00  0.00     0.121 A 
HETATM   20  N   UNL     1      -2.468   8.385 -30.422  1.00  0.00    -0.272 N 
HETATM   21  N   UNL     1      -1.732   9.077 -29.538  1.00  0.00    -0.174 NA
HETATM   22  H   UNL     1      -3.140   8.884 -30.996  1.00  0.00     0.189 HD
HETATM   23  C   UNL     1      -0.958   8.156 -28.943  1.00  0.00     0.089 A 
HETATM   24  C   UNL     1      -1.233   6.866 -29.478  1.00  0.00     0.071 A 
BRANCH  23  25
HETATM   25  C   UNL     1      -0.008   8.498 -27.879  1.00  0.00    -0.006 A 
HETATM   26  C   UNL     1      -0.129   9.705 -27.176  1.00  0.00     0.014 A 
HETATM   27  C   UNL     1       0.747  10.018 -26.132  1.00  0.00     0.007 A 
HETATM   28  C   UNL     1       1.772   9.136 -25.778  1.00  0.00    -0.062 A 
HETATM   29  C   UNL     1       2.701   9.445 -24.641  1.00  0.00     0.048 C 
HETATM   30  C   UNL     1       1.904   7.934 -26.480  1.00  0.00     0.007 A 
HETATM   31  C   UNL     1       1.024   7.620 -27.522  1.00  0.00     0.014 A 
ENDBRANCH  23  25
ENDBRANCH   1  19
TORSDOF 5
ENDMDL
MODEL 5
REMARK VINA RESULT:      -8.6      1.515      2.209
REMARK  5 active torsions:
REMARK  status: ('A' for Active; 'I' for Inactive)
REMARK    1  A    between atoms: C_5  and  C_6 
REMARK    2  A    between atoms: C_10  and  C_11 
REMARK       I    between atoms: C_11  and  N_12 
REMARK    3  A    between atoms: N_12  and  N_13 
REMARK       I    between atoms: N_13  and  C_14 
REMARK       I    between atoms: C_14  and  N_15 
REMARK    4  A    between atoms: N_15  and  C_16 
REMARK    5  A    between atoms: C_16  and  C_17 
ROOT
HETATM    1  C   UNL     1      -2.871   3.777 -31.794  1.00  0.00     0.288 C 
HETATM    2  N   UNL     1      -3.415   4.956 -32.253  1.00  0.00    -0.261 N 
HETATM    3  O   UNL     1      -1.752   3.716 -31.290  1.00  0.00    -0.264 OA
HETATM    4  H   UNL     1      -4.369   5.027 -32.600  1.00  0.00     0.190 HD
ENDROOT
BRANCH   2   5
HETATM    5  N   UNL     1      -2.805   6.181 -31.940  1.00  0.00    -0.249 N 
HETATM    6  C   UNL     1      -3.144   6.723 -30.720  1.00  0.00     0.334 C 
HETATM    7  N   UNL     1      -2.549   7.939 -30.496  1.00  0.00    -0.341 N 
HETATM    8  O   UNL     1      -3.872   6.144 -29.918  1.00  0.00    -0.246 OA
HETATM    9  H   UNL     1      -1.661   8.048 -30.967  1.00  0.00     0.164 HD
HETATM   10  H   UNL     1      -2.618   6.796 -32.728  1.00  0.00     0.192 HD
BRANCH   7  11
HETATM   11  C   UNL     1      -2.680   8.533 -29.180  1.00  0.00     0.129 C 
BRANCH  11  12
HETATM   12  C   UNL     1      -1.489   8.295 -28.242  1.00  0.00     0.004 C 
HETATM   13  C   UNL     1      -0.187   8.010 -29.008  1.00  0.00     0.010 C 
HETATM   14  C   UNL     1       1.019   7.804 -28.075  1.00  0.00    -0.018 C 
HETATM   15  C   UNL     1       0.711   6.745 -27.006  1.00  0.00     0.004 C 
HETATM   16  C   UNL     1       1.484   9.122 -27.447  1.00  0.00     0.010 C 
HETATM   17  C   UNL     1      -0.592   7.010 -26.256  1.00  0.00     0.001 C 
HETATM   18  C   UNL     1      -1.768   7.190 -27.213  1.00  0.00     0.006 C 
ENDBRANCH  11  12
ENDBRANCH   7  11
ENDBRANCH   2   5
BRANCH   1  19
HETATM   19  C   UNL     1      -3.723   2.626 -31.942  1.00  0.00     0.121 A 
HETATM   20  N   UNL     1      -4.854   2.453 -31.195  1.00  0.00    -0.272 N 
HETATM   21  N   UNL     1      -5.553   1.349 -31.503  1.00  0.00    -0.174 NA
HETATM   22  H   UNL     1      -5.207   3.069 -30.470  1.00  0.00     0.189 HD
HETATM   23  C   UNL     1      -4.845   0.758 -32.479  1.00  0.00     0.089 A 
HETATM   24  C   UNL     1      -3.684   1.526 -32.775  1.00  0.00     0.071 A 
BRANCH  23  25
HETATM   25  C   UNL     1      -5.283  -0.485 -33.122  1.00  0.00    -0.006 A 
HETATM   26  C   UNL     1      -6.635  -0.692 -33.429  1.00  0.00     0.014 A 
HETATM   27  C   UNL     1      -7.053  -1.856 -34.081  1.00  0.00     0.007 A 
HETATM   28  C   UNL     1      -6.128  -2.845 -34.428  1.00  0.00    -0.062 A 
HETATM   29  C   UNL     1      -6.557  -4.086 -35.154  1.00  0.00     0.048 C 
HETATM   30  C   UNL     1      -4.778  -2.649 -34.118  1.00  0.00     0.007 A 
HETATM   31  C   UNL     1      -4.361  -1.482 -33.470  1.00  0.00     0.014 A 
ENDBRANCH  23  25
ENDBRANCH   1  19
TORSDOF 5
ENDMDL
MODEL 6
REMARK VINA RESULT:      -8.5      8.314     11.809
REMARK  5 active torsions:
REMARK  status: ('A' for Active; 'I' for Inactive)
REMARK    1  A    between atoms: C_5  and  C_6 
REMARK    2  A    between atoms: C_10  and  C_11 
REMARK       I    between atoms: C_11  and  N_12 
REMARK    3  A    between atoms: N_12  and  N_13 
REMARK       I    between atoms: N_13  and  C_14 
REMARK       I    between atoms: C_14  and  N_15 
REMARK    4  A    between atoms: N_15  and  C_16 
REMARK    5  A    between atoms: C_16  and  C_17 
ROOT
HETATM    1  C   UNL     1      -9.797   1.787 -33.026  1.00  0.00     0.288 C 
HETATM    2  N   UNL     1     -11.128   1.583 -33.314  1.00  0.00    -0.261 N 
HETATM    3  O   UNL     1      -9.410   2.697 -32.296  1.00  0.00    -0.264 OA
HETATM    4  H   UNL     1     -11.461   0.787 -33.854  1.00  0.00     0.190 HD
ENDROOT
BRANCH   2   5
HETATM    5  N   UNL     1     -12.118   2.263 -32.587  1.00  0.00    -0.249 N 
HETATM    6  C   UNL     1     -13.419   1.936 -32.901  1.00  0.00     0.334 C 
HETATM    7  N   UNL     1     -14.336   2.666 -32.187  1.00  0.00    -0.341 N 
HETATM    8  O   UNL     1     -13.705   1.054 -33.706  1.00  0.00    -0.246 OA
HETATM    9  H   UNL     1     -14.001   2.962 -31.280  1.00  0.00     0.164 HD
HETATM   10  H   UNL     1     -11.891   3.215 -32.316  1.00  0.00     0.192 HD
BRANCH   7  11
HETATM   11  C   UNL     1     -15.734   2.298 -32.291  1.00  0.00     0.129 C 
BRANCH  11  12
HETATM   12  C   UNL     1     -16.715   3.479 -32.277  1.00  0.00     0.004 C 
HETATM   13  C   UNL     1     -16.084   4.759 -31.706  1.00  0.00     0.010 C 
HETATM   14  C   UNL     1     -17.051   5.956 -31.721  1.00  0.00    -0.018 C 
HETATM   15  C   UNL     1     -18.382   5.595 -31.047  1.00  0.00     0.004 C 
HETATM   16  C   UNL     1     -17.265   6.497 -33.139  1.00  0.00     0.010 C 
HETATM   17  C   UNL     1     -19.004   4.311 -31.593  1.00  0.00     0.001 C 
HETATM   18  C   UNL     1     -18.022   3.143 -31.545  1.00  0.00     0.006 C 
ENDBRANCH  11  12
ENDBRANCH   7  11
ENDBRANCH   2   5
BRANCH   1  19
HETATM   19  C   UNL     1      -8.899   0.844 -33.639  1.00  0.00     0.121 A 
HETATM   20  N   UNL     1      -8.690   0.805 -34.989  1.00  0.00    -0.272 N 
HETATM   21  N   UNL     1      -7.782  -0.104 -35.379  1.00  0.00    -0.174 NA
HETATM   22  H   UNL     1      -9.128   1.391 -35.692  1.00  0.00     0.189 HD
HETATM   23  C   UNL     1      -7.391  -0.705 -34.244  1.00  0.00     0.089 A 
HETATM   24  C   UNL     1      -8.078  -0.142 -33.131  1.00  0.00     0.071 A 
BRANCH  23  25
HETATM   25  C   UNL     1      -6.374  -1.761 -34.226  1.00  0.00    -0.006 A 
HETATM   26  C   UNL     1      -5.108  -1.523 -33.672  1.00  0.00     0.014 A 
HETATM   27  C   UNL     1      -4.149  -2.538 -33.614  1.00  0.00     0.007 A 
HETATM   28  C   UNL     1      -4.431  -3.811 -34.120  1.00  0.00    -0.062 A 
HETATM   29  C   UNL     1      -3.422  -4.918 -34.037  1.00  0.00     0.048 C 
HETATM   30  C   UNL     1      -5.689  -4.053 -34.680  1.00  0.00     0.007 A 
HETATM   31  C   UNL     1      -6.649  -3.038 -34.735  1.00  0.00     0.014 A 
ENDBRANCH  23  25
ENDBRANCH   1  19
TORSDOF 5
ENDMDL
MODEL 7
REMARK VINA RESULT:      -8.0      9.178     11.957
REMARK  5 active torsions:
REMARK  status: ('A' for Active; 'I' for Inactive)
REMARK    1  A    between atoms: C_5  and  C_6 
REMARK    2  A    between atoms: C_10  and  C_11 
REMARK       I    between atoms: C_11  and  N_12 
REMARK    3  A    between atoms: N_12  and  N_13 
REMARK       I    between atoms: N_13  and  C_14 
REMARK       I    between atoms: C_14  and  N_15 
REMARK    4  A    between atoms: N_15  and  C_16 
REMARK    5  A    between atoms: C_16  and  C_17 
ROOT
HETATM    1  C   UNL     1     -12.114   1.925 -34.681  1.00  0.00     0.288 C 
HETATM    2  N   UNL     1     -12.647   2.923 -33.896  1.00  0.00    -0.261 N 
HETATM    3  O   UNL     1     -12.509   1.699 -35.822  1.00  0.00    -0.264 OA
HETATM    4  H   UNL     1     -12.274   3.165 -32.981  1.00  0.00     0.190 HD
ENDROOT
BRANCH   2   5
HETATM    5  N   UNL     1     -13.503   3.881 -34.460  1.00  0.00    -0.249 N 
HETATM    6  C   UNL     1     -12.950   5.125 -34.672  1.00  0.00     0.334 C 
HETATM    7  N   UNL     1     -13.851   6.025 -35.184  1.00  0.00    -0.341 N 
HETATM    8  O   UNL     1     -11.766   5.369 -34.455  1.00  0.00    -0.246 OA
HETATM    9  H   UNL     1     -14.579   5.598 -35.739  1.00  0.00     0.164 HD
HETATM   10  H   UNL     1     -14.483   3.805 -34.203  1.00  0.00     0.192 HD
BRANCH   7  11
HETATM   11  C   UNL     1     -13.355   7.317 -35.617  1.00  0.00     0.129 C 
BRANCH  11  12
HETATM   12  C   UNL     1     -13.882   7.786 -36.980  1.00  0.00     0.004 C 
HETATM   13  C   UNL     1     -13.516   9.249 -37.278  1.00  0.00     0.010 C 
HETATM   14  C   UNL     1     -14.011   9.717 -38.658  1.00  0.00    -0.018 C 
HETATM   15  C   UNL     1     -15.510   9.429 -38.830  1.00  0.00     0.004 C 
HETATM   16  C   UNL     1     -13.185   9.106 -39.796  1.00  0.00     0.010 C 
HETATM   17  C   UNL     1     -15.884   7.982 -38.514  1.00  0.00     0.001 C 
HETATM   18  C   UNL     1     -15.393   7.561 -37.131  1.00  0.00     0.006 C 
ENDBRANCH  11  12
ENDBRANCH   7  11
ENDBRANCH   2   5
BRANCH   1  19
HETATM   19  C   UNL     1     -11.050   1.179 -34.062  1.00  0.00     0.121 A 
HETATM   20  N   UNL     1     -11.279   0.260 -33.077  1.00  0.00    -0.272 N 
HETATM   21  N   UNL     1     -10.177  -0.377 -32.651  1.00  0.00    -0.174 NA
HETATM   22  H   UNL     1     -12.175   0.013 -32.669  1.00  0.00     0.189 HD
HETATM   23  C   UNL     1      -9.176   0.157 -33.368  1.00  0.00     0.089 A 
HETATM   24  C   UNL     1      -9.684   1.144 -34.258  1.00  0.00     0.071 A 
BRANCH  23  25
HETATM   25  C   UNL     1      -7.785  -0.285 -33.224  1.00  0.00    -0.006 A 
HETATM   26  C   UNL     1      -7.046   0.050 -32.081  1.00  0.00     0.014 A 
HETATM   27  C   UNL     1      -5.733  -0.405 -31.917  1.00  0.00     0.007 A 
HETATM   28  C   UNL     1      -5.128  -1.193 -32.901  1.00  0.00    -0.062 A 
HETATM   29  C   UNL     1      -3.732  -1.713 -32.725  1.00  0.00     0.048 C 
HETATM   30  C   UNL     1      -5.858  -1.525 -34.046  1.00  0.00     0.007 A 
HETATM   31  C   UNL     1      -7.172  -1.073 -34.207  1.00  0.00     0.014 A 
ENDBRANCH  23  25
ENDBRANCH   1  19
TORSDOF 5
ENDMDL
MODEL 8
REMARK VINA RESULT:      -7.9      2.188     11.230
REMARK  5 active torsions:
REMARK  status: ('A' for Active; 'I' for Inactive)
REMARK    1  A    between atoms: C_5  and  C_6 
REMARK    2  A    between atoms: C_10  and  C_11 
REMARK       I    between atoms: C_11  and  N_12 
REMARK    3  A    between atoms: N_12  and  N_13 
REMARK       I    between atoms: N_13  and  C_14 
REMARK       I    between atoms: C_14  and  N_15 
REMARK    4  A    between atoms: N_15  and  C_16 
REMARK    5  A    between atoms: C_16  and  C_17 
ROOT
HETATM    1  C   UNL     1      -4.421   6.068 -30.557  1.00  0.00     0.288 C 
HETATM    2  N   UNL     1      -4.459   4.718 -30.287  1.00  0.00    -0.261 N 
HETATM    3  O   UNL     1      -5.343   6.657 -31.119  1.00  0.00    -0.264 OA
HETATM    4  H   UNL     1      -3.735   4.240 -29.755  1.00  0.00     0.190 HD
ENDROOT
BRANCH   2   5
HETATM    5  N   UNL     1      -5.660   4.006 -30.428  1.00  0.00    -0.249 N 
HETATM    6  C   UNL     1      -5.528   2.660 -30.693  1.00  0.00     0.334 C 
HETATM    7  N   UNL     1      -6.737   2.033 -30.862  1.00  0.00    -0.341 N 
HETATM    8  O   UNL     1      -4.439   2.096 -30.729  1.00  0.00    -0.246 OA
HETATM    9  H   UNL     1      -7.493   2.465 -30.350  1.00  0.00     0.164 HD
HETATM   10  H   UNL     1      -6.436   4.523 -30.832  1.00  0.00     0.192 HD
BRANCH   7  11
HETATM   11  C   UNL     1      -6.748   0.587 -30.970  1.00  0.00     0.129 C 
BRANCH  11  12
HETATM   12  C   UNL     1      -7.136   0.045 -32.353  1.00  0.00     0.004 C 
HETATM   13  C   UNL     1      -5.911  -0.366 -33.185  1.00  0.00     0.010 C 
HETATM   14  C   UNL     1      -6.293  -0.943 -34.560  1.00  0.00    -0.018 C 
HETATM   15  C   UNL     1      -7.234   0.011 -35.312  1.00  0.00     0.004 C 
HETATM   16  C   UNL     1      -6.891  -2.348 -34.442  1.00  0.00     0.010 C 
HETATM   17  C   UNL     1      -8.442   0.442 -34.483  1.00  0.00     0.001 C 
HETATM   18  C   UNL     1      -8.022   1.025 -33.135  1.00  0.00     0.006 C 
ENDBRANCH  11  12
ENDBRANCH   7  11
ENDBRANCH   2   5
BRANCH   1  19
HETATM   19  C   UNL     1      -3.223   6.734 -30.118  1.00  0.00     0.121 A 
HETATM   20  N   UNL     1      -2.544   7.615 -30.912  1.00  0.00    -0.272 N 
HETATM   21  N   UNL     1      -1.478   8.179 -30.321  1.00  0.00    -0.174 NA
HETATM   22  H   UNL     1      -2.775   7.883 -31.863  1.00  0.00     0.189 HD
HETATM   23  C   UNL     1      -1.439   7.633 -29.095  1.00  0.00     0.089 A 
HETATM   24  C   UNL     1      -2.514   6.714 -28.934  1.00  0.00     0.071 A 
BRANCH  23  25
HETATM   25  C   UNL     1      -0.423   8.003 -28.105  1.00  0.00    -0.006 A 
HETATM   26  C   UNL     1       0.497   7.053 -27.638  1.00  0.00     0.014 A 
HETATM   27  C   UNL     1       1.495   7.409 -26.726  1.00  0.00     0.007 A 
HETATM   28  C   UNL     1       1.586   8.721 -26.251  1.00  0.00    -0.062 A 
HETATM   29  C   UNL     1       2.670   9.125 -25.295  1.00  0.00     0.048 C 
HETATM   30  C   UNL     1       0.668   9.672 -26.707  1.00  0.00     0.007 A 
HETATM   31  C   UNL     1      -0.328   9.315 -27.622  1.00  0.00     0.014 A 
ENDBRANCH  23  25
ENDBRANCH   1  19
TORSDOF 5
ENDMDL
MODEL 9
REMARK VINA RESULT:      -7.8      4.659     12.381
REMARK  5 active torsions:
REMARK  status: ('A' for Active; 'I' for Inactive)
REMARK    1  A    between atoms: C_5  and  C_6 
REMARK    2  A    between atoms: C_10  and  C_11 
REMARK       I    between atoms: C_11  and  N_12 
REMARK    3  A    between atoms: N_12  and  N_13 
REMARK       I    between atoms: N_13  and  C_14 
REMARK       I    between atoms: C_14  and  N_15 
REMARK    4  A    between atoms: N_15  and  C_16 
REMARK    5  A    between atoms: C_16  and  C_17 
ROOT
HETATM    1  C   UNL     1      -0.062   7.699 -27.380  1.00  0.00     0.288 C 
HETATM    2  N   UNL     1       0.473   6.589 -27.996  1.00  0.00    -0.261 N 
HETATM    3  O   UNL     1      -1.204   8.093 -27.602  1.00  0.00    -0.264 OA
HETATM    4  H   UNL     1       1.389   6.213 -27.761  1.00  0.00     0.190 HD
ENDROOT
BRANCH   2   5
HETATM    5  N   UNL     1      -0.355   5.721 -28.725  1.00  0.00    -0.249 N 
HETATM    6  C   UNL     1      -0.315   5.867 -30.094  1.00  0.00     0.334 C 
HETATM    7  N   UNL     1      -1.179   5.020 -30.742  1.00  0.00    -0.341 N 
HETATM    8  O   UNL     1       0.448   6.648 -30.655  1.00  0.00    -0.246 OA
HETATM    9  H   UNL     1      -1.354   4.159 -30.243  1.00  0.00     0.164 HD
HETATM   10  H   UNL     1      -1.227   5.459 -28.273  1.00  0.00     0.192 HD
BRANCH   7  11
HETATM   11  C   UNL     1      -1.108   4.946 -32.189  1.00  0.00     0.129 C 
BRANCH  11  12
HETATM   12  C   UNL     1      -2.422   5.259 -32.916  1.00  0.00     0.004 C 
HETATM   13  C   UNL     1      -3.622   4.517 -32.305  1.00  0.00     0.010 C 
HETATM   14  C   UNL     1      -4.949   4.852 -33.008  1.00  0.00    -0.018 C 
HETATM   15  C   UNL     1      -4.832   4.649 -34.526  1.00  0.00     0.004 C 
HETATM   16  C   UNL     1      -5.435   6.264 -32.662  1.00  0.00     0.010 C 
HETATM   17  C   UNL     1      -3.630   5.365 -35.137  1.00  0.00     0.001 C 
HETATM   18  C   UNL     1      -2.331   4.994 -34.426  1.00  0.00     0.006 C 
ENDBRANCH  11  12
ENDBRANCH   7  11
ENDBRANCH   2   5
BRANCH   1  19
HETATM   19  C   UNL     1       0.821   8.350 -26.448  1.00  0.00     0.121 A 
HETATM   20  N   UNL     1       0.773   9.696 -26.215  1.00  0.00    -0.272 N 
HETATM   21  N   UNL     1       1.634  10.123 -25.278  1.00  0.00    -0.174 NA
HETATM   22  H   UNL     1       0.156  10.371 -26.656  1.00  0.00     0.189 HD
HETATM   23  C   UNL     1       2.293   9.019 -24.892  1.00  0.00     0.089 A 
HETATM   24  C   UNL     1       1.816   7.888 -25.611  1.00  0.00     0.071 A 
BRANCH  23  25
HETATM   25  C   UNL     1       3.324   9.045 -23.849  1.00  0.00    -0.006 A 
HETATM   26  C   UNL     1       3.090   8.453 -22.600  1.00  0.00     0.014 A 
HETATM   27  C   UNL     1       4.084   8.438 -21.616  1.00  0.00     0.007 A 
HETATM   28  C   UNL     1       5.329   9.027 -21.856  1.00  0.00    -0.062 A 
HETATM   29  C   UNL     1       6.414   8.992 -20.822  1.00  0.00     0.048 C 
HETATM   30  C   UNL     1       5.566   9.625 -23.097  1.00  0.00     0.007 A 
HETATM   31  C   UNL     1       4.573   9.637 -24.082  1.00  0.00     0.014 A 
ENDBRANCH  23  25
ENDBRANCH   1  19
TORSDOF 5
ENDMDL
MODEL 10
REMARK VINA RESULT:      -7.6      2.668     11.506
REMARK  5 active torsions:
REMARK  status: ('A' for Active; 'I' for Inactive)
REMARK    1  A    between atoms: C_5  and  C_6 
REMARK    2  A    between atoms: C_10  and  C_11 
REMARK       I    between atoms: C_11  and  N_12 
REMARK    3  A    between atoms: N_12  and  N_13 
REMARK       I    between atoms: N_13  and  C_14 
REMARK       I    between atoms: C_14  and  N_15 
REMARK    4  A    between atoms: N_15  and  C_16 
REMARK    5  A    between atoms: C_16  and  C_17 
ROOT
HETATM    1  C   UNL     1      -4.523   6.774 -29.138  1.00  0.00     0.288 C 
HETATM    2  N   UNL     1      -4.244   5.765 -30.033  1.00  0.00    -0.261 N 
HETATM    3  O   UNL     1      -5.546   7.452 -29.202  1.00  0.00    -0.264 OA
HETATM    4  H   UNL     1      -3.438   5.151 -29.940  1.00  0.00     0.190 HD
ENDROOT
BRANCH   2   5
HETATM    5  N   UNL     1      -5.239   5.310 -30.912  1.00  0.00    -0.249 N 
HETATM    6  C   UNL     1      -5.651   4.008 -30.725  1.00  0.00     0.334 C 
HETATM    7  N   UNL     1      -6.591   3.613 -31.644  1.00  0.00    -0.341 N 
HETATM    8  O   UNL     1      -5.237   3.308 -29.805  1.00  0.00    -0.246 OA
HETATM    9  H   UNL     1      -7.161   4.371 -31.991  1.00  0.00     0.164 HD
HETATM   10  H   UNL     1      -5.210   5.697 -31.851  1.00  0.00     0.192 HD
BRANCH   7  11
HETATM   11  C   UNL     1      -7.236   2.329 -31.452  1.00  0.00     0.129 C 
BRANCH  11  12
HETATM   12  C   UNL     1      -6.894   1.271 -32.510  1.00  0.00     0.004 C 
HETATM   13  C   UNL     1      -8.131   0.486 -32.976  1.00  0.00     0.010 C 
HETATM   14  C   UNL     1      -7.802  -0.554 -34.061  1.00  0.00    -0.018 C 
HETATM   15  C   UNL     1      -6.649  -1.466 -33.615  1.00  0.00     0.004 C 
HETATM   16  C   UNL     1      -7.508   0.107 -35.412  1.00  0.00     0.010 C 
HETATM   17  C   UNL     1      -5.424  -0.693 -33.130  1.00  0.00     0.001 C 
HETATM   18  C   UNL     1      -5.788   0.315 -32.042  1.00  0.00     0.006 C 
ENDBRANCH  11  12
ENDBRANCH   7  11
ENDBRANCH   2   5
BRANCH   1  19
HETATM   19  C   UNL     1      -3.525   6.963 -28.118  1.00  0.00     0.121 A 
HETATM   20  N   UNL     1      -3.563   6.296 -26.926  1.00  0.00    -0.272 N 
HETATM   21  N   UNL     1      -2.525   6.557 -26.115  1.00  0.00    -0.174 NA
HETATM   22  H   UNL     1      -4.269   5.634 -26.619  1.00  0.00     0.189 HD
HETATM   23  C   UNL     1      -1.782   7.448 -26.790  1.00  0.00     0.089 A 
HETATM   24  C   UNL     1      -2.383   7.734 -28.048  1.00  0.00     0.071 A 
BRANCH  23  25
HETATM   25  C   UNL     1      -0.525   7.984 -26.257  1.00  0.00    -0.006 A 
HETATM   26  C   UNL     1      -0.533   9.042 -25.338  1.00  0.00     0.014 A 
HETATM   27  C   UNL     1       0.660   9.529 -24.794  1.00  0.00     0.007 A 
HETATM   28  C   UNL     1       1.888   8.975 -25.168  1.00  0.00    -0.062 A 
HETATM   29  C   UNL     1       3.173   9.467 -24.570  1.00  0.00     0.048 C 
HETATM   30  C   UNL     1       1.904   7.924 -26.090  1.00  0.00     0.007 A 
HETATM   31  C   UNL     1       0.710   7.436 -26.631  1.00  0.00     0.014 A 
ENDBRANCH  23  25
ENDBRANCH   1  19
TORSDOF 5
ENDMDL
