MODEL 1
REMARK VINA RESULT:      -8.2      0.000      0.000
REMARK  3 active torsions:
REMARK  status: ('A' for Active; 'I' for Inactive)
REMARK    1  A    between atoms: C_8  and  C_9 
REMARK    2  A    between atoms: C_10  and  O_11 
REMARK    3  A    between atoms: C_24  and  N_25 
ROOT
HETATM    1  C   UNL     1      -8.975   2.788 -30.934  1.00  0.00     0.070 C 
HETATM    2  C   UNL     1      -7.555   2.955 -30.558  1.00  0.00     0.035 A 
HETATM    3  N   UNL     1      -7.125   2.936 -29.250  1.00  0.00    -0.280 N 
HETATM    4  H   UNL     1      -7.682   2.809 -28.411  1.00  0.00     0.189 HD
HETATM    5  N   UNL     1      -5.798   3.131 -29.110  1.00  0.00    -0.148 NA
HETATM    6  C   UNL     1      -5.395   3.265 -30.367  1.00  0.00     0.199 A 
HETATM    7  C   UNL     1      -6.415   3.140 -31.314  1.00  0.00     0.034 A 
HETATM    8  C   UNL     1      -6.118   3.262 -32.769  1.00  0.00     0.107 C 
HETATM    9  C   UNL     1      -4.721   3.822 -32.970  1.00  0.00     0.067 C 
HETATM   10  C   UNL     1      -4.430   4.501 -34.298  1.00  0.00     0.020 C 
HETATM   11  N   UNL     1      -4.189   5.065 -35.400  1.00  0.00    -0.096 N 
HETATM   12  C   UNL     1      -3.807   3.920 -31.967  1.00  0.00     0.139 C 
HETATM   13  O   UNL     1      -4.105   3.529 -30.651  1.00  0.00    -0.277 OA
ENDROOT
BRANCH   8  14
HETATM   14  C   UNL     1      -6.270   1.860 -33.348  1.00  0.00    -0.010 A 
HETATM   15  C   UNL     1      -7.412   1.513 -34.086  1.00  0.00     0.076 A 
HETATM   16  C   UNL     1      -7.528   0.246 -34.671  1.00  0.00     0.049 A 
HETATM   17  C   UNL     1      -6.528  -0.725 -34.497  1.00  0.00    -0.023 A 
HETATM   18  C   UNL     1      -5.384  -0.404 -33.739  1.00  0.00    -0.025 A 
HETATM   19  C   UNL     1      -6.633  -2.005 -35.066  1.00  0.00     0.012 A 
HETATM   20  C   UNL     1      -5.262   0.882 -33.191  1.00  0.00     0.023 A 
HETATM   21  C   UNL     1      -4.384  -1.373 -33.553  1.00  0.00     0.012 A 
HETATM   22  C   UNL     1      -4.509  -2.643 -34.115  1.00  0.00     0.001 A 
HETATM   23  C   UNL     1      -5.631  -2.957 -34.875  1.00  0.00     0.001 A 
BRANCH  15  24
HETATM   24  O   UNL     1      -8.364   2.481 -34.278  1.00  0.00    -0.355 OA
HETATM   25  C   UNL     1      -9.691   1.960 -34.307  1.00  0.00     0.210 C 
ENDBRANCH  15  24
ENDBRANCH   8  14
BRANCH  12  26
HETATM   26  N   UNL     1      -2.537   4.440 -32.090  1.00  0.00    -0.282 NA
HETATM   27  H   UNL     1      -2.427   5.422 -31.855  1.00  0.00     0.126 HD
HETATM   28  H   UNL     1      -1.838   3.842 -31.655  1.00  0.00     0.126 HD
ENDBRANCH  12  26
TORSDOF 3
ENDMDL
MODEL 2
REMARK VINA RESULT:      -7.8      2.605      5.596
REMARK  3 active torsions:
REMARK  status: ('A' for Active; 'I' for Inactive)
REMARK    1  A    between atoms: C_8  and  C_9 
REMARK    2  A    between atoms: C_10  and  O_11 
REMARK    3  A    between atoms: C_24  and  N_25 
ROOT
HETATM    1  C   UNL     1      -7.643   3.315 -29.641  1.00  0.00     0.070 C 
HETATM    2  C   UNL     1      -8.173   3.118 -31.007  1.00  0.00     0.035 A 
HETATM    3  N   UNL     1      -9.306   3.754 -31.464  1.00  0.00    -0.280 N 
HETATM    4  H   UNL     1      -9.899   4.410 -30.966  1.00  0.00     0.189 HD
HETATM    5  N   UNL     1      -9.644   3.424 -32.728  1.00  0.00    -0.148 NA
HETATM    6  C   UNL     1      -8.690   2.567 -33.064  1.00  0.00     0.199 A 
HETATM    7  C   UNL     1      -7.733   2.351 -32.067  1.00  0.00     0.034 A 
HETATM    8  C   UNL     1      -6.595   1.417 -32.298  1.00  0.00     0.107 C 
HETATM    9  C   UNL     1      -6.845   0.591 -33.547  1.00  0.00     0.067 C 
HETATM   10  C   UNL     1      -6.108  -0.733 -33.662  1.00  0.00     0.020 C 
HETATM   11  N   UNL     1      -5.496  -1.832 -33.757  1.00  0.00    -0.096 N 
HETATM   12  C   UNL     1      -7.824   0.879 -34.447  1.00  0.00     0.139 C 
HETATM   13  O   UNL     1      -8.703   1.960 -34.266  1.00  0.00    -0.277 OA
ENDROOT
BRANCH   8  14
HETATM   14  C   UNL     1      -5.352   2.292 -32.419  1.00  0.00    -0.010 A 
HETATM   15  C   UNL     1      -4.232   2.054 -31.609  1.00  0.00     0.076 A 
HETATM   16  C   UNL     1      -3.066   2.815 -31.759  1.00  0.00     0.049 A 
HETATM   17  C   UNL     1      -3.003   3.865 -32.690  1.00  0.00    -0.023 A 
HETATM   18  C   UNL     1      -4.127   4.136 -33.496  1.00  0.00    -0.025 A 
HETATM   19  C   UNL     1      -1.847   4.648 -32.845  1.00  0.00     0.012 A 
HETATM   20  C   UNL     1      -5.275   3.340 -33.363  1.00  0.00     0.023 A 
HETATM   21  C   UNL     1      -4.076   5.191 -34.422  1.00  0.00     0.012 A 
HETATM   22  C   UNL     1      -2.924   5.965 -34.557  1.00  0.00     0.001 A 
HETATM   23  C   UNL     1      -1.809   5.691 -33.772  1.00  0.00     0.001 A 
BRANCH  15  24
HETATM   24  O   UNL     1      -4.292   1.003 -30.729  1.00  0.00    -0.355 OA
HETATM   25  C   UNL     1      -3.415  -0.066 -31.075  1.00  0.00     0.210 C 
ENDBRANCH  15  24
ENDBRANCH   8  14
BRANCH  12  26
HETATM   26  N   UNL     1      -8.106   0.151 -35.582  1.00  0.00    -0.282 NA
HETATM   27  H   UNL     1      -8.634   0.631 -36.305  1.00  0.00     0.126 HD
HETATM   28  H   UNL     1      -7.284  -0.332 -35.938  1.00  0.00     0.126 HD
ENDBRANCH  12  26
TORSDOF 3
ENDMDL
MODEL 3
REMARK VINA RESULT:      -7.8     15.360     17.448
REMARK  3 active torsions:
REMARK  status: ('A' for Active; 'I' for Inactive)
REMARK    1  A    between atoms: C_8  and  C_9 
REMARK    2  A    between atoms: C_10  and  O_11 
REMARK    3  A    between atoms: C_24  and  N_25 
ROOT
HETATM    1  C   UNL     1      -3.799 -14.993 -40.425  1.00  0.00     0.070 C 
HETATM    2  C   UNL     1      -3.781 -13.975 -39.352  1.00  0.00     0.035 A 
HETATM    3  N   UNL     1      -3.044 -12.815 -39.441  1.00  0.00    -0.280 N 
HETATM    4  H   UNL     1      -2.450 -12.509 -40.205  1.00  0.00     0.189 HD
HETATM    5  N   UNL     1      -3.136 -12.026 -38.351  1.00  0.00    -0.148 NA
HETATM    6  C   UNL     1      -3.960 -12.713 -37.571  1.00  0.00     0.199 A 
HETATM    7  C   UNL     1      -4.420 -13.908 -38.131  1.00  0.00     0.034 A 
HETATM    8  C   UNL     1      -5.357 -14.788 -37.377  1.00  0.00     0.107 C 
HETATM    9  C   UNL     1      -5.427 -14.349 -35.925  1.00  0.00     0.067 C 
HETATM   10  C   UNL     1      -5.880 -15.385 -34.909  1.00  0.00     0.020 C 
HETATM   11  N   UNL     1      -6.256 -16.244 -34.066  1.00  0.00    -0.096 N 
HETATM   12  C   UNL     1      -4.924 -13.167 -35.479  1.00  0.00     0.139 C 
HETATM   13  O   UNL     1      -4.271 -12.267 -36.339  1.00  0.00    -0.277 OA
ENDROOT
BRANCH   8  14
HETATM   14  C   UNL     1      -6.702 -14.674 -38.084  1.00  0.00    -0.010 A 
HETATM   15  C   UNL     1      -7.497 -15.811 -38.292  1.00  0.00     0.076 A 
HETATM   16  C   UNL     1      -8.761 -15.701 -38.886  1.00  0.00     0.049 A 
HETATM   17  C   UNL     1      -9.245 -14.460 -39.331  1.00  0.00    -0.023 A 
HETATM   18  C   UNL     1      -8.451 -13.309 -39.153  1.00  0.00    -0.025 A 
HETATM   19  C   UNL     1     -10.504 -14.333 -39.941  1.00  0.00     0.012 A 
HETATM   20  C   UNL     1      -7.204 -13.427 -38.521  1.00  0.00     0.023 A 
HETATM   21  C   UNL     1      -8.925 -12.066 -39.604  1.00  0.00     0.012 A 
HETATM   22  C   UNL     1     -10.172 -11.959 -40.217  1.00  0.00     0.001 A 
HETATM   23  C   UNL     1     -10.964 -13.091 -40.381  1.00  0.00     0.001 A 
BRANCH  15  24
HETATM   24  O   UNL     1      -7.029 -17.011 -37.822  1.00  0.00    -0.355 OA
HETATM   25  C   UNL     1      -7.995 -17.725 -37.054  1.00  0.00     0.210 C 
ENDBRANCH  15  24
ENDBRANCH   8  14
BRANCH  12  26
HETATM   26  N   UNL     1      -4.943 -12.732 -34.172  1.00  0.00    -0.282 NA
HETATM   27  H   UNL     1      -4.761 -13.434 -33.461  1.00  0.00     0.126 HD
HETATM   28  H   UNL     1      -4.397 -11.882 -34.046  1.00  0.00     0.126 HD
ENDBRANCH  12  26
TORSDOF 3
ENDMDL
MODEL 4
REMARK VINA RESULT:      -6.9     15.406     17.469
REMARK  3 active torsions:
REMARK  status: ('A' for Active; 'I' for Inactive)
REMARK    1  A    between atoms: C_8  and  C_9 
REMARK    2  A    between atoms: C_10  and  O_11 
REMARK    3  A    between atoms: C_24  and  N_25 
ROOT
HETATM    1  C   UNL     1      -6.591 -12.673 -33.817  1.00  0.00     0.070 C 
HETATM    2  C   UNL     1      -6.707 -14.121 -34.095  1.00  0.00     0.035 A 
HETATM    3  N   UNL     1      -7.400 -14.982 -33.273  1.00  0.00    -0.280 N 
HETATM    4  H   UNL     1      -7.901 -14.763 -32.418  1.00  0.00     0.189 HD
HETATM    5  N   UNL     1      -7.369 -16.267 -33.681  1.00  0.00    -0.148 NA
HETATM    6  C   UNL     1      -6.644 -16.198 -34.789  1.00  0.00     0.199 A 
HETATM    7  C   UNL     1      -6.226 -14.906 -35.123  1.00  0.00     0.034 A 
HETATM    8  C   UNL     1      -5.408 -14.666 -36.345  1.00  0.00     0.107 C 
HETATM    9  C   UNL     1      -4.894 -15.985 -36.894  1.00  0.00     0.067 C 
HETATM   10  C   UNL     1      -3.657 -15.934 -37.776  1.00  0.00     0.020 C 
HETATM   11  N   UNL     1      -2.631 -15.892 -38.508  1.00  0.00    -0.096 N 
HETATM   12  C   UNL     1      -5.358 -17.195 -36.481  1.00  0.00     0.139 C 
HETATM   13  O   UNL     1      -6.340 -17.311 -35.483  1.00  0.00    -0.277 OA
ENDROOT
BRANCH   8  14
HETATM   14  C   UNL     1      -6.322 -13.943 -37.328  1.00  0.00    -0.010 A 
HETATM   15  C   UNL     1      -5.908 -12.752 -37.941  1.00  0.00     0.076 A 
HETATM   16  C   UNL     1      -6.719 -12.117 -38.891  1.00  0.00     0.049 A 
HETATM   17  C   UNL     1      -7.985 -12.630 -39.219  1.00  0.00    -0.023 A 
HETATM   18  C   UNL     1      -8.429 -13.814 -38.595  1.00  0.00    -0.025 A 
HETATM   19  C   UNL     1      -8.817 -12.000 -40.159  1.00  0.00     0.012 A 
HETATM   20  C   UNL     1      -7.590 -14.460 -37.675  1.00  0.00     0.023 A 
HETATM   21  C   UNL     1      -9.697 -14.328 -38.911  1.00  0.00     0.012 A 
HETATM   22  C   UNL     1     -10.516 -13.685 -39.839  1.00  0.00     0.001 A 
HETATM   23  C   UNL     1     -10.074 -12.524 -40.466  1.00  0.00     0.001 A 
BRANCH  15  24
HETATM   24  O   UNL     1      -4.657 -12.280 -37.639  1.00  0.00    -0.355 OA
HETATM   25  C   UNL     1      -3.765 -12.311 -38.751  1.00  0.00     0.210 C 
ENDBRANCH  15  24
ENDBRANCH   8  14
BRANCH  12  26
HETATM   26  N   UNL     1      -4.912 -18.418 -36.931  1.00  0.00    -0.282 NA
HETATM   27  H   UNL     1      -5.581 -19.183 -36.896  1.00  0.00     0.126 HD
HETATM   28  H   UNL     1      -4.435 -18.344 -37.827  1.00  0.00     0.126 HD
ENDBRANCH  12  26
TORSDOF 3
ENDMDL
MODEL 5
REMARK VINA RESULT:      -6.8      2.798      3.641
REMARK  3 active torsions:
REMARK  status: ('A' for Active; 'I' for Inactive)
REMARK    1  A    between atoms: C_8  and  C_9 
REMARK    2  A    between atoms: C_10  and  O_11 
REMARK    3  A    between atoms: C_24  and  N_25 
ROOT
HETATM    1  C   UNL     1      -6.535   6.706 -31.082  1.00  0.00     0.070 C 
HETATM    2  C   UNL     1      -5.166   6.628 -30.527  1.00  0.00     0.035 A 
HETATM    3  N   UNL     1      -4.859   7.032 -29.247  1.00  0.00    -0.280 N 
HETATM    4  H   UNL     1      -5.484   7.414 -28.545  1.00  0.00     0.189 HD
HETATM    5  N   UNL     1      -3.552   6.907 -28.936  1.00  0.00    -0.148 NA
HETATM    6  C   UNL     1      -3.040   6.403 -30.050  1.00  0.00     0.199 A 
HETATM    7  C   UNL     1      -3.977   6.177 -31.063  1.00  0.00     0.034 A 
HETATM    8  C   UNL     1      -3.554   5.608 -32.374  1.00  0.00     0.107 C 
HETATM    9  C   UNL     1      -2.041   5.643 -32.492  1.00  0.00     0.067 C 
HETATM   10  C   UNL     1      -1.454   5.615 -33.894  1.00  0.00     0.020 C 
HETATM   11  N   UNL     1      -0.968   5.591 -35.058  1.00  0.00    -0.096 N 
HETATM   12  C   UNL     1      -1.217   5.896 -31.440  1.00  0.00     0.139 C 
HETATM   13  O   UNL     1      -1.717   6.173 -30.157  1.00  0.00    -0.277 OA
ENDROOT
BRANCH   8  14
HETATM   14  C   UNL     1      -4.107   4.188 -32.413  1.00  0.00    -0.010 A 
HETATM   15  C   UNL     1      -5.281   3.900 -33.124  1.00  0.00     0.076 A 
HETATM   16  C   UNL     1      -5.759   2.586 -33.215  1.00  0.00     0.049 A 
HETATM   17  C   UNL     1      -5.103   1.532 -32.559  1.00  0.00    -0.023 A 
HETATM   18  C   UNL     1      -3.934   1.804 -31.819  1.00  0.00    -0.025 A 
HETATM   19  C   UNL     1      -5.575   0.211 -32.628  1.00  0.00     0.012 A 
HETATM   20  C   UNL     1      -3.445   3.118 -31.770  1.00  0.00     0.023 A 
HETATM   21  C   UNL     1      -3.277   0.757 -31.153  1.00  0.00     0.012 A 
HETATM   22  C   UNL     1      -3.765  -0.548 -31.222  1.00  0.00     0.001 A 
HETATM   23  C   UNL     1      -4.910  -0.822 -31.963  1.00  0.00     0.001 A 
BRANCH  15  24
HETATM   24  O   UNL     1      -5.893   4.931 -33.790  1.00  0.00    -0.355 OA
HETATM   25  C   UNL     1      -7.301   4.750 -33.927  1.00  0.00     0.210 C 
ENDBRANCH  15  24
ENDBRANCH   8  14
BRANCH  12  26
HETATM   26  N   UNL     1       0.158   5.961 -31.499  1.00  0.00    -0.282 NA
HETATM   27  H   UNL     1       0.654   5.818 -30.623  1.00  0.00     0.126 HD
HETATM   28  H   UNL     1       0.533   5.409 -32.266  1.00  0.00     0.126 HD
ENDBRANCH  12  26
TORSDOF 3
ENDMDL
MODEL 6
REMARK VINA RESULT:      -6.8     16.583     19.015
REMARK  3 active torsions:
REMARK  status: ('A' for Active; 'I' for Inactive)
REMARK    1  A    between atoms: C_8  and  C_9 
REMARK    2  A    between atoms: C_10  and  O_11 
REMARK    3  A    between atoms: C_24  and  N_25 
ROOT
HETATM    1  C   UNL     1      -9.783 -11.755 -40.245  1.00  0.00     0.070 C 
HETATM    2  C   UNL     1     -10.220 -13.164 -40.339  1.00  0.00     0.035 A 
HETATM    3  N   UNL     1     -11.350 -13.548 -41.026  1.00  0.00    -0.280 N 
HETATM    4  H   UNL     1     -12.000 -12.961 -41.537  1.00  0.00     0.189 HD
HETATM    5  N   UNL     1     -11.595 -14.874 -40.974  1.00  0.00    -0.148 NA
HETATM    6  C   UNL     1     -10.585 -15.322 -40.242  1.00  0.00     0.199 A 
HETATM    7  C   UNL     1      -9.682 -14.333 -39.839  1.00  0.00     0.034 A 
HETATM    8  C   UNL     1      -8.492 -14.683 -39.014  1.00  0.00     0.107 C 
HETATM    9  C   UNL     1      -8.628 -16.097 -38.478  1.00  0.00     0.067 C 
HETATM   10  C   UNL     1      -7.827 -16.447 -37.234  1.00  0.00     0.020 C 
HETATM   11  N   UNL     1      -7.162 -16.737 -36.203  1.00  0.00    -0.096 N 
HETATM   12  C   UNL     1      -9.562 -16.977 -38.928  1.00  0.00     0.139 C 
HETATM   13  O   UNL     1     -10.497 -16.626 -39.916  1.00  0.00    -0.277 OA
ENDROOT
BRANCH   8  14
HETATM   14  C   UNL     1      -7.284 -14.523 -39.931  1.00  0.00    -0.010 A 
HETATM   15  C   UNL     1      -6.248 -13.638 -39.596  1.00  0.00     0.076 A 
HETATM   16  C   UNL     1      -5.108 -13.533 -40.404  1.00  0.00     0.049 A 
HETATM   17  C   UNL     1      -4.993 -14.275 -41.591  1.00  0.00    -0.023 A 
HETATM   18  C   UNL     1      -6.034 -15.152 -41.957  1.00  0.00    -0.025 A 
HETATM   19  C   UNL     1      -3.864 -14.173 -42.419  1.00  0.00     0.012 A 
HETATM   20  C   UNL     1      -7.153 -15.276 -41.118  1.00  0.00     0.023 A 
HETATM   21  C   UNL     1      -5.931 -15.890 -43.147  1.00  0.00     0.012 A 
HETATM   22  C   UNL     1      -4.807 -15.769 -43.964  1.00  0.00     0.001 A 
HETATM   23  C   UNL     1      -3.772 -14.915 -43.598  1.00  0.00     0.001 A 
BRANCH  15  24
HETATM   24  O   UNL     1      -6.356 -12.946 -38.417  1.00  0.00    -0.355 OA
HETATM   25  C   UNL     1      -5.420 -13.375 -37.430  1.00  0.00     0.210 C 
ENDBRANCH  15  24
ENDBRANCH   8  14
BRANCH  12  26
HETATM   26  N   UNL     1      -9.741 -18.261 -38.461  1.00  0.00    -0.282 NA
HETATM   27  H   UNL     1      -9.154 -18.978 -38.877  1.00  0.00     0.126 HD
HETATM   28  H   UNL     1      -9.759 -18.297 -37.444  1.00  0.00     0.126 HD
ENDBRANCH  12  26
TORSDOF 3
ENDMDL
MODEL 7
REMARK VINA RESULT:      -6.7      4.760      8.708
REMARK  3 active torsions:
REMARK  status: ('A' for Active; 'I' for Inactive)
REMARK    1  A    between atoms: C_8  and  C_9 
REMARK    2  A    between atoms: C_10  and  O_11 
REMARK    3  A    between atoms: C_24  and  N_25 
ROOT
HETATM    1  C   UNL     1      -1.859   7.129 -33.885  1.00  0.00     0.070 C 
HETATM    2  C   UNL     1      -2.280   5.910 -33.162  1.00  0.00     0.035 A 
HETATM    3  N   UNL     1      -1.906   4.645 -33.557  1.00  0.00    -0.280 N 
HETATM    4  H   UNL     1      -1.323   4.383 -34.345  1.00  0.00     0.189 HD
HETATM    5  N   UNL     1      -2.412   3.662 -32.784  1.00  0.00    -0.148 NA
HETATM    6  C   UNL     1      -3.111   4.338 -31.883  1.00  0.00     0.199 A 
HETATM    7  C   UNL     1      -3.053   5.726 -32.034  1.00  0.00     0.034 A 
HETATM    8  C   UNL     1      -3.783   6.622 -31.093  1.00  0.00     0.107 C 
HETATM    9  C   UNL     1      -4.758   5.814 -30.255  1.00  0.00     0.067 C 
HETATM   10  C   UNL     1      -5.932   6.560 -29.643  1.00  0.00     0.020 C 
HETATM   11  N   UNL     1      -6.905   7.180 -29.135  1.00  0.00    -0.096 N 
HETATM   12  C   UNL     1      -4.740   4.455 -30.197  1.00  0.00     0.139 C 
HETATM   13  O   UNL     1      -3.823   3.692 -30.939  1.00  0.00    -0.277 OA
ENDROOT
BRANCH   8  14
HETATM   14  C   UNL     1      -2.714   7.304 -30.246  1.00  0.00    -0.010 A 
HETATM   15  C   UNL     1      -2.742   8.691 -30.045  1.00  0.00     0.076 A 
HETATM   16  C   UNL     1      -1.798   9.313 -29.217  1.00  0.00     0.049 A 
HETATM   17  C   UNL     1      -0.773   8.572 -28.606  1.00  0.00    -0.023 A 
HETATM   18  C   UNL     1      -0.715   7.179 -28.815  1.00  0.00    -0.025 A 
HETATM   19  C   UNL     1       0.189   9.180 -27.784  1.00  0.00     0.012 A 
HETATM   20  C   UNL     1      -1.690   6.564 -29.614  1.00  0.00     0.023 A 
HETATM   21  C   UNL     1       0.312   6.432 -28.214  1.00  0.00     0.012 A 
HETATM   22  C   UNL     1       1.267   7.053 -27.410  1.00  0.00     0.001 A 
HETATM   23  C   UNL     1       1.203   8.425 -27.190  1.00  0.00     0.001 A 
BRANCH  15  24
HETATM   24  O   UNL     1      -3.767   9.399 -30.618  1.00  0.00    -0.355 OA
HETATM   25  C   UNL     1      -4.590  10.064 -29.663  1.00  0.00     0.210 C 
ENDBRANCH  15  24
ENDBRANCH   8  14
BRANCH  12  26
HETATM   26  N   UNL     1      -5.613   3.674 -29.471  1.00  0.00    -0.282 NA
HETATM   27  H   UNL     1      -5.875   4.025 -28.554  1.00  0.00     0.126 HD
HETATM   28  H   UNL     1      -6.409   3.374 -30.029  1.00  0.00     0.126 HD
ENDBRANCH  12  26
TORSDOF 3
ENDMDL
MODEL 8
REMARK VINA RESULT:      -6.5      1.767      3.886
REMARK  3 active torsions:
REMARK  status: ('A' for Active; 'I' for Inactive)
REMARK    1  A    between atoms: C_8  and  C_9 
REMARK    2  A    between atoms: C_10  and  O_11 
REMARK    3  A    between atoms: C_24  and  N_25 
ROOT
HETATM    1  C   UNL     1      -2.604   3.716 -31.980  1.00  0.00     0.070 C 
HETATM    2  C   UNL     1      -3.677   4.212 -32.868  1.00  0.00     0.035 A 
HETATM    3  N   UNL     1      -3.443   5.107 -33.888  1.00  0.00    -0.280 N 
HETATM    4  H   UNL     1      -2.560   5.525 -34.163  1.00  0.00     0.189 HD
HETATM    5  N   UNL     1      -4.553   5.459 -34.569  1.00  0.00    -0.148 NA
HETATM    6  C   UNL     1      -5.497   4.755 -33.960  1.00  0.00     0.199 A 
HETATM    7  C   UNL     1      -5.030   3.943 -32.922  1.00  0.00     0.034 A 
HETATM    8  C   UNL     1      -5.971   3.088 -32.145  1.00  0.00     0.107 C 
HETATM    9  C   UNL     1      -7.404   3.490 -32.443  1.00  0.00     0.067 C 
HETATM   10  C   UNL     1      -8.455   3.132 -31.404  1.00  0.00     0.020 C 
HETATM   11  N   UNL     1      -9.326   2.835 -30.542  1.00  0.00    -0.096 N 
HETATM   12  C   UNL     1      -7.750   4.309 -33.472  1.00  0.00     0.139 C 
HETATM   13  O   UNL     1      -6.787   4.872 -34.327  1.00  0.00    -0.277 OA
ENDROOT
BRANCH   8  14
HETATM   14  C   UNL     1      -5.672   1.651 -32.557  1.00  0.00    -0.010 A 
HETATM   15  C   UNL     1      -6.364   1.056 -33.621  1.00  0.00     0.076 A 
HETATM   16  C   UNL     1      -6.049  -0.242 -34.043  1.00  0.00     0.049 A 
HETATM   17  C   UNL     1      -5.066  -0.998 -33.382  1.00  0.00    -0.023 A 
HETATM   18  C   UNL     1      -4.376  -0.426 -32.294  1.00  0.00    -0.025 A 
HETATM   19  C   UNL     1      -4.747  -2.306 -33.782  1.00  0.00     0.012 A 
HETATM   20  C   UNL     1      -4.674   0.890 -31.908  1.00  0.00     0.023 A 
HETATM   21  C   UNL     1      -3.399  -1.179 -31.623  1.00  0.00     0.012 A 
HETATM   22  C   UNL     1      -3.101  -2.480 -32.026  1.00  0.00     0.001 A 
HETATM   23  C   UNL     1      -3.771  -3.041 -33.108  1.00  0.00     0.001 A 
BRANCH  15  24
HETATM   24  O   UNL     1      -7.296   1.816 -34.281  1.00  0.00    -0.355 OA
HETATM   25  C   UNL     1      -8.405   1.055 -34.753  1.00  0.00     0.210 C 
ENDBRANCH  15  24
ENDBRANCH   8  14
BRANCH  12  26
HETATM   26  N   UNL     1      -9.030   4.720 -33.772  1.00  0.00    -0.282 NA
HETATM   27  H   UNL     1      -9.759   4.431 -33.125  1.00  0.00     0.126 HD
HETATM   28  H   UNL     1      -9.067   5.711 -34.002  1.00  0.00     0.126 HD
ENDBRANCH  12  26
TORSDOF 3
ENDMDL
MODEL 9
REMARK VINA RESULT:      -6.5      3.120      6.314
REMARK  3 active torsions:
REMARK  status: ('A' for Active; 'I' for Inactive)
REMARK    1  A    between atoms: C_8  and  C_9 
REMARK    2  A    between atoms: C_10  and  O_11 
REMARK    3  A    between atoms: C_24  and  N_25 
ROOT
HETATM    1  C   UNL     1      -7.994   7.478 -31.800  1.00  0.00     0.070 C 
HETATM    2  C   UNL     1      -8.108   6.287 -32.670  1.00  0.00     0.035 A 
HETATM    3  N   UNL     1      -8.863   6.277 -33.821  1.00  0.00    -0.280 N 
HETATM    4  H   UNL     1      -9.412   7.034 -34.215  1.00  0.00     0.189 HD
HETATM    5  N   UNL     1      -8.862   5.091 -34.463  1.00  0.00    -0.148 NA
HETATM    6  C   UNL     1      -8.076   4.350 -33.693  1.00  0.00     0.199 A 
HETATM    7  C   UNL     1      -7.552   5.026 -32.587  1.00  0.00     0.034 A 
HETATM    8  C   UNL     1      -6.648   4.329 -31.630  1.00  0.00     0.107 C 
HETATM    9  C   UNL     1      -6.684   2.831 -31.878  1.00  0.00     0.067 C 
HETATM   10  C   UNL     1      -6.276   1.927 -30.726  1.00  0.00     0.020 C 
HETATM   11  N   UNL     1      -5.937   1.178 -29.771  1.00  0.00    -0.096 N 
HETATM   12  C   UNL     1      -7.242   2.273 -32.986  1.00  0.00     0.139 C 
HETATM   13  O   UNL     1      -7.857   3.053 -33.980  1.00  0.00    -0.277 OA
ENDROOT
BRANCH   8  14
HETATM   14  C   UNL     1      -5.261   4.922 -31.854  1.00  0.00    -0.010 A 
HETATM   15  C   UNL     1      -4.606   5.611 -30.824  1.00  0.00     0.076 A 
HETATM   16  C   UNL     1      -3.307   6.103 -31.005  1.00  0.00     0.049 A 
HETATM   17  C   UNL     1      -2.646   5.961 -32.236  1.00  0.00    -0.023 A 
HETATM   18  C   UNL     1      -3.297   5.293 -33.293  1.00  0.00    -0.025 A 
HETATM   19  C   UNL     1      -1.349   6.461 -32.441  1.00  0.00     0.012 A 
HETATM   20  C   UNL     1      -4.583   4.770 -33.084  1.00  0.00     0.023 A 
HETATM   21  C   UNL     1      -2.647   5.155 -34.530  1.00  0.00     0.012 A 
HETATM   22  C   UNL     1      -1.363   5.666 -34.720  1.00  0.00     0.001 A 
HETATM   23  C   UNL     1      -0.713   6.314 -33.675  1.00  0.00     0.001 A 
BRANCH  15  24
HETATM   24  O   UNL     1      -5.247   5.712 -29.616  1.00  0.00    -0.355 OA
HETATM   25  C   UNL     1      -4.680   6.705 -28.764  1.00  0.00     0.210 C 
ENDBRANCH  15  24
ENDBRANCH   8  14
BRANCH  12  26
HETATM   26  N   UNL     1      -7.320   0.923 -33.248  1.00  0.00    -0.282 NA
HETATM   27  H   UNL     1      -6.668   0.327 -32.745  1.00  0.00     0.126 HD
HETATM   28  H   UNL     1      -8.279   0.584 -33.216  1.00  0.00     0.126 HD
ENDBRANCH  12  26
TORSDOF 3
ENDMDL
MODEL 10
REMARK VINA RESULT:      -6.4      3.931      5.461
REMARK  3 active torsions:
REMARK  status: ('A' for Active; 'I' for Inactive)
REMARK    1  A    between atoms: C_8  and  C_9 
REMARK    2  A    between atoms: C_10  and  O_11 
REMARK    3  A    between atoms: C_24  and  N_25 
ROOT
HETATM    1  C   UNL     1      -7.505   6.599 -32.375  1.00  0.00     0.070 C 
HETATM    2  C   UNL     1      -7.565   6.545 -30.899  1.00  0.00     0.035 A 
HETATM    3  N   UNL     1      -8.753   6.557 -30.203  1.00  0.00    -0.280 N 
HETATM    4  H   UNL     1      -9.696   6.597 -30.575  1.00  0.00     0.189 HD
HETATM    5  N   UNL     1      -8.600   6.529 -28.863  1.00  0.00    -0.148 NA
HETATM    6  C   UNL     1      -7.281   6.490 -28.727  1.00  0.00     0.199 A 
HETATM    7  C   UNL     1      -6.579   6.468 -29.936  1.00  0.00     0.034 A 
HETATM    8  C   UNL     1      -5.090   6.419 -29.948  1.00  0.00     0.107 C 
HETATM    9  C   UNL     1      -4.549   6.710 -28.559  1.00  0.00     0.067 C 
HETATM   10  C   UNL     1      -3.120   7.220 -28.464  1.00  0.00     0.020 C 
HETATM   11  N   UNL     1      -1.935   7.642 -28.386  1.00  0.00    -0.096 N 
HETATM   12  C   UNL     1      -5.329   6.728 -27.445  1.00  0.00     0.139 C 
HETATM   13  O   UNL     1      -6.714   6.501 -27.506  1.00  0.00    -0.277 OA
ENDROOT
BRANCH   8  14
HETATM   14  C   UNL     1      -4.719   5.023 -30.436  1.00  0.00    -0.010 A 
HETATM   15  C   UNL     1      -3.638   4.837 -31.309  1.00  0.00     0.076 A 
HETATM   16  C   UNL     1      -3.256   3.551 -31.711  1.00  0.00     0.049 A 
HETATM   17  C   UNL     1      -3.972   2.419 -31.287  1.00  0.00    -0.023 A 
HETATM   18  C   UNL     1      -5.077   2.587 -30.428  1.00  0.00    -0.025 A 
HETATM   19  C   UNL     1      -3.612   1.123 -31.690  1.00  0.00     0.012 A 
HETATM   20  C   UNL     1      -5.424   3.878 -30.002  1.00  0.00     0.023 A 
HETATM   21  C   UNL     1      -5.804   1.461 -30.008  1.00  0.00     0.012 A 
HETATM   22  C   UNL     1      -5.439   0.181 -30.426  1.00  0.00     0.001 A 
HETATM   23  C   UNL     1      -4.341   0.012 -31.263  1.00  0.00     0.001 A 
BRANCH  15  24
HETATM   24  O   UNL     1      -2.925   5.946 -31.687  1.00  0.00    -0.355 OA
HETATM   25  C   UNL     1      -1.516   5.774 -31.560  1.00  0.00     0.210 C 
ENDBRANCH  15  24
ENDBRANCH   8  14
BRANCH  12  26
HETATM   26  N   UNL     1      -4.893   7.006 -26.168  1.00  0.00    -0.282 NA
HETATM   27  H   UNL     1      -5.345   6.494 -25.416  1.00  0.00     0.126 HD
HETATM   28  H   UNL     1      -3.878   7.002 -26.103  1.00  0.00     0.126 HD
ENDBRANCH  12  26
TORSDOF 3
ENDMDL
