MODEL 1
REMARK VINA RESULT:      -8.5      0.000      0.000
REMARK  7 active torsions:
REMARK  status: ('A' for Active; 'I' for Inactive)
REMARK    1  A    between atoms: C_2  and  C_3 
REMARK    2  A    between atoms: C_3  and  C_4 
REMARK    3  A    between atoms: C_3  and  C_12 
REMARK    4  A    between atoms: C_7  and  O_8 
REMARK    5  A    between atoms: C_12  and  C_13 
REMARK       I    between atoms: C_13  and  N_14 
REMARK    6  A    between atoms: N_14  and  C_15 
REMARK    7  A    between atoms: C_22  and  C_23 
REMARK       I    between atoms: C_23  and  N_24 
ROOT
HETATM    1  C   UNL     1      -5.812   2.675 -32.163  1.00  0.00     0.222 C 
HETATM    2  N   UNL     1      -4.552   2.716 -32.724  1.00  0.00    -0.327 N 
HETATM    3  O   UNL     1      -6.415   3.625 -31.671  1.00  0.00    -0.273 OA
HETATM    4  H   UNL     1      -4.176   1.847 -33.074  1.00  0.00     0.169 HD
ENDROOT
BRANCH   2   5
HETATM    5  C   UNL     1      -3.672   3.819 -32.792  1.00  0.00     0.035 A 
HETATM    6  C   UNL     1      -2.577   4.003 -31.936  1.00  0.00     0.046 A 
HETATM    7  C   UNL     1      -1.757   5.144 -32.086  1.00  0.00     0.030 A 
HETATM    8  C   UNL     1      -2.056   6.056 -33.090  1.00  0.00     0.063 A 
HETATM    9  C   UNL     1      -0.603   5.676 -31.436  1.00  0.00     0.156 A 
HETATM   10  N   UNL     1      -1.101   7.029 -32.994  1.00  0.00    -0.277 N 
HETATM   11  C   UNL     1      -3.136   5.906 -33.961  1.00  0.00     0.034 A 
HETATM   12  H   UNL     1      -1.005   7.855 -33.572  1.00  0.00     0.189 HD
HETATM   13  N   UNL     1      -0.209   6.838 -32.008  1.00  0.00    -0.168 NA
HETATM   14  C   UNL     1      -3.938   4.771 -33.787  1.00  0.00     0.032 A 
BRANCH   9  15
HETATM   15  C   UNL     1       0.123   5.111 -30.290  1.00  0.00     0.270 C 
HETATM   16  N   UNL     1      -0.352   5.521 -29.073  1.00  0.00    -0.365 N 
HETATM   17  H   UNL     1      -1.140   6.157 -29.049  1.00  0.00     0.159 HD
HETATM   18  H   UNL     1       0.080   5.179 -28.229  1.00  0.00     0.159 HD
HETATM   19  O   UNL     1       1.067   4.335 -30.371  1.00  0.00    -0.266 OA
ENDBRANCH   9  15
ENDBRANCH   2   5
BRANCH   1  20
HETATM   20  C   UNL     1      -6.511   1.320 -32.258  1.00  0.00     0.112 C 
BRANCH  20  21
HETATM   21  C   UNL     1      -6.750   0.764 -33.676  1.00  0.00     0.027 C 
BRANCH  21  22
HETATM   22  C   UNL     1      -8.238   0.826 -34.093  1.00  0.00     0.005 C 
HETATM   23  C   UNL     1      -9.261   0.690 -32.973  1.00  0.00     0.006 C 
ENDBRANCH  21  22
BRANCH  21  24
HETATM   24  C   UNL     1      -6.145  -0.608 -33.928  1.00  0.00    -0.053 A 
HETATM   25  C   UNL     1      -6.843  -1.628 -34.585  1.00  0.00     0.010 A 
HETATM   26  C   UNL     1      -6.263  -2.888 -34.758  1.00  0.00     0.037 A 
HETATM   27  C   UNL     1      -4.985  -3.159 -34.270  1.00  0.00     0.068 A 
HETATM   28  C   UNL     1      -4.269  -2.143 -33.641  1.00  0.00     0.037 A 
HETATM   29  C   UNL     1      -4.843  -0.879 -33.476  1.00  0.00     0.010 A 
BRANCH  27  30
HETATM   30  O   UNL     1      -4.540  -4.434 -34.484  1.00  0.00    -0.356 OA
HETATM   31  C   UNL     1      -3.412  -4.842 -33.719  1.00  0.00     0.210 C 
ENDBRANCH  27  30
ENDBRANCH  21  24
ENDBRANCH  20  21
ENDBRANCH   1  20
TORSDOF 7
ENDMDL
MODEL 2
REMARK VINA RESULT:      -8.3      1.987      4.193
REMARK  7 active torsions:
REMARK  status: ('A' for Active; 'I' for Inactive)
REMARK    1  A    between atoms: C_2  and  C_3 
REMARK    2  A    between atoms: C_3  and  C_4 
REMARK    3  A    between atoms: C_3  and  C_12 
REMARK    4  A    between atoms: C_7  and  O_8 
REMARK    5  A    between atoms: C_12  and  C_13 
REMARK       I    between atoms: C_13  and  N_14 
REMARK    6  A    between atoms: N_14  and  C_15 
REMARK    7  A    between atoms: C_22  and  C_23 
REMARK       I    between atoms: C_23  and  N_24 
ROOT
HETATM    1  C   UNL     1      -3.973  -0.447 -32.584  1.00  0.00     0.222 C 
HETATM    2  N   UNL     1      -4.247   0.821 -33.056  1.00  0.00    -0.327 N 
HETATM    3  O   UNL     1      -3.717  -0.745 -31.420  1.00  0.00    -0.273 OA
HETATM    4  H   UNL     1      -4.422   0.916 -34.044  1.00  0.00     0.169 HD
ENDROOT
BRANCH   2   5
HETATM    5  C   UNL     1      -4.223   2.035 -32.333  1.00  0.00     0.035 A 
HETATM    6  C   UNL     1      -3.143   2.928 -32.334  1.00  0.00     0.046 A 
HETATM    7  C   UNL     1      -3.219   4.117 -31.575  1.00  0.00     0.030 A 
HETATM    8  C   UNL     1      -4.374   4.375 -30.849  1.00  0.00     0.063 A 
HETATM    9  C   UNL     1      -2.364   5.231 -31.316  1.00  0.00     0.156 A 
HETATM   10  N   UNL     1      -4.157   5.578 -30.236  1.00  0.00    -0.277 N 
HETATM   11  C   UNL     1      -5.470   3.512 -30.824  1.00  0.00     0.034 A 
HETATM   12  H   UNL     1      -4.792   6.080 -29.626  1.00  0.00     0.189 HD
HETATM   13  N   UNL     1      -2.957   6.124 -30.491  1.00  0.00    -0.168 NA
HETATM   14  C   UNL     1      -5.367   2.336 -31.578  1.00  0.00     0.032 A 
BRANCH   9  15
HETATM   15  C   UNL     1      -1.006   5.459 -31.829  1.00  0.00     0.270 C 
HETATM   16  N   UNL     1      -0.898   6.542 -32.659  1.00  0.00    -0.365 N 
HETATM   17  H   UNL     1      -1.728   7.091 -32.851  1.00  0.00     0.159 HD
HETATM   18  H   UNL     1      -0.002   6.781 -33.053  1.00  0.00     0.159 HD
HETATM   19  O   UNL     1      -0.029   4.771 -31.559  1.00  0.00    -0.266 OA
ENDBRANCH   9  15
ENDBRANCH   2   5
BRANCH   1  20
HETATM   20  C   UNL     1      -4.092  -1.557 -33.627  1.00  0.00     0.112 C 
BRANCH  20  21
HETATM   21  C   UNL     1      -5.490  -2.173 -33.824  1.00  0.00     0.027 C 
BRANCH  21  22
HETATM   22  C   UNL     1      -5.515  -3.238 -34.946  1.00  0.00     0.005 C 
HETATM   23  C   UNL     1      -6.692  -4.205 -34.934  1.00  0.00     0.006 C 
ENDBRANCH  21  22
BRANCH  21  24
HETATM   24  C   UNL     1      -6.614  -1.160 -33.977  1.00  0.00    -0.053 A 
HETATM   25  C   UNL     1      -6.841  -0.463 -35.169  1.00  0.00     0.010 A 
HETATM   26  C   UNL     1      -7.860   0.490 -35.251  1.00  0.00     0.037 A 
HETATM   27  C   UNL     1      -8.661   0.777 -34.145  1.00  0.00     0.068 A 
HETATM   28  C   UNL     1      -8.464   0.068 -32.963  1.00  0.00     0.037 A 
HETATM   29  C   UNL     1      -7.452  -0.894 -32.881  1.00  0.00     0.010 A 
BRANCH  27  30
HETATM   30  O   UNL     1      -9.606   1.744 -34.348  1.00  0.00    -0.356 OA
HETATM   31  C   UNL     1     -10.493   1.991 -33.264  1.00  0.00     0.210 C 
ENDBRANCH  27  30
ENDBRANCH  21  24
ENDBRANCH  20  21
ENDBRANCH   1  20
TORSDOF 7
ENDMDL
MODEL 3
REMARK VINA RESULT:      -8.0      1.804      4.067
REMARK  7 active torsions:
REMARK  status: ('A' for Active; 'I' for Inactive)
REMARK    1  A    between atoms: C_2  and  C_3 
REMARK    2  A    between atoms: C_3  and  C_4 
REMARK    3  A    between atoms: C_3  and  C_12 
REMARK    4  A    between atoms: C_7  and  O_8 
REMARK    5  A    between atoms: C_12  and  C_13 
REMARK       I    between atoms: C_13  and  N_14 
REMARK    6  A    between atoms: N_14  and  C_15 
REMARK    7  A    between atoms: C_22  and  C_23 
REMARK       I    between atoms: C_23  and  N_24 
ROOT
HETATM    1  C   UNL     1      -4.313   0.566 -32.349  1.00  0.00     0.222 C 
HETATM    2  N   UNL     1      -4.706   1.852 -32.040  1.00  0.00    -0.327 N 
HETATM    3  O   UNL     1      -3.265   0.244 -32.903  1.00  0.00    -0.273 OA
HETATM    4  H   UNL     1      -5.607   1.965 -31.600  1.00  0.00     0.169 HD
ENDROOT
BRANCH   2   5
HETATM    5  C   UNL     1      -4.037   3.058 -32.349  1.00  0.00     0.035 A 
HETATM    6  C   UNL     1      -2.834   3.462 -31.754  1.00  0.00     0.046 A 
HETATM    7  C   UNL     1      -2.245   4.689 -32.132  1.00  0.00     0.030 A 
HETATM    8  C   UNL     1      -2.875   5.465 -33.097  1.00  0.00     0.063 A 
HETATM    9  C   UNL     1      -1.079   5.428 -31.769  1.00  0.00     0.156 A 
HETATM   10  N   UNL     1      -2.080   6.566 -33.254  1.00  0.00    -0.277 N 
HETATM   11  C   UNL     1      -4.072   5.095 -33.711  1.00  0.00     0.034 A 
HETATM   12  H   UNL     1      -2.230   7.347 -33.882  1.00  0.00     0.189 HD
HETATM   13  N   UNL     1      -0.990   6.582 -32.470  1.00  0.00    -0.168 NA
HETATM   14  C   UNL     1      -4.640   3.879 -33.313  1.00  0.00     0.032 A 
BRANCH   9  15
HETATM   15  C   UNL     1      -0.060   5.066 -30.774  1.00  0.00     0.270 C 
HETATM   16  N   UNL     1      -0.406   5.371 -29.485  1.00  0.00    -0.365 N 
HETATM   17  H   UNL     1      -1.305   5.804 -29.314  1.00  0.00     0.159 HD
HETATM   18  H   UNL     1       0.228   5.151 -28.734  1.00  0.00     0.159 HD
HETATM   19  O   UNL     1       1.012   4.531 -31.030  1.00  0.00    -0.266 OA
ENDBRANCH   9  15
ENDBRANCH   2   5
BRANCH   1  20
HETATM   20  C   UNL     1      -5.265  -0.527 -31.867  1.00  0.00     0.112 C 
BRANCH  20  21
HETATM   21  C   UNL     1      -6.360  -0.975 -32.855  1.00  0.00     0.027 C 
BRANCH  21  22
HETATM   22  C   UNL     1      -5.796  -1.284 -34.262  1.00  0.00     0.005 C 
HETATM   23  C   UNL     1      -5.969  -2.713 -34.761  1.00  0.00     0.006 C 
ENDBRANCH  21  22
BRANCH  21  24
HETATM   24  C   UNL     1      -7.572  -0.059 -32.917  1.00  0.00    -0.053 A 
HETATM   25  C   UNL     1      -8.127   0.532 -31.777  1.00  0.00     0.010 A 
HETATM   26  C   UNL     1      -9.267   1.334 -31.876  1.00  0.00     0.037 A 
HETATM   27  C   UNL     1      -9.883   1.551 -33.109  1.00  0.00     0.068 A 
HETATM   28  C   UNL     1      -9.323   0.992 -34.255  1.00  0.00     0.037 A 
HETATM   29  C   UNL     1      -8.175   0.198 -34.160  1.00  0.00     0.010 A 
BRANCH  27  30
HETATM   30  O   UNL     1     -11.003   2.334 -33.069  1.00  0.00    -0.356 OA
HETATM   31  C   UNL     1     -11.663   2.550 -34.311  1.00  0.00     0.210 C 
ENDBRANCH  27  30
ENDBRANCH  21  24
ENDBRANCH  20  21
ENDBRANCH   1  20
TORSDOF 7
ENDMDL
MODEL 4
REMARK VINA RESULT:      -7.9      2.114      2.344
REMARK  7 active torsions:
REMARK  status: ('A' for Active; 'I' for Inactive)
REMARK    1  A    between atoms: C_2  and  C_3 
REMARK    2  A    between atoms: C_3  and  C_4 
REMARK    3  A    between atoms: C_3  and  C_12 
REMARK    4  A    between atoms: C_7  and  O_8 
REMARK    5  A    between atoms: C_12  and  C_13 
REMARK       I    between atoms: C_13  and  N_14 
REMARK    6  A    between atoms: N_14  and  C_15 
REMARK    7  A    between atoms: C_22  and  C_23 
REMARK       I    between atoms: C_23  and  N_24 
ROOT
HETATM    1  C   UNL     1      -5.821   2.966 -33.040  1.00  0.00     0.222 C 
HETATM    2  N   UNL     1      -4.577   3.196 -32.488  1.00  0.00    -0.327 N 
HETATM    3  O   UNL     1      -6.407   3.700 -33.830  1.00  0.00    -0.273 OA
HETATM    4  H   UNL     1      -4.228   2.509 -31.837  1.00  0.00     0.169 HD
ENDROOT
BRANCH   2   5
HETATM    5  C   UNL     1      -3.756   4.335 -32.652  1.00  0.00     0.035 A 
HETATM    6  C   UNL     1      -3.973   5.559 -32.006  1.00  0.00     0.046 A 
HETATM    7  C   UNL     1      -3.093   6.639 -32.240  1.00  0.00     0.030 A 
HETATM    8  C   UNL     1      -2.023   6.455 -33.107  1.00  0.00     0.063 A 
HETATM    9  C   UNL     1      -2.983   7.993 -31.801  1.00  0.00     0.156 A 
HETATM   10  N   UNL     1      -1.360   7.650 -33.124  1.00  0.00    -0.277 N 
HETATM   11  C   UNL     1      -1.774   5.251 -33.767  1.00  0.00     0.034 A 
HETATM   12  H   UNL     1      -0.524   7.880 -33.649  1.00  0.00     0.189 HD
HETATM   13  N   UNL     1      -1.908   8.602 -32.353  1.00  0.00    -0.168 NA
HETATM   14  C   UNL     1      -2.665   4.199 -33.524  1.00  0.00     0.032 A 
BRANCH   9  15
HETATM   15  C   UNL     1      -3.872   8.713 -30.879  1.00  0.00     0.270 C 
HETATM   16  N   UNL     1      -3.411   8.771 -29.592  1.00  0.00    -0.365 N 
HETATM   17  H   UNL     1      -2.524   8.335 -29.374  1.00  0.00     0.159 HD
HETATM   18  H   UNL     1      -3.952   9.252 -28.890  1.00  0.00     0.159 HD
HETATM   19  O   UNL     1      -4.935   9.235 -31.194  1.00  0.00    -0.266 OA
ENDBRANCH   9  15
ENDBRANCH   2   5
BRANCH   1  20
HETATM   20  C   UNL     1      -6.448   1.624 -32.666  1.00  0.00     0.112 C 
BRANCH  20  21
HETATM   21  C   UNL     1      -7.002   0.773 -33.825  1.00  0.00     0.027 C 
BRANCH  21  22
HETATM   22  C   UNL     1      -8.537   0.602 -33.753  1.00  0.00     0.005 C 
HETATM   23  C   UNL     1      -9.133   0.424 -32.363  1.00  0.00     0.006 C 
ENDBRANCH  21  22
BRANCH  21  24
HETATM   24  C   UNL     1      -6.291  -0.554 -34.033  1.00  0.00    -0.053 A 
HETATM   25  C   UNL     1      -6.906  -1.649 -34.652  1.00  0.00     0.010 A 
HETATM   26  C   UNL     1      -6.228  -2.864 -34.784  1.00  0.00     0.037 A 
HETATM   27  C   UNL     1      -4.932  -3.016 -34.291  1.00  0.00     0.068 A 
HETATM   28  C   UNL     1      -4.298  -1.926 -33.700  1.00  0.00     0.037 A 
HETATM   29  C   UNL     1      -4.971  -0.705 -33.576  1.00  0.00     0.010 A 
BRANCH  27  30
HETATM   30  O   UNL     1      -4.388  -4.259 -34.462  1.00  0.00    -0.356 OA
HETATM   31  C   UNL     1      -3.490  -4.696 -33.449  1.00  0.00     0.210 C 
ENDBRANCH  27  30
ENDBRANCH  21  24
ENDBRANCH  20  21
ENDBRANCH   1  20
TORSDOF 7
ENDMDL
MODEL 5
REMARK VINA RESULT:      -7.7      2.021      2.662
REMARK  7 active torsions:
REMARK  status: ('A' for Active; 'I' for Inactive)
REMARK    1  A    between atoms: C_2  and  C_3 
REMARK    2  A    between atoms: C_3  and  C_4 
REMARK    3  A    between atoms: C_3  and  C_12 
REMARK    4  A    between atoms: C_7  and  O_8 
REMARK    5  A    between atoms: C_12  and  C_13 
REMARK       I    between atoms: C_13  and  N_14 
REMARK    6  A    between atoms: N_14  and  C_15 
REMARK    7  A    between atoms: C_22  and  C_23 
REMARK       I    between atoms: C_23  and  N_24 
ROOT
HETATM    1  C   UNL     1      -5.887   1.923 -31.878  1.00  0.00     0.222 C 
HETATM    2  N   UNL     1      -6.122   3.274 -32.041  1.00  0.00    -0.327 N 
HETATM    3  O   UNL     1      -4.971   1.423 -31.231  1.00  0.00    -0.273 OA
HETATM    4  H   UNL     1      -6.907   3.537 -32.618  1.00  0.00     0.169 HD
ENDROOT
BRANCH   2   5
HETATM    5  C   UNL     1      -5.338   4.350 -31.570  1.00  0.00     0.035 A 
HETATM    6  C   UNL     1      -4.303   4.947 -32.302  1.00  0.00     0.046 A 
HETATM    7  C   UNL     1      -3.576   6.020 -31.738  1.00  0.00     0.030 A 
HETATM    8  C   UNL     1      -3.915   6.462 -30.466  1.00  0.00     0.063 A 
HETATM    9  C   UNL     1      -2.489   6.853 -32.141  1.00  0.00     0.156 A 
HETATM   10  N   UNL     1      -3.059   7.494 -30.200  1.00  0.00    -0.277 N 
HETATM   11  C   UNL     1      -4.939   5.894 -29.707  1.00  0.00     0.034 A 
HETATM   12  H   UNL     1      -3.019   8.058 -29.359  1.00  0.00     0.189 HD
HETATM   13  N   UNL     1      -2.183   7.758 -31.183  1.00  0.00    -0.168 NA
HETATM   14  C   UNL     1      -5.639   4.827 -30.285  1.00  0.00     0.032 A 
BRANCH   9  15
HETATM   15  C   UNL     1      -1.740   6.803 -33.405  1.00  0.00     0.270 C 
HETATM   16  N   UNL     1      -1.104   5.612 -33.629  1.00  0.00    -0.365 N 
HETATM   17  H   UNL     1      -1.193   4.877 -32.938  1.00  0.00     0.159 HD
HETATM   18  H   UNL     1      -0.572   5.483 -34.474  1.00  0.00     0.159 HD
HETATM   19  O   UNL     1      -1.671   7.719 -34.216  1.00  0.00    -0.266 OA
ENDBRANCH   9  15
ENDBRANCH   2   5
BRANCH   1  20
HETATM   20  C   UNL     1      -6.935   1.010 -32.511  1.00  0.00     0.112 C 
BRANCH  20  21
HETATM   21  C   UNL     1      -6.657   0.534 -33.951  1.00  0.00     0.027 C 
BRANCH  21  22
HETATM   22  C   UNL     1      -7.867   0.752 -34.890  1.00  0.00     0.005 C 
HETATM   23  C   UNL     1      -9.219   0.950 -34.217  1.00  0.00     0.006 C 
ENDBRANCH  21  22
BRANCH  21  24
HETATM   24  C   UNL     1      -6.103  -0.877 -34.056  1.00  0.00    -0.053 A 
HETATM   25  C   UNL     1      -4.807  -1.209 -33.644  1.00  0.00     0.010 A 
HETATM   26  C   UNL     1      -4.325  -2.512 -33.798  1.00  0.00     0.037 A 
HETATM   27  C   UNL     1      -5.117  -3.503 -34.378  1.00  0.00     0.068 A 
HETATM   28  C   UNL     1      -6.418  -3.192 -34.765  1.00  0.00     0.037 A 
HETATM   29  C   UNL     1      -6.907  -1.892 -34.602  1.00  0.00     0.010 A 
BRANCH  27  30
HETATM   30  O   UNL     1      -4.521  -4.729 -34.493  1.00  0.00    -0.356 OA
HETATM   31  C   UNL     1      -3.366  -4.943 -33.691  1.00  0.00     0.210 C 
ENDBRANCH  27  30
ENDBRANCH  21  24
ENDBRANCH  20  21
ENDBRANCH   1  20
TORSDOF 7
ENDMDL
MODEL 6
REMARK VINA RESULT:      -7.7      4.793      8.635
REMARK  7 active torsions:
REMARK  status: ('A' for Active; 'I' for Inactive)
REMARK    1  A    between atoms: C_2  and  C_3 
REMARK    2  A    between atoms: C_3  and  C_4 
REMARK    3  A    between atoms: C_3  and  C_12 
REMARK    4  A    between atoms: C_7  and  O_8 
REMARK    5  A    between atoms: C_12  and  C_13 
REMARK       I    between atoms: C_13  and  N_14 
REMARK    6  A    between atoms: N_14  and  C_15 
REMARK    7  A    between atoms: C_22  and  C_23 
REMARK       I    between atoms: C_23  and  N_24 
ROOT
HETATM    1  C   UNL     1      -7.900   2.805 -33.873  1.00  0.00     0.222 C 
HETATM    2  N   UNL     1      -8.909   2.025 -33.344  1.00  0.00    -0.327 N 
HETATM    3  O   UNL     1      -7.965   4.010 -34.105  1.00  0.00    -0.273 OA
HETATM    4  H   UNL     1      -8.716   1.042 -33.225  1.00  0.00     0.169 HD
ENDROOT
BRANCH   2   5
HETATM    5  C   UNL     1     -10.229   2.418 -33.027  1.00  0.00     0.035 A 
HETATM    6  C   UNL     1     -11.372   1.695 -33.391  1.00  0.00     0.046 A 
HETATM    7  C   UNL     1     -12.649   2.176 -33.025  1.00  0.00     0.030 A 
HETATM    8  C   UNL     1     -12.738   3.359 -32.303  1.00  0.00     0.063 A 
HETATM    9  C   UNL     1     -14.001   1.753 -33.208  1.00  0.00     0.156 A 
HETATM   10  N   UNL     1     -14.074   3.558 -32.095  1.00  0.00    -0.277 N 
HETATM   11  C   UNL     1     -11.622   4.106 -31.921  1.00  0.00     0.034 A 
HETATM   12  H   UNL     1     -14.510   4.326 -31.598  1.00  0.00     0.189 HD
HETATM   13  N   UNL     1     -14.867   2.615 -32.627  1.00  0.00    -0.168 NA
HETATM   14  C   UNL     1     -10.369   3.612 -32.303  1.00  0.00     0.032 A 
BRANCH   9  15
HETATM   15  C   UNL     1     -14.480   0.561 -33.920  1.00  0.00     0.270 C 
HETATM   16  N   UNL     1     -13.935  -0.612 -33.472  1.00  0.00    -0.365 N 
HETATM   17  H   UNL     1     -13.269  -0.578 -32.710  1.00  0.00     0.159 HD
HETATM   18  H   UNL     1     -14.210  -1.484 -33.897  1.00  0.00     0.159 HD
HETATM   19  O   UNL     1     -15.298   0.570 -34.832  1.00  0.00    -0.266 OA
ENDBRANCH   9  15
ENDBRANCH   2   5
BRANCH   1  20
HETATM   20  C   UNL     1      -6.578   2.074 -34.098  1.00  0.00     0.112 C 
BRANCH  20  21
HETATM   21  C   UNL     1      -6.162   1.053 -33.021  1.00  0.00     0.027 C 
BRANCH  21  22
HETATM   22  C   UNL     1      -4.936   1.523 -32.202  1.00  0.00     0.005 C 
HETATM   23  C   UNL     1      -5.064   1.442 -30.687  1.00  0.00     0.006 C 
ENDBRANCH  21  22
BRANCH  21  24
HETATM   24  C   UNL     1      -5.995  -0.371 -33.528  1.00  0.00    -0.053 A 
HETATM   25  C   UNL     1      -4.754  -1.016 -33.564  1.00  0.00     0.010 A 
HETATM   26  C   UNL     1      -4.642  -2.311 -34.077  1.00  0.00     0.037 A 
HETATM   27  C   UNL     1      -5.759  -2.981 -34.577  1.00  0.00     0.068 A 
HETATM   28  C   UNL     1      -7.004  -2.361 -34.519  1.00  0.00     0.037 A 
HETATM   29  C   UNL     1      -7.121  -1.069 -33.995  1.00  0.00     0.010 A 
BRANCH  27  30
HETATM   30  O   UNL     1      -5.513  -4.232 -35.071  1.00  0.00    -0.356 OA
HETATM   31  C   UNL     1      -4.664  -5.061 -34.286  1.00  0.00     0.210 C 
ENDBRANCH  27  30
ENDBRANCH  21  24
ENDBRANCH  20  21
ENDBRANCH   1  20
TORSDOF 7
ENDMDL
MODEL 7
REMARK VINA RESULT:      -7.7      2.035      3.174
REMARK  7 active torsions:
REMARK  status: ('A' for Active; 'I' for Inactive)
REMARK    1  A    between atoms: C_2  and  C_3 
REMARK    2  A    between atoms: C_3  and  C_4 
REMARK    3  A    between atoms: C_3  and  C_12 
REMARK    4  A    between atoms: C_7  and  O_8 
REMARK    5  A    between atoms: C_12  and  C_13 
REMARK       I    between atoms: C_13  and  N_14 
REMARK    6  A    between atoms: N_14  and  C_15 
REMARK    7  A    between atoms: C_22  and  C_23 
REMARK       I    between atoms: C_23  and  N_24 
ROOT
HETATM    1  C   UNL     1      -7.964   3.304 -33.257  1.00  0.00     0.222 C 
HETATM    2  N   UNL     1      -6.687   3.134 -33.752  1.00  0.00    -0.327 N 
HETATM    3  O   UNL     1      -8.257   3.775 -32.161  1.00  0.00    -0.273 OA
HETATM    4  H   UNL     1      -6.600   2.715 -34.666  1.00  0.00     0.169 HD
ENDROOT
BRANCH   2   5
HETATM    5  C   UNL     1      -5.464   3.392 -33.094  1.00  0.00     0.035 A 
HETATM    6  C   UNL     1      -4.436   4.180 -33.629  1.00  0.00     0.046 A 
HETATM    7  C   UNL     1      -3.248   4.376 -32.889  1.00  0.00     0.030 A 
HETATM    8  C   UNL     1      -3.134   3.784 -31.638  1.00  0.00     0.063 A 
HETATM    9  C   UNL     1      -2.017   5.072 -33.082  1.00  0.00     0.156 A 
HETATM   10  N   UNL     1      -1.903   4.154 -31.172  1.00  0.00    -0.277 N 
HETATM   11  C   UNL     1      -4.136   2.995 -31.072  1.00  0.00     0.034 A 
HETATM   12  H   UNL     1      -1.482   3.905 -30.284  1.00  0.00     0.189 HD
HETATM   13  N   UNL     1      -1.199   4.927 -32.014  1.00  0.00    -0.168 NA
HETATM   14  C   UNL     1      -5.299   2.809 -31.829  1.00  0.00     0.032 A 
BRANCH   9  15
HETATM   15  C   UNL     1      -1.605   5.861 -34.251  1.00  0.00     0.270 C 
HETATM   16  N   UNL     1      -1.103   5.111 -35.280  1.00  0.00    -0.365 N 
HETATM   17  H   UNL     1      -1.056   4.105 -35.169  1.00  0.00     0.159 HD
HETATM   18  H   UNL     1      -0.801   5.566 -36.127  1.00  0.00     0.159 HD
HETATM   19  O   UNL     1      -1.692   7.080 -34.342  1.00  0.00    -0.266 OA
ENDBRANCH   9  15
ENDBRANCH   2   5
BRANCH   1  20
HETATM   20  C   UNL     1      -9.083   2.933 -34.230  1.00  0.00     0.112 C 
BRANCH  20  21
HETATM   21  C   UNL     1      -9.479   1.445 -34.291  1.00  0.00     0.027 C 
BRANCH  21  22
HETATM   22  C   UNL     1     -10.656   1.107 -33.346  1.00  0.00     0.005 C 
HETATM   23  C   UNL     1     -11.938   1.903 -33.552  1.00  0.00     0.006 C 
ENDBRANCH  21  22
BRANCH  21  24
HETATM   24  C   UNL     1      -8.321   0.473 -34.127  1.00  0.00    -0.053 A 
HETATM   25  C   UNL     1      -7.908  -0.001 -32.877  1.00  0.00     0.010 A 
HETATM   26  C   UNL     1      -6.812  -0.860 -32.770  1.00  0.00     0.037 A 
HETATM   27  C   UNL     1      -6.098  -1.253 -33.903  1.00  0.00     0.068 A 
HETATM   28  C   UNL     1      -6.518  -0.812 -35.156  1.00  0.00     0.037 A 
HETATM   29  C   UNL     1      -7.622   0.041 -35.266  1.00  0.00     0.010 A 
BRANCH  27  30
HETATM   30  O   UNL     1      -5.034  -2.077 -33.663  1.00  0.00    -0.356 OA
HETATM   31  C   UNL     1      -4.883  -3.180 -34.548  1.00  0.00     0.210 C 
ENDBRANCH  27  30
ENDBRANCH  21  24
ENDBRANCH  20  21
ENDBRANCH   1  20
TORSDOF 7
ENDMDL
MODEL 8
REMARK VINA RESULT:      -7.6      4.536      8.033
REMARK  7 active torsions:
REMARK  status: ('A' for Active; 'I' for Inactive)
REMARK    1  A    between atoms: C_2  and  C_3 
REMARK    2  A    between atoms: C_3  and  C_4 
REMARK    3  A    between atoms: C_3  and  C_12 
REMARK    4  A    between atoms: C_7  and  O_8 
REMARK    5  A    between atoms: C_12  and  C_13 
REMARK       I    between atoms: C_13  and  N_14 
REMARK    6  A    between atoms: N_14  and  C_15 
REMARK    7  A    between atoms: C_22  and  C_23 
REMARK       I    between atoms: C_23  and  N_24 
ROOT
HETATM    1  C   UNL     1      -7.849   2.918 -33.867  1.00  0.00     0.222 C 
HETATM    2  N   UNL     1      -8.851   1.986 -33.680  1.00  0.00    -0.327 N 
HETATM    3  O   UNL     1      -8.004   4.131 -33.980  1.00  0.00    -0.273 OA
HETATM    4  H   UNL     1      -8.572   1.018 -33.622  1.00  0.00     0.169 HD
ENDROOT
BRANCH   2   5
HETATM    5  C   UNL     1     -10.245   2.210 -33.651  1.00  0.00     0.035 A 
HETATM    6  C   UNL     1     -10.905   2.915 -32.635  1.00  0.00     0.046 A 
HETATM    7  C   UNL     1     -12.307   3.083 -32.699  1.00  0.00     0.030 A 
HETATM    8  C   UNL     1     -12.997   2.547 -33.779  1.00  0.00     0.063 A 
HETATM    9  C   UNL     1     -13.309   3.701 -31.891  1.00  0.00     0.156 A 
HETATM   10  N   UNL     1     -14.308   2.873 -33.570  1.00  0.00    -0.277 N 
HETATM   11  C   UNL     1     -12.374   1.841 -34.809  1.00  0.00     0.034 A 
HETATM   12  H   UNL     1     -15.099   2.646 -34.161  1.00  0.00     0.189 HD
HETATM   13  N   UNL     1     -14.537   3.565 -32.442  1.00  0.00    -0.168 NA
HETATM   14  C   UNL     1     -10.986   1.682 -34.719  1.00  0.00     0.032 A 
BRANCH   9  15
HETATM   15  C   UNL     1     -13.123   4.409 -30.617  1.00  0.00     0.270 C 
HETATM   16  N   UNL     1     -12.424   3.696 -29.681  1.00  0.00    -0.365 N 
HETATM   17  H   UNL     1     -12.094   2.769 -29.923  1.00  0.00     0.159 HD
HETATM   18  H   UNL     1     -12.242   4.104 -28.777  1.00  0.00     0.159 HD
HETATM   19  O   UNL     1     -13.534   5.537 -30.374  1.00  0.00    -0.266 OA
ENDBRANCH   9  15
ENDBRANCH   2   5
BRANCH   1  20
HETATM   20  C   UNL     1      -6.432   2.348 -33.842  1.00  0.00     0.112 C 
BRANCH  20  21
HETATM   21  C   UNL     1      -6.157   1.226 -32.823  1.00  0.00     0.027 C 
BRANCH  21  22
HETATM   22  C   UNL     1      -5.063   1.611 -31.799  1.00  0.00     0.005 C 
HETATM   23  C   UNL     1      -4.718   3.091 -31.703  1.00  0.00     0.006 C 
ENDBRANCH  21  22
BRANCH  21  24
HETATM   24  C   UNL     1      -5.904  -0.142 -33.437  1.00  0.00    -0.053 A 
HETATM   25  C   UNL     1      -6.891  -0.847 -34.136  1.00  0.00     0.010 A 
HETATM   26  C   UNL     1      -6.626  -2.120 -34.648  1.00  0.00     0.037 A 
HETATM   27  C   UNL     1      -5.380  -2.719 -34.463  1.00  0.00     0.068 A 
HETATM   28  C   UNL     1      -4.381  -2.015 -33.796  1.00  0.00     0.037 A 
HETATM   29  C   UNL     1      -4.640  -0.737 -33.292  1.00  0.00     0.010 A 
BRANCH  27  30
HETATM   30  O   UNL     1      -5.255  -3.974 -34.993  1.00  0.00    -0.356 OA
HETATM   31  C   UNL     1      -6.465  -4.617 -35.375  1.00  0.00     0.210 C 
ENDBRANCH  27  30
ENDBRANCH  21  24
ENDBRANCH  20  21
ENDBRANCH   1  20
TORSDOF 7
ENDMDL
MODEL 9
REMARK VINA RESULT:      -7.5      4.238      7.690
REMARK  7 active torsions:
REMARK  status: ('A' for Active; 'I' for Inactive)
REMARK    1  A    between atoms: C_2  and  C_3 
REMARK    2  A    between atoms: C_3  and  C_4 
REMARK    3  A    between atoms: C_3  and  C_12 
REMARK    4  A    between atoms: C_7  and  O_8 
REMARK    5  A    between atoms: C_12  and  C_13 
REMARK       I    between atoms: C_13  and  N_14 
REMARK    6  A    between atoms: N_14  and  C_15 
REMARK    7  A    between atoms: C_22  and  C_23 
REMARK       I    between atoms: C_23  and  N_24 
ROOT
HETATM    1  C   UNL     1      -7.112   1.585 -30.650  1.00  0.00     0.222 C 
HETATM    2  N   UNL     1      -8.276   1.256 -31.314  1.00  0.00    -0.327 N 
HETATM    3  O   UNL     1      -6.861   2.666 -30.124  1.00  0.00    -0.273 OA
HETATM    4  H   UNL     1      -8.333   0.331 -31.712  1.00  0.00     0.169 HD
ENDROOT
BRANCH   2   5
HETATM    5  C   UNL     1      -9.380   2.094 -31.589  1.00  0.00     0.035 A 
HETATM    6  C   UNL     1     -10.150   2.019 -32.757  1.00  0.00     0.046 A 
HETATM    7  C   UNL     1     -11.235   2.907 -32.938  1.00  0.00     0.030 A 
HETATM    8  C   UNL     1     -11.516   3.832 -31.940  1.00  0.00     0.063 A 
HETATM    9  C   UNL     1     -12.213   3.147 -33.949  1.00  0.00     0.156 A 
HETATM   10  N   UNL     1     -12.602   4.530 -32.388  1.00  0.00    -0.277 N 
HETATM   11  C   UNL     1     -10.772   3.935 -30.764  1.00  0.00     0.034 A 
HETATM   12  H   UNL     1     -13.085   5.285 -31.914  1.00  0.00     0.189 HD
HETATM   13  N   UNL     1     -13.050   4.149 -33.595  1.00  0.00    -0.168 NA
HETATM   14  C   UNL     1      -9.698   3.050 -30.613  1.00  0.00     0.032 A 
BRANCH   9  15
HETATM   15  C   UNL     1     -12.364   2.452 -35.235  1.00  0.00     0.270 C 
HETATM   16  N   UNL     1     -11.845   3.135 -36.302  1.00  0.00    -0.365 N 
HETATM   17  H   UNL     1     -11.408   4.034 -36.136  1.00  0.00     0.159 HD
HETATM   18  H   UNL     1     -11.896   2.732 -37.224  1.00  0.00     0.159 HD
HETATM   19  O   UNL     1     -12.893   1.357 -35.384  1.00  0.00    -0.266 OA
ENDBRANCH   9  15
ENDBRANCH   2   5
BRANCH   1  20
HETATM   20  C   UNL     1      -6.108   0.441 -30.513  1.00  0.00     0.112 C 
BRANCH  20  21
HETATM   21  C   UNL     1      -4.961   0.403 -31.541  1.00  0.00     0.027 C 
BRANCH  21  22
HETATM   22  C   UNL     1      -4.664   1.795 -32.148  1.00  0.00     0.005 C 
HETATM   23  C   UNL     1      -3.371   2.465 -31.702  1.00  0.00     0.006 C 
ENDBRANCH  21  22
BRANCH  21  24
HETATM   24  C   UNL     1      -5.105  -0.665 -32.613  1.00  0.00    -0.053 A 
HETATM   25  C   UNL     1      -6.252  -0.784 -33.408  1.00  0.00     0.010 A 
HETATM   26  C   UNL     1      -6.358  -1.809 -34.352  1.00  0.00     0.037 A 
HETATM   27  C   UNL     1      -5.333  -2.741 -34.514  1.00  0.00     0.068 A 
HETATM   28  C   UNL     1      -4.175  -2.615 -33.750  1.00  0.00     0.037 A 
HETATM   29  C   UNL     1      -4.061  -1.584 -32.811  1.00  0.00     0.010 A 
BRANCH  27  30
HETATM   30  O   UNL     1      -5.568  -3.705 -35.454  1.00  0.00    -0.356 OA
HETATM   31  C   UNL     1      -6.733  -4.500 -35.260  1.00  0.00     0.210 C 
ENDBRANCH  27  30
ENDBRANCH  21  24
ENDBRANCH  20  21
ENDBRANCH   1  20
TORSDOF 7
ENDMDL
MODEL 10
REMARK VINA RESULT:      -7.5      4.403      7.360
REMARK  7 active torsions:
REMARK  status: ('A' for Active; 'I' for Inactive)
REMARK    1  A    between atoms: C_2  and  C_3 
REMARK    2  A    between atoms: C_3  and  C_4 
REMARK    3  A    between atoms: C_3  and  C_12 
REMARK    4  A    between atoms: C_7  and  O_8 
REMARK    5  A    between atoms: C_12  and  C_13 
REMARK       I    between atoms: C_13  and  N_14 
REMARK    6  A    between atoms: N_14  and  C_15 
REMARK    7  A    between atoms: C_22  and  C_23 
REMARK       I    between atoms: C_23  and  N_24 
ROOT
HETATM    1  C   UNL     1      -7.668   1.354 -31.427  1.00  0.00     0.222 C 
HETATM    2  N   UNL     1      -8.411   0.763 -32.429  1.00  0.00    -0.327 N 
HETATM    3  O   UNL     1      -7.913   2.428 -30.884  1.00  0.00    -0.273 OA
HETATM    4  H   UNL     1      -8.076  -0.116 -32.792  1.00  0.00     0.169 HD
ENDROOT
BRANCH   2   5
HETATM    5  C   UNL     1      -9.549   1.286 -33.083  1.00  0.00     0.035 A 
HETATM    6  C   UNL     1      -9.609   2.564 -33.654  1.00  0.00     0.046 A 
HETATM    7  C   UNL     1     -10.798   2.993 -34.285  1.00  0.00     0.030 A 
HETATM    8  C   UNL     1     -11.882   2.126 -34.331  1.00  0.00     0.063 A 
HETATM    9  C   UNL     1     -11.244   4.176 -34.949  1.00  0.00     0.156 A 
HETATM   10  N   UNL     1     -12.863   2.805 -34.999  1.00  0.00    -0.277 N 
HETATM   11  C   UNL     1     -11.860   0.846 -33.776  1.00  0.00     0.034 A 
HETATM   12  H   UNL     1     -13.795   2.477 -35.220  1.00  0.00     0.189 HD
HETATM   13  N   UNL     1     -12.518   4.044 -35.384  1.00  0.00    -0.168 NA
HETATM   14  C   UNL     1     -10.673   0.448 -33.149  1.00  0.00     0.032 A 
BRANCH   9  15
HETATM   15  C   UNL     1     -10.491   5.419 -35.171  1.00  0.00     0.270 C 
HETATM   16  N   UNL     1     -11.269   6.481 -35.546  1.00  0.00    -0.365 N 
HETATM   17  H   UNL     1     -12.268   6.342 -35.637  1.00  0.00     0.159 HD
HETATM   18  H   UNL     1     -10.841   7.378 -35.713  1.00  0.00     0.159 HD
HETATM   19  O   UNL     1      -9.280   5.539 -35.037  1.00  0.00    -0.266 OA
ENDBRANCH   9  15
ENDBRANCH   2   5
BRANCH   1  20
HETATM   20  C   UNL     1      -6.491   0.519 -30.927  1.00  0.00     0.112 C 
BRANCH  20  21
HETATM   21  C   UNL     1      -5.252   0.456 -31.841  1.00  0.00     0.027 C 
BRANCH  21  22
HETATM   22  C   UNL     1      -4.959   1.807 -32.536  1.00  0.00     0.005 C 
HETATM   23  C   UNL     1      -3.638   2.478 -32.182  1.00  0.00     0.006 C 
ENDBRANCH  21  22
BRANCH  21  24
HETATM   24  C   UNL     1      -5.248  -0.702 -32.825  1.00  0.00    -0.053 A 
HETATM   25  C   UNL     1      -6.205  -0.831 -33.839  1.00  0.00     0.010 A 
HETATM   26  C   UNL     1      -6.188  -1.935 -34.695  1.00  0.00     0.037 A 
HETATM   27  C   UNL     1      -5.228  -2.937 -34.550  1.00  0.00     0.068 A 
HETATM   28  C   UNL     1      -4.253  -2.805 -33.565  1.00  0.00     0.037 A 
HETATM   29  C   UNL     1      -4.261  -1.695 -32.713  1.00  0.00     0.010 A 
BRANCH  27  30
HETATM   30  O   UNL     1      -5.333  -3.974 -35.435  1.00  0.00    -0.356 OA
HETATM   31  C   UNL     1      -6.596  -4.626 -35.491  1.00  0.00     0.210 C 
ENDBRANCH  27  30
ENDBRANCH  21  24
ENDBRANCH  20  21
ENDBRANCH   1  20
TORSDOF 7
ENDMDL
