MODEL 1
REMARK VINA RESULT:     -10.6      0.000      0.000
REMARK  5 active torsions:
REMARK  status: ('A' for Active; 'I' for Inactive)
REMARK    1  A    between atoms: C_7  and  C_8 
REMARK    2  A    between atoms: C_16  and  C_17 
REMARK    3  A    between atoms: C_19  and  O_20 
REMARK    4  A    between atoms: C_24  and  C_25 
REMARK       I    between atoms: C_25  and  N_26 
REMARK    5  A    between atoms: N_26  and  C_27 
ROOT
HETATM    1  C   UNL     1      -5.289   2.834 -29.775  1.00  0.00     0.070 C 
HETATM    2  C   UNL     1      -6.001   2.214 -30.951  1.00  0.00     0.037 C 
HETATM    3  N   UNL     1      -7.324   1.830 -30.721  1.00  0.00    -0.192 N 
HETATM    4  C   UNL     1      -8.175   1.549 -31.730  1.00  0.00     0.726 A 
HETATM    5  N   UNL     1      -7.674   1.346 -32.980  1.00  0.00    -0.083 N 
HETATM    6  N   UNL     1      -8.649   1.197 -33.895  1.00  0.00    -0.135 NA
HETATM    7  C   UNL     1      -9.748   1.304 -33.119  1.00  0.00     0.200 A 
HETATM    8  N   UNL     1      -9.478   1.482 -31.774  1.00  0.00    -0.041 NA
HETATM    9  C   UNL     1      -6.246   1.368 -33.297  1.00  0.00     0.202 C 
HETATM   10  C   UNL     1      -5.446   2.034 -32.179  1.00  0.00     0.062 C 
HETATM   11  H   UNL     1      -7.734   2.125 -29.835  1.00  0.00     0.184 HD
ENDROOT
BRANCH  10  12
HETATM   12  C   UNL     1      -4.150   2.688 -32.544  1.00  0.00     0.256 C 
HETATM   13  N   UNL     1      -4.271   3.948 -33.089  1.00  0.00    -0.323 N 
HETATM   14  H   UNL     1      -5.195   4.295 -33.307  1.00  0.00     0.169 HD
HETATM   15  O   UNL     1      -3.099   2.110 -32.288  1.00  0.00    -0.267 OA
BRANCH  13  16
HETATM   16  C   UNL     1      -3.227   4.856 -33.380  1.00  0.00     0.035 A 
HETATM   17  C   UNL     1      -2.382   4.751 -34.487  1.00  0.00     0.029 A 
HETATM   18  C   UNL     1      -1.358   5.683 -34.688  1.00  0.00     0.002 A 
HETATM   19  C   UNL     1      -1.164   6.720 -33.781  1.00  0.00     0.000 A 
HETATM   20  C   UNL     1      -2.000   6.835 -32.674  1.00  0.00     0.002 A 
HETATM   21  C   UNL     1      -3.032   5.911 -32.479  1.00  0.00     0.029 A 
ENDBRANCH  13  16
ENDBRANCH  10  12
BRANCH   9  22
HETATM   22  C   UNL     1      -5.792  -0.060 -33.612  1.00  0.00    -0.025 A 
HETATM   23  C   UNL     1      -4.775  -0.651 -32.842  1.00  0.00     0.046 A 
HETATM   24  C   UNL     1      -4.360  -1.952 -33.114  1.00  0.00     0.066 A 
HETATM   25  C   UNL     1      -4.938  -2.687 -34.141  1.00  0.00     0.036 A 
HETATM   26  C   UNL     1      -5.930  -2.107 -34.928  1.00  0.00     0.003 A 
HETATM   27  C   UNL     1      -6.349  -0.801 -34.673  1.00  0.00     0.010 A 
BRANCH  24  28
HETATM   28  O   UNL     1      -3.372  -2.549 -32.389  1.00  0.00    -0.361 OA
HETATM   29  H   UNL     1      -3.214  -2.027 -31.585  1.00  0.00     0.217 HD
ENDBRANCH  24  28
ENDBRANCH   9  22
BRANCH   7  30
HETATM   30  C   UNL     1     -11.100   1.209 -33.654  1.00  0.00     0.036 A 
HETATM   31  C   UNL     1     -11.663   2.187 -34.489  1.00  0.00     0.048 A 
HETATM   32 CL   UNL     1     -10.804   3.591 -35.023  1.00  0.00    -0.083 Cl
HETATM   33  C   UNL     1     -12.969   2.029 -34.977  1.00  0.00     0.025 A 
HETATM   34  C   UNL     1     -13.720   0.902 -34.644  1.00  0.00     0.002 A 
HETATM   35  C   UNL     1     -13.169  -0.078 -33.824  1.00  0.00     0.001 A 
HETATM   36  C   UNL     1     -11.869   0.074 -33.335  1.00  0.00     0.017 A 
ENDBRANCH   7  30
TORSDOF 5
ENDMDL
MODEL 2
REMARK VINA RESULT:     -10.1      3.406      6.813
REMARK  5 active torsions:
REMARK  status: ('A' for Active; 'I' for Inactive)
REMARK    1  A    between atoms: C_7  and  C_8 
REMARK    2  A    between atoms: C_16  and  C_17 
REMARK    3  A    between atoms: C_19  and  O_20 
REMARK    4  A    between atoms: C_24  and  C_25 
REMARK       I    between atoms: C_25  and  N_26 
REMARK    5  A    between atoms: N_26  and  C_27 
ROOT
HETATM    1  C   UNL     1      -9.235   3.439 -30.449  1.00  0.00     0.070 C 
HETATM    2  C   UNL     1      -8.250   2.864 -31.435  1.00  0.00     0.037 C 
HETATM    3  N   UNL     1      -7.747   1.600 -31.118  1.00  0.00    -0.192 N 
HETATM    4  C   UNL     1      -7.107   0.835 -32.027  1.00  0.00     0.726 A 
HETATM    5  N   UNL     1      -6.680   1.404 -33.188  1.00  0.00    -0.083 N 
HETATM    6  N   UNL     1      -6.172   0.494 -34.039  1.00  0.00    -0.135 NA
HETATM    7  C   UNL     1      -6.304  -0.636 -33.313  1.00  0.00     0.200 A 
HETATM    8  N   UNL     1      -6.843  -0.444 -32.054  1.00  0.00    -0.041 NA
HETATM    9  C   UNL     1      -6.831   2.826 -33.500  1.00  0.00     0.202 C 
HETATM   10  C   UNL     1      -7.858   3.483 -32.581  1.00  0.00     0.062 C 
HETATM   11  H   UNL     1      -8.185   1.122 -30.333  1.00  0.00     0.184 HD
ENDROOT
BRANCH  10  12
HETATM   12  C   UNL     1      -8.585   4.686 -33.096  1.00  0.00     0.256 C 
HETATM   13  N   UNL     1      -9.597   4.413 -33.990  1.00  0.00    -0.323 N 
HETATM   14  H   UNL     1      -9.708   3.464 -34.321  1.00  0.00     0.169 HD
HETATM   15  O   UNL     1      -8.287   5.793 -32.659  1.00  0.00    -0.267 OA
BRANCH  13  16
HETATM   16  C   UNL     1     -10.541   5.324 -34.515  1.00  0.00     0.035 A 
HETATM   17  C   UNL     1     -10.217   6.407 -35.335  1.00  0.00     0.029 A 
HETATM   18  C   UNL     1     -11.214   7.274 -35.793  1.00  0.00     0.002 A 
HETATM   19  C   UNL     1     -12.542   7.073 -35.428  1.00  0.00     0.000 A 
HETATM   20  C   UNL     1     -12.878   5.997 -34.611  1.00  0.00     0.002 A 
HETATM   21  C   UNL     1     -11.883   5.122 -34.163  1.00  0.00     0.029 A 
ENDBRANCH  13  16
ENDBRANCH  10  12
BRANCH   9  22
HETATM   22  C   UNL     1      -5.451   3.487 -33.453  1.00  0.00    -0.025 A 
HETATM   23  C   UNL     1      -5.115   4.462 -34.409  1.00  0.00     0.046 A 
HETATM   24  C   UNL     1      -3.866   5.076 -34.371  1.00  0.00     0.066 A 
HETATM   25  C   UNL     1      -2.935   4.743 -33.395  1.00  0.00     0.036 A 
HETATM   26  C   UNL     1      -3.243   3.763 -32.456  1.00  0.00     0.003 A 
HETATM   27  C   UNL     1      -4.488   3.132 -32.488  1.00  0.00     0.010 A 
BRANCH  24  28
HETATM   28  O   UNL     1      -3.510   6.019 -35.288  1.00  0.00    -0.361 OA
HETATM   29  H   UNL     1      -3.310   6.849 -34.823  1.00  0.00     0.217 HD
ENDBRANCH  24  28
ENDBRANCH   9  22
BRANCH   7  30
HETATM   30  C   UNL     1      -5.886  -1.942 -33.809  1.00  0.00     0.036 A 
HETATM   31  C   UNL     1      -4.613  -2.481 -33.568  1.00  0.00     0.048 A 
HETATM   32 CL   UNL     1      -3.409  -1.685 -32.613  1.00  0.00    -0.083 Cl
HETATM   33  C   UNL     1      -4.278  -3.748 -34.067  1.00  0.00     0.025 A 
HETATM   34  C   UNL     1      -5.204  -4.488 -34.803  1.00  0.00     0.002 A 
HETATM   35  C   UNL     1      -6.472  -3.968 -35.041  1.00  0.00     0.001 A 
HETATM   36  C   UNL     1      -6.810  -2.706 -34.546  1.00  0.00     0.017 A 
ENDBRANCH   7  30
TORSDOF 5
ENDMDL
MODEL 3
REMARK VINA RESULT:      -9.9      3.949      7.540
REMARK  5 active torsions:
REMARK  status: ('A' for Active; 'I' for Inactive)
REMARK    1  A    between atoms: C_7  and  C_8 
REMARK    2  A    between atoms: C_16  and  C_17 
REMARK    3  A    between atoms: C_19  and  O_20 
REMARK    4  A    between atoms: C_24  and  C_25 
REMARK       I    between atoms: C_25  and  N_26 
REMARK    5  A    between atoms: N_26  and  C_27 
ROOT
HETATM    1  C   UNL     1      -7.811   5.147 -33.329  1.00  0.00     0.070 C 
HETATM    2  C   UNL     1      -8.169   3.683 -33.357  1.00  0.00     0.037 C 
HETATM    3  N   UNL     1      -7.391   2.888 -34.201  1.00  0.00    -0.192 N 
HETATM    4  C   UNL     1      -7.383   1.541 -34.110  1.00  0.00     0.726 A 
HETATM    5  N   UNL     1      -8.359   0.920 -33.392  1.00  0.00    -0.083 N 
HETATM    6  N   UNL     1      -8.148  -0.405 -33.296  1.00  0.00    -0.135 NA
HETATM    7  C   UNL     1      -7.010  -0.536 -34.008  1.00  0.00     0.200 A 
HETATM    8  N   UNL     1      -6.541   0.646 -34.553  1.00  0.00    -0.041 NA
HETATM    9  C   UNL     1      -9.461   1.627 -32.739  1.00  0.00     0.202 C 
HETATM   10  C   UNL     1      -9.160   3.119 -32.616  1.00  0.00     0.062 C 
HETATM   11  H   UNL     1      -6.571   3.331 -34.613  1.00  0.00     0.184 HD
ENDROOT
BRANCH  10  12
HETATM   12  C   UNL     1      -9.812   3.872 -31.498  1.00  0.00     0.256 C 
HETATM   13  N   UNL     1     -10.921   4.603 -31.864  1.00  0.00    -0.323 N 
HETATM   14  H   UNL     1     -11.151   4.678 -32.845  1.00  0.00     0.169 HD
HETATM   15  O   UNL     1      -9.374   3.745 -30.360  1.00  0.00    -0.267 OA
BRANCH  13  16
HETATM   16  C   UNL     1     -11.819   5.279 -31.005  1.00  0.00     0.035 A 
HETATM   17  C   UNL     1     -13.017   4.735 -30.538  1.00  0.00     0.029 A 
HETATM   18  C   UNL     1     -13.859   5.482 -29.707  1.00  0.00     0.002 A 
HETATM   19  C   UNL     1     -13.516   6.782 -29.345  1.00  0.00     0.000 A 
HETATM   20  C   UNL     1     -12.324   7.334 -29.805  1.00  0.00     0.002 A 
HETATM   21  C   UNL     1     -11.476   6.583 -30.625  1.00  0.00     0.029 A 
ENDBRANCH  13  16
ENDBRANCH  10  12
BRANCH   9  22
HETATM   22  C   UNL     1     -10.757   1.321 -33.495  1.00  0.00    -0.025 A 
HETATM   23  C   UNL     1     -11.549   0.228 -33.101  1.00  0.00     0.046 A 
HETATM   24  C   UNL     1     -12.733  -0.054 -33.777  1.00  0.00     0.066 A 
HETATM   25  C   UNL     1     -13.154   0.731 -34.842  1.00  0.00     0.036 A 
HETATM   26  C   UNL     1     -12.369   1.802 -35.260  1.00  0.00     0.003 A 
HETATM   27  C   UNL     1     -11.174   2.091 -34.598  1.00  0.00     0.010 A 
BRANCH  24  28
HETATM   28  O   UNL     1     -13.519  -1.110 -33.421  1.00  0.00    -0.361 OA
HETATM   29  H   UNL     1     -13.928  -0.922 -32.560  1.00  0.00     0.217 HD
ENDBRANCH  24  28
ENDBRANCH   9  22
BRANCH   7  30
HETATM   30  C   UNL     1      -6.351  -1.821 -34.207  1.00  0.00     0.036 A 
HETATM   31  C   UNL     1      -4.982  -2.024 -33.971  1.00  0.00     0.048 A 
HETATM   32 CL   UNL     1      -3.928  -0.791 -33.368  1.00  0.00    -0.083 Cl
HETATM   33  C   UNL     1      -4.413  -3.289 -34.174  1.00  0.00     0.025 A 
HETATM   34  C   UNL     1      -5.196  -4.359 -34.608  1.00  0.00     0.002 A 
HETATM   35  C   UNL     1      -6.555  -4.172 -34.837  1.00  0.00     0.001 A 
HETATM   36  C   UNL     1      -7.128  -2.913 -34.636  1.00  0.00     0.017 A 
ENDBRANCH   7  30
TORSDOF 5
ENDMDL
MODEL 4
REMARK VINA RESULT:      -9.4      4.066      6.979
REMARK  5 active torsions:
REMARK  status: ('A' for Active; 'I' for Inactive)
REMARK    1  A    between atoms: C_7  and  C_8 
REMARK    2  A    between atoms: C_16  and  C_17 
REMARK    3  A    between atoms: C_19  and  O_20 
REMARK    4  A    between atoms: C_24  and  C_25 
REMARK       I    between atoms: C_25  and  N_26 
REMARK    5  A    between atoms: N_26  and  C_27 
ROOT
HETATM    1  C   UNL     1      -8.321   3.282 -30.498  1.00  0.00     0.070 C 
HETATM    2  C   UNL     1      -9.222   3.451 -31.695  1.00  0.00     0.037 C 
HETATM    3  N   UNL     1      -9.710   4.742 -31.905  1.00  0.00    -0.192 N 
HETATM    4  C   UNL     1     -10.266   5.117 -33.076  1.00  0.00     0.726 A 
HETATM    5  N   UNL     1     -10.630   4.158 -33.972  1.00  0.00    -0.083 N 
HETATM    6  N   UNL     1     -11.055   4.690 -35.134  1.00  0.00    -0.135 NA
HETATM    7  C   UNL     1     -10.940   6.008 -34.869  1.00  0.00     0.200 A 
HETATM    8  N   UNL     1     -10.493   6.295 -33.592  1.00  0.00    -0.041 NA
HETATM    9  C   UNL     1     -10.498   2.722 -33.725  1.00  0.00     0.202 C 
HETATM   10  C   UNL     1      -9.552   2.452 -32.557  1.00  0.00     0.062 C 
HETATM   11  H   UNL     1      -9.312   5.477 -31.322  1.00  0.00     0.184 HD
ENDROOT
BRANCH  10  12
HETATM   12  C   UNL     1      -8.826   1.143 -32.536  1.00  0.00     0.256 C 
HETATM   13  N   UNL     1      -7.841   1.013 -33.491  1.00  0.00    -0.323 N 
HETATM   14  H   UNL     1      -7.749   1.733 -34.194  1.00  0.00     0.169 HD
HETATM   15  O   UNL     1      -9.100   0.324 -31.665  1.00  0.00    -0.267 OA
BRANCH  13  16
HETATM   16  C   UNL     1      -6.901  -0.036 -33.609  1.00  0.00     0.035 A 
HETATM   17  C   UNL     1      -5.706  -0.103 -32.889  1.00  0.00     0.029 A 
HETATM   18  C   UNL     1      -4.819  -1.167 -33.083  1.00  0.00     0.002 A 
HETATM   19  C   UNL     1      -5.113  -2.168 -34.005  1.00  0.00     0.000 A 
HETATM   20  C   UNL     1      -6.301  -2.111 -34.729  1.00  0.00     0.002 A 
HETATM   21  C   UNL     1      -7.194  -1.054 -34.526  1.00  0.00     0.029 A 
ENDBRANCH  13  16
ENDBRANCH  10  12
BRANCH   9  22
HETATM   22  C   UNL     1     -11.895   2.126 -33.537  1.00  0.00    -0.025 A 
HETATM   23  C   UNL     1     -12.096   0.750 -33.742  1.00  0.00     0.046 A 
HETATM   24  C   UNL     1     -13.361   0.196 -33.567  1.00  0.00     0.066 A 
HETATM   25  C   UNL     1     -14.441   0.983 -33.186  1.00  0.00     0.036 A 
HETATM   26  C   UNL     1     -14.263   2.351 -33.002  1.00  0.00     0.003 A 
HETATM   27  C   UNL     1     -13.002   2.922 -33.185  1.00  0.00     0.010 A 
BRANCH  24  28
HETATM   28  O   UNL     1     -13.588  -1.134 -33.764  1.00  0.00    -0.361 OA
HETATM   29  H   UNL     1     -13.427  -1.344 -34.700  1.00  0.00     0.217 HD
ENDBRANCH  24  28
ENDBRANCH   9  22
BRANCH   7  30
HETATM   30  C   UNL     1     -11.288   7.037 -35.841  1.00  0.00     0.036 A 
HETATM   31  C   UNL     1     -12.613   7.399 -36.133  1.00  0.00     0.048 A 
HETATM   32 CL   UNL     1     -13.985   6.704 -35.338  1.00  0.00    -0.083 Cl
HETATM   33  C   UNL     1     -12.877   8.405 -37.073  1.00  0.00     0.025 A 
HETATM   34  C   UNL     1     -11.832   9.059 -37.725  1.00  0.00     0.002 A 
HETATM   35  C   UNL     1     -10.515   8.716 -37.438  1.00  0.00     0.001 A 
HETATM   36  C   UNL     1     -10.246   7.714 -36.502  1.00  0.00     0.017 A 
ENDBRANCH   7  30
TORSDOF 5
ENDMDL
MODEL 5
REMARK VINA RESULT:      -9.4      3.817      7.771
REMARK  5 active torsions:
REMARK  status: ('A' for Active; 'I' for Inactive)
REMARK    1  A    between atoms: C_7  and  C_8 
REMARK    2  A    between atoms: C_16  and  C_17 
REMARK    3  A    between atoms: C_19  and  O_20 
REMARK    4  A    between atoms: C_24  and  C_25 
REMARK       I    between atoms: C_25  and  N_26 
REMARK    5  A    between atoms: N_26  and  C_27 
ROOT
HETATM    1  C   UNL     1     -13.181   1.670 -33.500  1.00  0.00     0.070 C 
HETATM    2  C   UNL     1     -11.679   1.745 -33.621  1.00  0.00     0.037 C 
HETATM    3  N   UNL     1     -10.974   0.695 -33.031  1.00  0.00    -0.192 N 
HETATM    4  C   UNL     1      -9.674   0.459 -33.308  1.00  0.00     0.726 A 
HETATM    5  N   UNL     1      -8.948   1.422 -33.942  1.00  0.00    -0.083 N 
HETATM    6  N   UNL     1      -7.711   0.995 -34.255  1.00  0.00    -0.135 NA
HETATM    7  C   UNL     1      -7.739  -0.260 -33.757  1.00  0.00     0.200 A 
HETATM    8  N   UNL     1      -8.926  -0.597 -33.134  1.00  0.00    -0.041 NA
HETATM    9  C   UNL     1      -9.481   2.734 -34.307  1.00  0.00     0.202 C 
HETATM   10  C   UNL     1     -11.008   2.736 -34.267  1.00  0.00     0.062 C 
HETATM   11  H   UNL     1     -11.528  -0.091 -32.696  1.00  0.00     0.184 HD
ENDROOT
BRANCH  10  12
HETATM   12  C   UNL     1     -11.727   3.707 -35.151  1.00  0.00     0.256 C 
HETATM   13  N   UNL     1     -11.822   4.986 -34.648  1.00  0.00    -0.323 N 
HETATM   14  H   UNL     1     -11.515   5.159 -33.700  1.00  0.00     0.169 HD
HETATM   15  O   UNL     1     -12.116   3.334 -36.252  1.00  0.00    -0.267 OA
BRANCH  13  16
HETATM   16  C   UNL     1     -12.302   6.134 -35.319  1.00  0.00     0.035 A 
HETATM   17  C   UNL     1     -13.647   6.364 -35.618  1.00  0.00     0.029 A 
HETATM   18  C   UNL     1     -14.033   7.518 -36.306  1.00  0.00     0.002 A 
HETATM   19  C   UNL     1     -13.080   8.448 -36.711  1.00  0.00     0.000 A 
HETATM   20  C   UNL     1     -11.736   8.230 -36.418  1.00  0.00     0.002 A 
HETATM   21  C   UNL     1     -11.351   7.082 -35.719  1.00  0.00     0.029 A 
ENDBRANCH  13  16
ENDBRANCH  10  12
BRANCH   9  22
HETATM   22  C   UNL     1      -8.840   3.792 -33.405  1.00  0.00    -0.025 A 
HETATM   23  C   UNL     1      -7.746   4.537 -33.879  1.00  0.00     0.046 A 
HETATM   24  C   UNL     1      -7.160   5.507 -33.070  1.00  0.00     0.066 A 
HETATM   25  C   UNL     1      -7.642   5.759 -31.792  1.00  0.00     0.036 A 
HETATM   26  C   UNL     1      -8.710   5.014 -31.300  1.00  0.00     0.003 A 
HETATM   27  C   UNL     1      -9.300   4.031 -32.096  1.00  0.00     0.010 A 
BRANCH  24  28
HETATM   28  O   UNL     1      -6.094   6.240 -33.499  1.00  0.00    -0.361 OA
HETATM   29  H   UNL     1      -5.562   5.696 -34.105  1.00  0.00     0.217 HD
ENDBRANCH  24  28
ENDBRANCH   9  22
BRANCH   7  30
HETATM   30  C   UNL     1      -6.601  -1.166 -33.847  1.00  0.00     0.036 A 
HETATM   31  C   UNL     1      -5.436  -1.010 -33.079  1.00  0.00     0.048 A 
HETATM   32 CL   UNL     1      -5.234   0.242 -31.902  1.00  0.00    -0.083 Cl
HETATM   33  C   UNL     1      -4.381  -1.925 -33.208  1.00  0.00     0.025 A 
HETATM   34  C   UNL     1      -4.476  -2.998 -34.093  1.00  0.00     0.002 A 
HETATM   35  C   UNL     1      -5.628  -3.168 -34.853  1.00  0.00     0.001 A 
HETATM   36  C   UNL     1      -6.683  -2.260 -34.729  1.00  0.00     0.017 A 
ENDBRANCH   7  30
TORSDOF 5
ENDMDL
MODEL 6
REMARK VINA RESULT:      -9.3      3.199      8.123
REMARK  5 active torsions:
REMARK  status: ('A' for Active; 'I' for Inactive)
REMARK    1  A    between atoms: C_7  and  C_8 
REMARK    2  A    between atoms: C_16  and  C_17 
REMARK    3  A    between atoms: C_19  and  O_20 
REMARK    4  A    between atoms: C_24  and  C_25 
REMARK       I    between atoms: C_25  and  N_26 
REMARK    5  A    between atoms: N_26  and  C_27 
ROOT
HETATM    1  C   UNL     1      -6.293   0.072 -29.783  1.00  0.00     0.070 C 
HETATM    2  C   UNL     1      -6.205   1.319 -30.627  1.00  0.00     0.037 C 
HETATM    3  N   UNL     1      -5.676   2.443 -29.988  1.00  0.00    -0.192 N 
HETATM    4  C   UNL     1      -5.256   3.526 -30.674  1.00  0.00     0.726 A 
HETATM    5  N   UNL     1      -5.615   3.662 -31.981  1.00  0.00    -0.083 N 
HETATM    6  N   UNL     1      -5.023   4.724 -32.558  1.00  0.00    -0.135 NA
HETATM    7  C   UNL     1      -4.313   5.216 -31.522  1.00  0.00     0.200 A 
HETATM    8  N   UNL     1      -4.472   4.516 -30.340  1.00  0.00    -0.041 NA
HETATM    9  C   UNL     1      -6.479   2.717 -32.688  1.00  0.00     0.202 C 
HETATM   10  C   UNL     1      -6.582   1.395 -31.931  1.00  0.00     0.062 C 
HETATM   11  H   UNL     1      -5.272   2.292 -29.065  1.00  0.00     0.184 HD
ENDROOT
BRANCH  10  12
HETATM   12  C   UNL     1      -6.874   0.158 -32.723  1.00  0.00     0.256 C 
HETATM   13  N   UNL     1      -5.760  -0.517 -33.171  1.00  0.00    -0.323 N 
HETATM   14  H   UNL     1      -4.851  -0.094 -33.043  1.00  0.00     0.169 HD
HETATM   15  O   UNL     1      -8.039  -0.196 -32.865  1.00  0.00    -0.267 OA
BRANCH  13  16
HETATM   16  C   UNL     1      -5.725  -1.782 -33.801  1.00  0.00     0.035 A 
HETATM   17  C   UNL     1      -6.814  -2.363 -34.456  1.00  0.00     0.029 A 
HETATM   18  C   UNL     1      -6.699  -3.631 -35.035  1.00  0.00     0.002 A 
HETATM   19  C   UNL     1      -5.500  -4.334 -34.957  1.00  0.00     0.000 A 
HETATM   20  C   UNL     1      -4.408  -3.764 -34.308  1.00  0.00     0.002 A 
HETATM   21  C   UNL     1      -4.518  -2.491 -33.740  1.00  0.00     0.029 A 
ENDBRANCH  13  16
ENDBRANCH  10  12
BRANCH   9  22
HETATM   22  C   UNL     1      -7.831   3.387 -32.945  1.00  0.00    -0.025 A 
HETATM   23  C   UNL     1      -7.940   4.372 -33.943  1.00  0.00     0.046 A 
HETATM   24  C   UNL     1      -9.167   4.982 -34.190  1.00  0.00     0.066 A 
HETATM   25  C   UNL     1     -10.299   4.632 -33.466  1.00  0.00     0.036 A 
HETATM   26  C   UNL     1     -10.203   3.675 -32.459  1.00  0.00     0.003 A 
HETATM   27  C   UNL     1      -8.977   3.063 -32.193  1.00  0.00     0.010 A 
BRANCH  24  28
HETATM   28  O   UNL     1      -9.301   5.944 -35.146  1.00  0.00    -0.361 OA
HETATM   29  H   UNL     1     -10.164   6.377 -35.037  1.00  0.00     0.217 HD
ENDBRANCH  24  28
ENDBRANCH   9  22
BRANCH   7  30
HETATM   30  C   UNL     1      -3.474   6.403 -31.638  1.00  0.00     0.036 A 
HETATM   31  C   UNL     1      -2.280   6.427 -32.375  1.00  0.00     0.048 A 
HETATM   32 CL   UNL     1      -1.690   5.071 -33.274  1.00  0.00    -0.083 Cl
HETATM   33  C   UNL     1      -1.525   7.606 -32.453  1.00  0.00     0.025 A 
HETATM   34  C   UNL     1      -1.950   8.765 -31.805  1.00  0.00     0.002 A 
HETATM   35  C   UNL     1      -3.136   8.756 -31.078  1.00  0.00     0.001 A 
HETATM   36  C   UNL     1      -3.892   7.584 -30.997  1.00  0.00     0.017 A 
ENDBRANCH   7  30
TORSDOF 5
ENDMDL
MODEL 7
REMARK VINA RESULT:      -9.3      3.635      6.643
REMARK  5 active torsions:
REMARK  status: ('A' for Active; 'I' for Inactive)
REMARK    1  A    between atoms: C_7  and  C_8 
REMARK    2  A    between atoms: C_16  and  C_17 
REMARK    3  A    between atoms: C_19  and  O_20 
REMARK    4  A    between atoms: C_24  and  C_25 
REMARK       I    between atoms: C_25  and  N_26 
REMARK    5  A    between atoms: N_26  and  C_27 
ROOT
HETATM    1  C   UNL     1      -1.045   6.625 -33.603  1.00  0.00     0.070 C 
HETATM    2  C   UNL     1      -2.303   6.027 -33.026  1.00  0.00     0.037 C 
HETATM    3  N   UNL     1      -3.308   5.731 -33.949  1.00  0.00    -0.192 N 
HETATM    4  C   UNL     1      -4.349   4.929 -33.642  1.00  0.00     0.726 A 
HETATM    5  N   UNL     1      -4.595   4.633 -32.336  1.00  0.00    -0.083 N 
HETATM    6  N   UNL     1      -5.584   3.732 -32.200  1.00  0.00    -0.135 NA
HETATM    7  C   UNL     1      -5.922   3.526 -33.491  1.00  0.00     0.200 A 
HETATM    8  N   UNL     1      -5.200   4.283 -34.395  1.00  0.00    -0.041 NA
HETATM    9  C   UNL     1      -3.817   5.174 -31.220  1.00  0.00     0.202 C 
HETATM   10  C   UNL     1      -2.492   5.755 -31.707  1.00  0.00     0.062 C 
HETATM   11  H   UNL     1      -3.058   5.813 -34.933  1.00  0.00     0.184 HD
ENDROOT
BRANCH  10  12
HETATM   12  C   UNL     1      -1.347   5.784 -30.741  1.00  0.00     0.256 C 
HETATM   13  N   UNL     1      -1.317   6.884 -29.913  1.00  0.00    -0.323 N 
HETATM   14  H   UNL     1      -1.975   7.633 -30.077  1.00  0.00     0.169 HD
HETATM   15  O   UNL     1      -0.575   4.832 -30.707  1.00  0.00    -0.267 OA
BRANCH  13  16
HETATM   16  C   UNL     1      -0.455   7.101 -28.814  1.00  0.00     0.035 A 
HETATM   17  C   UNL     1      -0.622   6.512 -27.558  1.00  0.00     0.029 A 
HETATM   18  C   UNL     1       0.267   6.800 -26.517  1.00  0.00     0.002 A 
HETATM   19  C   UNL     1       1.323   7.684 -26.717  1.00  0.00     0.000 A 
HETATM   20  C   UNL     1       1.499   8.276 -27.965  1.00  0.00     0.002 A 
HETATM   21  C   UNL     1       0.618   7.980 -29.010  1.00  0.00     0.029 A 
ENDBRANCH  13  16
ENDBRANCH  10  12
BRANCH   9  22
HETATM   22  C   UNL     1      -4.687   6.178 -30.459  1.00  0.00    -0.025 A 
HETATM   23  C   UNL     1      -4.970   5.959 -29.099  1.00  0.00     0.046 A 
HETATM   24  C   UNL     1      -5.753   6.869 -28.394  1.00  0.00     0.066 A 
HETATM   25  C   UNL     1      -6.264   8.004 -29.013  1.00  0.00     0.036 A 
HETATM   26  C   UNL     1      -6.011   8.222 -30.364  1.00  0.00     0.003 A 
HETATM   27  C   UNL     1      -5.237   7.313 -31.086  1.00  0.00     0.010 A 
BRANCH  24  28
HETATM   28  O   UNL     1      -6.050   6.681 -27.077  1.00  0.00    -0.361 OA
HETATM   29  H   UNL     1      -6.857   7.178 -26.863  1.00  0.00     0.217 HD
ENDBRANCH  24  28
ENDBRANCH   9  22
BRANCH   7  30
HETATM   30  C   UNL     1      -6.979   2.604 -33.889  1.00  0.00     0.036 A 
HETATM   31  C   UNL     1      -8.344   2.888 -33.727  1.00  0.00     0.048 A 
HETATM   32 CL   UNL     1      -8.934   4.384 -33.086  1.00  0.00    -0.083 Cl
HETATM   33  C   UNL     1      -9.310   1.960 -34.141  1.00  0.00     0.025 A 
HETATM   34  C   UNL     1      -8.929   0.749 -34.719  1.00  0.00     0.002 A 
HETATM   35  C   UNL     1      -7.580   0.460 -34.893  1.00  0.00     0.001 A 
HETATM   36  C   UNL     1      -6.613   1.381 -34.482  1.00  0.00     0.017 A 
ENDBRANCH   7  30
TORSDOF 5
ENDMDL
MODEL 8
REMARK VINA RESULT:      -9.2      4.675      7.608
REMARK  5 active torsions:
REMARK  status: ('A' for Active; 'I' for Inactive)
REMARK    1  A    between atoms: C_7  and  C_8 
REMARK    2  A    between atoms: C_16  and  C_17 
REMARK    3  A    between atoms: C_19  and  O_20 
REMARK    4  A    between atoms: C_24  and  C_25 
REMARK       I    between atoms: C_25  and  N_26 
REMARK    5  A    between atoms: N_26  and  C_27 
ROOT
HETATM    1  C   UNL     1      -8.795   3.917 -31.547  1.00  0.00     0.070 C 
HETATM    2  C   UNL     1      -9.919   4.039 -32.545  1.00  0.00     0.037 C 
HETATM    3  N   UNL     1     -10.438   5.324 -32.713  1.00  0.00    -0.192 N 
HETATM    4  C   UNL     1     -11.219   5.650 -33.765  1.00  0.00     0.726 A 
HETATM    5  N   UNL     1     -11.758   4.654 -34.522  1.00  0.00    -0.083 N 
HETATM    6  N   UNL     1     -12.408   5.135 -35.598  1.00  0.00    -0.135 NA
HETATM    7  C   UNL     1     -12.241   6.463 -35.426  1.00  0.00     0.200 A 
HETATM    8  N   UNL     1     -11.544   6.804 -34.281  1.00  0.00    -0.041 NA
HETATM    9  C   UNL     1     -11.579   3.230 -34.238  1.00  0.00     0.202 C 
HETATM   10  C   UNL     1     -10.418   3.004 -33.273  1.00  0.00     0.062 C 
HETATM   11  H   UNL     1      -9.930   6.082 -32.259  1.00  0.00     0.184 HD
ENDROOT
BRANCH  10  12
HETATM   12  C   UNL     1      -9.704   1.690 -33.337  1.00  0.00     0.256 C 
HETATM   13  N   UNL     1      -8.495   1.720 -33.997  1.00  0.00    -0.323 N 
HETATM   14  H   UNL     1      -8.226   2.567 -34.479  1.00  0.00     0.169 HD
HETATM   15  O   UNL     1     -10.191   0.720 -32.766  1.00  0.00    -0.267 OA
BRANCH  13  16
HETATM   16  C   UNL     1      -7.540   0.680 -34.077  1.00  0.00     0.035 A 
HETATM   17  C   UNL     1      -7.550  -0.321 -35.051  1.00  0.00     0.029 A 
HETATM   18  C   UNL     1      -6.578  -1.327 -35.045  1.00  0.00     0.002 A 
HETATM   19  C   UNL     1      -5.595  -1.348 -34.059  1.00  0.00     0.000 A 
HETATM   20  C   UNL     1      -5.575  -0.355 -33.084  1.00  0.00     0.002 A 
HETATM   21  C   UNL     1      -6.539   0.658 -33.097  1.00  0.00     0.029 A 
ENDBRANCH  13  16
ENDBRANCH  10  12
BRANCH   9  22
HETATM   22  C   UNL     1     -12.911   2.658 -33.744  1.00  0.00    -0.025 A 
HETATM   23  C   UNL     1     -13.600   1.721 -34.534  1.00  0.00     0.046 A 
HETATM   24  C   UNL     1     -14.808   1.189 -34.091  1.00  0.00     0.066 A 
HETATM   25  C   UNL     1     -15.350   1.566 -32.869  1.00  0.00     0.036 A 
HETATM   26  C   UNL     1     -14.692   2.510 -32.086  1.00  0.00     0.003 A 
HETATM   27  C   UNL     1     -13.485   3.060 -32.522  1.00  0.00     0.010 A 
BRANCH  24  28
HETATM   28  O   UNL     1     -15.501   0.284 -34.838  1.00  0.00    -0.361 OA
HETATM   29  H   UNL     1     -16.453   0.428 -34.701  1.00  0.00     0.217 HD
ENDBRANCH  24  28
ENDBRANCH   9  22
BRANCH   7  30
HETATM   30  C   UNL     1     -12.777   7.449 -36.356  1.00  0.00     0.036 A 
HETATM   31  C   UNL     1     -11.965   8.305 -37.116  1.00  0.00     0.048 A 
HETATM   32 CL   UNL     1     -10.235   8.257 -37.078  1.00  0.00    -0.083 Cl
HETATM   33  C   UNL     1     -12.546   9.226 -38.000  1.00  0.00     0.025 A 
HETATM   34  C   UNL     1     -13.932   9.300 -38.137  1.00  0.00     0.002 A 
HETATM   35  C   UNL     1     -14.747   8.451 -37.396  1.00  0.00     0.001 A 
HETATM   36  C   UNL     1     -14.173   7.532 -36.514  1.00  0.00     0.017 A 
ENDBRANCH   7  30
TORSDOF 5
ENDMDL
MODEL 9
REMARK VINA RESULT:      -9.1      2.930      8.290
REMARK  5 active torsions:
REMARK  status: ('A' for Active; 'I' for Inactive)
REMARK    1  A    between atoms: C_7  and  C_8 
REMARK    2  A    between atoms: C_16  and  C_17 
REMARK    3  A    between atoms: C_19  and  O_20 
REMARK    4  A    between atoms: C_24  and  C_25 
REMARK       I    between atoms: C_25  and  N_26 
REMARK    5  A    between atoms: N_26  and  C_27 
ROOT
HETATM    1  C   UNL     1      -9.972   5.382 -34.896  1.00  0.00     0.070 C 
HETATM    2  C   UNL     1      -8.839   4.777 -34.105  1.00  0.00     0.037 C 
HETATM    3  N   UNL     1      -7.621   5.455 -34.182  1.00  0.00    -0.192 N 
HETATM    4  C   UNL     1      -6.616   5.223 -33.311  1.00  0.00     0.726 A 
HETATM    5  N   UNL     1      -6.664   4.112 -32.526  1.00  0.00    -0.083 N 
HETATM    6  N   UNL     1      -5.659   4.083 -31.632  1.00  0.00    -0.135 NA
HETATM    7  C   UNL     1      -5.006   5.222 -31.943  1.00  0.00     0.200 A 
HETATM    8  N   UNL     1      -5.557   5.921 -33.001  1.00  0.00    -0.041 NA
HETATM    9  C   UNL     1      -7.730   3.112 -32.597  1.00  0.00     0.202 C 
HETATM   10  C   UNL     1      -8.948   3.660 -33.337  1.00  0.00     0.062 C 
HETATM   11  H   UNL     1      -7.635   6.362 -34.645  1.00  0.00     0.184 HD
ENDROOT
BRANCH  10  12
HETATM   12  C   UNL     1     -10.287   3.082 -32.999  1.00  0.00     0.256 C 
HETATM   13  N   UNL     1     -10.859   2.326 -33.999  1.00  0.00    -0.323 N 
HETATM   14  H   UNL     1     -10.413   2.303 -34.906  1.00  0.00     0.169 HD
HETATM   15  O   UNL     1     -10.744   3.258 -31.875  1.00  0.00    -0.267 OA
BRANCH  13  16
HETATM   16  C   UNL     1     -12.030   1.539 -33.910  1.00  0.00     0.035 A 
HETATM   17  C   UNL     1     -12.043   0.188 -33.558  1.00  0.00     0.029 A 
HETATM   18  C   UNL     1     -13.248  -0.523 -33.515  1.00  0.00     0.002 A 
HETATM   19  C   UNL     1     -14.447   0.108 -33.833  1.00  0.00     0.000 A 
HETATM   20  C   UNL     1     -14.446   1.455 -34.184  1.00  0.00     0.002 A 
HETATM   21  C   UNL     1     -13.244   2.169 -34.214  1.00  0.00     0.029 A 
ENDBRANCH  13  16
ENDBRANCH  10  12
BRANCH   9  22
HETATM   22  C   UNL     1      -7.160   1.831 -33.213  1.00  0.00    -0.025 A 
HETATM   23  C   UNL     1      -6.406   0.952 -32.414  1.00  0.00     0.046 A 
HETATM   24  C   UNL     1      -5.890  -0.219 -32.962  1.00  0.00     0.066 A 
HETATM   25  C   UNL     1      -6.109  -0.543 -34.295  1.00  0.00     0.036 A 
HETATM   26  C   UNL     1      -6.833   0.328 -35.104  1.00  0.00     0.003 A 
HETATM   27  C   UNL     1      -7.348   1.511 -34.572  1.00  0.00     0.010 A 
BRANCH  24  28
HETATM   28  O   UNL     1      -5.151  -1.086 -32.214  1.00  0.00    -0.361 OA
HETATM   29  H   UNL     1      -5.596  -1.225 -31.361  1.00  0.00     0.217 HD
ENDBRANCH  24  28
ENDBRANCH   9  22
BRANCH   7  30
HETATM   30  C   UNL     1      -3.807   5.659 -31.238  1.00  0.00     0.036 A 
HETATM   31  C   UNL     1      -2.514   5.254 -31.603  1.00  0.00     0.048 A 
HETATM   32 CL   UNL     1      -2.186   4.233 -32.962  1.00  0.00    -0.083 Cl
HETATM   33  C   UNL     1      -1.402   5.719 -30.887  1.00  0.00     0.025 A 
HETATM   34  C   UNL     1      -1.565   6.589 -29.809  1.00  0.00     0.002 A 
HETATM   35  C   UNL     1      -2.841   7.005 -29.443  1.00  0.00     0.001 A 
HETATM   36  C   UNL     1      -3.953   6.544 -30.153  1.00  0.00     0.017 A 
ENDBRANCH   7  30
TORSDOF 5
ENDMDL
MODEL 10
REMARK VINA RESULT:      -9.1      2.142      2.816
REMARK  5 active torsions:
REMARK  status: ('A' for Active; 'I' for Inactive)
REMARK    1  A    between atoms: C_7  and  C_8 
REMARK    2  A    between atoms: C_16  and  C_17 
REMARK    3  A    between atoms: C_19  and  O_20 
REMARK    4  A    between atoms: C_24  and  C_25 
REMARK       I    between atoms: C_25  and  N_26 
REMARK    5  A    between atoms: N_26  and  C_27 
ROOT
HETATM    1  C   UNL     1      -6.463   6.007 -29.447  1.00  0.00     0.070 C 
HETATM    2  C   UNL     1      -6.829   4.918 -30.423  1.00  0.00     0.037 C 
HETATM    3  N   UNL     1      -8.116   4.394 -30.286  1.00  0.00    -0.192 N 
HETATM    4  C   UNL     1      -8.693   3.648 -31.252  1.00  0.00     0.726 A 
HETATM    5  N   UNL     1      -7.916   3.145 -32.251  1.00  0.00    -0.083 N 
HETATM    6  N   UNL     1      -8.649   2.529 -33.197  1.00  0.00    -0.135 NA
HETATM    7  C   UNL     1      -9.893   2.678 -32.695  1.00  0.00     0.200 A 
HETATM    8  N   UNL     1      -9.939   3.331 -31.477  1.00  0.00    -0.041 NA
HETATM    9  C   UNL     1      -6.466   3.325 -32.323  1.00  0.00     0.202 C 
HETATM   10  C   UNL     1      -6.008   4.454 -31.403  1.00  0.00     0.062 C 
HETATM   11  H   UNL     1      -8.737   4.879 -29.640  1.00  0.00     0.184 HD
ENDROOT
BRANCH  10  12
HETATM   12  C   UNL     1      -4.750   5.181 -31.764  1.00  0.00     0.256 C 
HETATM   13  N   UNL     1      -3.735   5.076 -30.839  1.00  0.00    -0.323 N 
HETATM   14  H   UNL     1      -3.929   4.629 -29.954  1.00  0.00     0.169 HD
HETATM   15  O   UNL     1      -4.683   5.751 -32.848  1.00  0.00    -0.267 OA
BRANCH  13  16
HETATM   16  C   UNL     1      -2.401   5.521 -30.982  1.00  0.00     0.035 A 
HETATM   17  C   UNL     1      -1.416   4.835 -31.697  1.00  0.00     0.029 A 
HETATM   18  C   UNL     1      -0.113   5.336 -31.769  1.00  0.00     0.002 A 
HETATM   19  C   UNL     1       0.221   6.522 -31.121  1.00  0.00     0.000 A 
HETATM   20  C   UNL     1      -0.752   7.215 -30.407  1.00  0.00     0.002 A 
HETATM   21  C   UNL     1      -2.058   6.721 -30.344  1.00  0.00     0.029 A 
ENDBRANCH  13  16
ENDBRANCH  10  12
BRANCH   9  22
HETATM   22  C   UNL     1      -5.790   1.982 -32.034  1.00  0.00    -0.025 A 
HETATM   23  C   UNL     1      -5.538   1.091 -33.092  1.00  0.00     0.046 A 
HETATM   24  C   UNL     1      -4.917  -0.130 -32.842  1.00  0.00     0.066 A 
HETATM   25  C   UNL     1      -4.533  -0.488 -31.556  1.00  0.00     0.036 A 
HETATM   26  C   UNL     1      -4.797   0.374 -30.495  1.00  0.00     0.003 A 
HETATM   27  C   UNL     1      -5.429   1.597 -30.729  1.00  0.00     0.010 A 
BRANCH  24  28
HETATM   28  O   UNL     1      -4.665  -1.017 -33.846  1.00  0.00    -0.361 OA
HETATM   29  H   UNL     1      -5.447  -1.071 -34.420  1.00  0.00     0.217 HD
ENDBRANCH  24  28
ENDBRANCH   9  22
BRANCH   7  30
HETATM   30  C   UNL     1     -11.079   2.166 -33.370  1.00  0.00     0.036 A 
HETATM   31  C   UNL     1     -11.383   0.798 -33.453  1.00  0.00     0.048 A 
HETATM   32 CL   UNL     1     -10.415  -0.437 -32.721  1.00  0.00    -0.083 Cl
HETATM   33  C   UNL     1     -12.547   0.374 -34.110  1.00  0.00     0.025 A 
HETATM   34  C   UNL     1     -13.416   1.301 -34.684  1.00  0.00     0.002 A 
HETATM   35  C   UNL     1     -13.130   2.660 -34.600  1.00  0.00     0.001 A 
HETATM   36  C   UNL     1     -11.972   3.089 -33.947  1.00  0.00     0.017 A 
ENDBRANCH   7  30
TORSDOF 5
ENDMDL
