MODEL 1
REMARK VINA RESULT:      -8.3      0.000      0.000
REMARK  6 active torsions:
REMARK  status: ('A' for Active; 'I' for Inactive)
REMARK    1  A    between atoms: C_8  and  C_9 
REMARK    2  A    between atoms: C_9  and  C_10 
REMARK       I    between atoms: C_10  and  N_11 
REMARK    3  A    between atoms: N_11  and  C_12 
REMARK    4  A    between atoms: C_12  and  C_13 
REMARK    5  A    between atoms: C_13  and  N_14 
REMARK    6  A    between atoms: C_13  and  C_20 
ROOT
HETATM    1  C   UNL     1      -4.768   0.784 -32.394  1.00  0.00     0.160 C 
ENDROOT
BRANCH   1   2
HETATM    2  N   UNL     1      -4.748   2.247 -32.372  1.00  0.00    -0.358 N 
HETATM    3  C   UNL     1      -3.718   3.011 -31.861  1.00  0.00     0.226 C 
HETATM    4  O   UNL     1      -2.814   2.499 -31.200  1.00  0.00    -0.273 OA
HETATM    5  H   UNL     1      -5.318   2.708 -33.078  1.00  0.00     0.162 HD
BRANCH   3   6
HETATM    6  C   UNL     1      -3.820   4.511 -32.169  1.00  0.00     0.111 C 
HETATM    7  C   UNL     1      -3.818   5.348 -30.892  1.00  0.00     0.025 C 
BRANCH   6   8
HETATM    8  C   UNL     1      -2.731   4.923 -33.123  1.00  0.00     0.004 A 
HETATM    9  C   UNL     1      -1.394   5.186 -32.863  1.00  0.00     0.033 A 
HETATM   10  C   UNL     1      -0.590   5.178 -31.617  1.00  0.00     0.070 C 
HETATM   11  N   UNL     1      -0.836   5.519 -34.067  1.00  0.00    -0.282 N 
HETATM   12  H   UNL     1       0.121   5.796 -34.266  1.00  0.00     0.189 HD
HETATM   13  N   UNL     1      -1.692   5.442 -35.090  1.00  0.00    -0.179 NA
HETATM   14  C   UNL     1      -2.861   5.130 -34.527  1.00  0.00     0.060 A 
HETATM   15  C   UNL     1      -4.079   5.025 -35.372  1.00  0.00     0.073 C 
ENDBRANCH   6   8
ENDBRANCH   3   6
ENDBRANCH   1   2
BRANCH   1  16
HETATM   16  C   UNL     1      -5.642   0.100 -33.503  1.00  0.00     0.238 C 
BRANCH  16  17
HETATM   17  N   UNL     1      -7.128   0.321 -33.237  1.00  0.00    -0.061 N 
HETATM   18  H   UNL     1      -7.571  -0.534 -33.637  1.00  0.00     0.280 HD
HETATM   19  C   UNL     1      -7.827   1.475 -33.913  1.00  0.00     0.236 C 
HETATM   20  C   UNL     1      -8.366   2.309 -32.770  1.00  0.00     0.029 C 
HETATM   21  C   UNL     1      -8.729   1.266 -31.733  1.00  0.00     0.029 C 
HETATM   22  C   UNL     1      -7.550   0.313 -31.785  1.00  0.00     0.236 C 
ENDBRANCH  16  17
BRANCH  16  23
HETATM   23  C   UNL     1      -5.276  -1.363 -33.735  1.00  0.00    -0.024 A 
HETATM   24  C   UNL     1      -6.078  -2.229 -34.500  1.00  0.00     0.033 A 
HETATM   25  C   UNL     1      -5.690  -3.553 -34.719  1.00  0.00     0.034 A 
HETATM   26 CL   UNL     1      -6.686  -4.576 -35.677  1.00  0.00    -0.084 Cl
HETATM   27  C   UNL     1      -4.509  -4.046 -34.175  1.00  0.00     0.024 A 
HETATM   28  C   UNL     1      -3.711  -3.210 -33.398  1.00  0.00     0.002 A 
HETATM   29  C   UNL     1      -4.094  -1.883 -33.176  1.00  0.00     0.009 A 
ENDBRANCH  16  23
ENDBRANCH   1  16
TORSDOF 6
ENDMDL
MODEL 2
REMARK VINA RESULT:      -8.3      4.025      7.507
REMARK  6 active torsions:
REMARK  status: ('A' for Active; 'I' for Inactive)
REMARK    1  A    between atoms: C_8  and  C_9 
REMARK    2  A    between atoms: C_9  and  C_10 
REMARK       I    between atoms: C_10  and  N_11 
REMARK    3  A    between atoms: N_11  and  C_12 
REMARK    4  A    between atoms: C_12  and  C_13 
REMARK    5  A    between atoms: C_13  and  N_14 
REMARK    6  A    between atoms: C_13  and  C_20 
ROOT
HETATM    1  C   UNL     1      -8.189   1.316 -34.235  1.00  0.00     0.160 C 
ENDROOT
BRANCH   1   2
HETATM    2  N   UNL     1      -9.582   1.576 -34.600  1.00  0.00    -0.358 N 
HETATM    3  C   UNL     1     -10.502   2.209 -33.788  1.00  0.00     0.226 C 
HETATM    4  O   UNL     1     -10.259   2.427 -32.602  1.00  0.00    -0.273 OA
HETATM    5  H   UNL     1      -9.773   1.636 -35.598  1.00  0.00     0.162 HD
BRANCH   3   6
HETATM    6  C   UNL     1     -11.820   2.579 -34.483  1.00  0.00     0.111 C 
HETATM    7  C   UNL     1     -11.995   1.822 -35.797  1.00  0.00     0.025 C 
BRANCH   6   8
HETATM    8  C   UNL     1     -12.979   2.372 -33.546  1.00  0.00     0.004 A 
HETATM    9  C   UNL     1     -13.651   1.198 -33.232  1.00  0.00     0.033 A 
HETATM   10  C   UNL     1     -13.498  -0.203 -33.691  1.00  0.00     0.070 C 
HETATM   11  N   UNL     1     -14.622   1.551 -32.333  1.00  0.00    -0.282 N 
HETATM   12  H   UNL     1     -15.324   0.960 -31.897  1.00  0.00     0.189 HD
HETATM   13  N   UNL     1     -14.597   2.846 -32.005  1.00  0.00    -0.179 NA
HETATM   14  C   UNL     1     -13.638   3.369 -32.770  1.00  0.00     0.060 A 
HETATM   15  C   UNL     1     -13.371   4.830 -32.717  1.00  0.00     0.073 C 
ENDBRANCH   6   8
ENDBRANCH   3   6
ENDBRANCH   1   2
BRANCH   1  16
HETATM   16  C   UNL     1      -7.926   0.174 -33.191  1.00  0.00     0.238 C 
BRANCH  16  17
HETATM   17  N   UNL     1      -7.635   0.757 -31.811  1.00  0.00    -0.061 N 
HETATM   18  H   UNL     1      -8.581   0.834 -31.382  1.00  0.00     0.280 HD
HETATM   19  C   UNL     1      -7.047   2.143 -31.714  1.00  0.00     0.236 C 
HETATM   20  C   UNL     1      -5.743   1.947 -30.971  1.00  0.00     0.029 C 
HETATM   21  C   UNL     1      -6.069   0.826 -30.006  1.00  0.00     0.029 C 
HETATM   22  C   UNL     1      -6.869  -0.136 -30.863  1.00  0.00     0.236 C 
ENDBRANCH  16  17
BRANCH  16  23
HETATM   23  C   UNL     1      -6.882  -0.834 -33.659  1.00  0.00    -0.024 A 
HETATM   24  C   UNL     1      -7.230  -2.097 -34.170  1.00  0.00     0.033 A 
HETATM   25  C   UNL     1      -6.246  -2.980 -34.622  1.00  0.00     0.034 A 
HETATM   26 CL   UNL     1      -6.710  -4.508 -35.259  1.00  0.00    -0.084 Cl
HETATM   27  C   UNL     1      -4.901  -2.632 -34.565  1.00  0.00     0.024 A 
HETATM   28  C   UNL     1      -4.535  -1.394 -34.043  1.00  0.00     0.002 A 
HETATM   29  C   UNL     1      -5.515  -0.506 -33.591  1.00  0.00     0.009 A 
ENDBRANCH  16  23
ENDBRANCH   1  16
TORSDOF 6
ENDMDL
MODEL 3
REMARK VINA RESULT:      -8.2      3.331      6.354
REMARK  6 active torsions:
REMARK  status: ('A' for Active; 'I' for Inactive)
REMARK    1  A    between atoms: C_8  and  C_9 
REMARK    2  A    between atoms: C_9  and  C_10 
REMARK       I    between atoms: C_10  and  N_11 
REMARK    3  A    between atoms: N_11  and  C_12 
REMARK    4  A    between atoms: C_12  and  C_13 
REMARK    5  A    between atoms: C_13  and  N_14 
REMARK    6  A    between atoms: C_13  and  C_20 
ROOT
HETATM    1  C   UNL     1      -7.550   0.745 -33.597  1.00  0.00     0.160 C 
ENDROOT
BRANCH   1   2
HETATM    2  N   UNL     1      -8.905   1.147 -33.216  1.00  0.00    -0.358 N 
HETATM    3  C   UNL     1      -9.296   2.446 -32.959  1.00  0.00     0.226 C 
HETATM    4  O   UNL     1      -8.466   3.348 -32.841  1.00  0.00    -0.273 OA
HETATM    5  H   UNL     1      -9.652   0.522 -33.513  1.00  0.00     0.162 HD
BRANCH   3   6
HETATM    6  C   UNL     1     -10.812   2.641 -32.816  1.00  0.00     0.111 C 
HETATM    7  C   UNL     1     -11.144   3.916 -32.045  1.00  0.00     0.025 C 
BRANCH   6   8
HETATM    8  C   UNL     1     -11.472   2.603 -34.168  1.00  0.00     0.004 A 
HETATM    9  C   UNL     1     -11.339   3.486 -35.231  1.00  0.00     0.033 A 
HETATM   10  C   UNL     1     -10.557   4.732 -35.413  1.00  0.00     0.070 C 
HETATM   11  N   UNL     1     -12.150   3.002 -36.222  1.00  0.00    -0.282 N 
HETATM   12  H   UNL     1     -12.328   3.397 -37.141  1.00  0.00     0.189 HD
HETATM   13  N   UNL     1     -12.754   1.855 -35.904  1.00  0.00    -0.179 NA
HETATM   14  C   UNL     1     -12.393   1.624 -34.640  1.00  0.00     0.060 A 
HETATM   15  C   UNL     1     -12.941   0.442 -33.924  1.00  0.00     0.073 C 
ENDBRANCH   6   8
ENDBRANCH   3   6
ENDBRANCH   1   2
BRANCH   1  16
HETATM   16  C   UNL     1      -6.769  -0.173 -32.594  1.00  0.00     0.238 C 
BRANCH  16  17
HETATM   17  N   UNL     1      -5.861   0.657 -31.691  1.00  0.00    -0.061 N 
HETATM   18  H   UNL     1      -4.995   0.081 -31.632  1.00  0.00     0.280 HD
HETATM   19  C   UNL     1      -6.273   0.892 -30.259  1.00  0.00     0.236 C 
HETATM   20  C   UNL     1      -6.355   2.399 -30.133  1.00  0.00     0.029 C 
HETATM   21  C   UNL     1      -5.242   2.874 -31.044  1.00  0.00     0.029 C 
HETATM   22  C   UNL     1      -5.391   1.977 -32.258  1.00  0.00     0.236 C 
ENDBRANCH  16  17
BRANCH  16  23
HETATM   23  C   UNL     1      -6.051  -1.332 -33.278  1.00  0.00    -0.024 A 
HETATM   24  C   UNL     1      -6.728  -2.275 -34.073  1.00  0.00     0.033 A 
HETATM   25  C   UNL     1      -6.030  -3.302 -34.713  1.00  0.00     0.034 A 
HETATM   26 CL   UNL     1      -6.889  -4.423 -35.692  1.00  0.00    -0.084 Cl
HETATM   27  C   UNL     1      -4.652  -3.419 -34.568  1.00  0.00     0.024 A 
HETATM   28  C   UNL     1      -3.966  -2.508 -33.770  1.00  0.00     0.002 A 
HETATM   29  C   UNL     1      -4.660  -1.478 -33.128  1.00  0.00     0.009 A 
ENDBRANCH  16  23
ENDBRANCH   1  16
TORSDOF 6
ENDMDL
MODEL 4
REMARK VINA RESULT:      -8.1      1.518      2.344
REMARK  6 active torsions:
REMARK  status: ('A' for Active; 'I' for Inactive)
REMARK    1  A    between atoms: C_8  and  C_9 
REMARK    2  A    between atoms: C_9  and  C_10 
REMARK       I    between atoms: C_10  and  N_11 
REMARK    3  A    between atoms: N_11  and  C_12 
REMARK    4  A    between atoms: C_12  and  C_13 
REMARK    5  A    between atoms: C_13  and  N_14 
REMARK    6  A    between atoms: C_13  and  C_20 
ROOT
HETATM    1  C   UNL     1      -5.477   0.906 -32.256  1.00  0.00     0.160 C 
ENDROOT
BRANCH   1   2
HETATM    2  N   UNL     1      -4.875   2.218 -32.500  1.00  0.00    -0.358 N 
HETATM    3  C   UNL     1      -3.618   2.597 -32.073  1.00  0.00     0.226 C 
HETATM    4  O   UNL     1      -2.984   1.909 -31.273  1.00  0.00    -0.273 OA
HETATM    5  H   UNL     1      -5.225   2.720 -33.314  1.00  0.00     0.162 HD
BRANCH   3   6
HETATM    6  C   UNL     1      -3.119   3.927 -32.656  1.00  0.00     0.111 C 
HETATM    7  C   UNL     1      -4.055   4.451 -33.742  1.00  0.00     0.025 C 
BRANCH   6   8
HETATM    8  C   UNL     1      -2.901   4.930 -31.556  1.00  0.00     0.004 A 
HETATM    9  C   UNL     1      -3.828   5.490 -30.687  1.00  0.00     0.033 A 
HETATM   10  C   UNL     1      -5.295   5.331 -30.542  1.00  0.00     0.070 C 
HETATM   11  N   UNL     1      -3.120   6.341 -29.882  1.00  0.00    -0.282 N 
HETATM   12  H   UNL     1      -3.466   6.943 -29.140  1.00  0.00     0.189 HD
HETATM   13  N   UNL     1      -1.807   6.336 -30.127  1.00  0.00    -0.179 NA
HETATM   14  C   UNL     1      -1.663   5.522 -31.174  1.00  0.00     0.060 A 
HETATM   15  C   UNL     1      -0.316   5.326 -31.772  1.00  0.00     0.073 C 
ENDBRANCH   6   8
ENDBRANCH   3   6
ENDBRANCH   1   2
BRANCH   1  16
HETATM   16  C   UNL     1      -6.149   0.191 -33.480  1.00  0.00     0.238 C 
BRANCH  16  17
HETATM   17  N   UNL     1      -7.670   0.237 -33.367  1.00  0.00    -0.061 N 
HETATM   18  H   UNL     1      -7.939  -0.770 -33.369  1.00  0.00     0.280 HD
HETATM   19  C   UNL     1      -8.466   0.855 -34.491  1.00  0.00     0.236 C 
HETATM   20  C   UNL     1      -9.232   1.983 -33.833  1.00  0.00     0.029 C 
HETATM   21  C   UNL     1      -9.531   1.429 -32.455  1.00  0.00     0.029 C 
HETATM   22  C   UNL     1      -8.223   0.768 -32.065  1.00  0.00     0.236 C 
ENDBRANCH  16  17
BRANCH  16  23
HETATM   23  C   UNL     1      -5.599  -1.210 -33.729  1.00  0.00    -0.024 A 
HETATM   24  C   UNL     1      -6.306  -2.177 -34.466  1.00  0.00     0.033 A 
HETATM   25  C   UNL     1      -5.752  -3.438 -34.703  1.00  0.00     0.034 A 
HETATM   26 CL   UNL     1      -6.638  -4.587 -35.626  1.00  0.00    -0.084 Cl
HETATM   27  C   UNL     1      -4.496  -3.766 -34.206  1.00  0.00     0.024 A 
HETATM   28  C   UNL     1      -3.789  -2.829 -33.457  1.00  0.00     0.002 A 
HETATM   29  C   UNL     1      -4.337  -1.565 -33.218  1.00  0.00     0.009 A 
ENDBRANCH  16  23
ENDBRANCH   1  16
TORSDOF 6
ENDMDL
MODEL 5
REMARK VINA RESULT:      -8.1      4.150      7.747
REMARK  6 active torsions:
REMARK  status: ('A' for Active; 'I' for Inactive)
REMARK    1  A    between atoms: C_8  and  C_9 
REMARK    2  A    between atoms: C_9  and  C_10 
REMARK       I    between atoms: C_10  and  N_11 
REMARK    3  A    between atoms: N_11  and  C_12 
REMARK    4  A    between atoms: C_12  and  C_13 
REMARK    5  A    between atoms: C_13  and  N_14 
REMARK    6  A    between atoms: C_13  and  C_20 
ROOT
HETATM    1  C   UNL     1      -9.352   0.498 -31.974  1.00  0.00     0.160 C 
ENDROOT
BRANCH   1   2
HETATM    2  N   UNL     1     -10.184   1.621 -32.407  1.00  0.00    -0.358 N 
HETATM    3  C   UNL     1     -10.632   1.817 -33.698  1.00  0.00     0.226 C 
HETATM    4  O   UNL     1     -10.190   1.148 -34.632  1.00  0.00    -0.273 OA
HETATM    5  H   UNL     1     -10.754   2.054 -31.682  1.00  0.00     0.162 HD
BRANCH   3   6
HETATM    6  C   UNL     1     -11.682   2.926 -33.850  1.00  0.00     0.111 C 
HETATM    7  C   UNL     1     -11.941   3.257 -35.318  1.00  0.00     0.025 C 
BRANCH   6   8
HETATM    8  C   UNL     1     -12.943   2.555 -33.117  1.00  0.00     0.004 A 
HETATM    9  C   UNL     1     -13.720   1.411 -33.237  1.00  0.00     0.033 A 
HETATM   10  C   UNL     1     -13.612   0.207 -34.095  1.00  0.00     0.070 C 
HETATM   11  N   UNL     1     -14.752   1.565 -32.352  1.00  0.00    -0.282 N 
HETATM   12  H   UNL     1     -15.533   0.939 -32.177  1.00  0.00     0.189 HD
HETATM   13  N   UNL     1     -14.677   2.691 -31.637  1.00  0.00    -0.179 NA
HETATM   14  C   UNL     1     -13.611   3.328 -32.124  1.00  0.00     0.060 A 
HETATM   15  C   UNL     1     -13.256   4.673 -31.599  1.00  0.00     0.073 C 
ENDBRANCH   6   8
ENDBRANCH   3   6
ENDBRANCH   1   2
BRANCH   1  16
HETATM   16  C   UNL     1      -7.822   0.779 -31.773  1.00  0.00     0.238 C 
BRANCH  16  17
HETATM   17  N   UNL     1      -7.500   2.247 -32.036  1.00  0.00    -0.061 N 
HETATM   18  H   UNL     1      -8.433   2.709 -31.977  1.00  0.00     0.280 HD
HETATM   19  C   UNL     1      -6.953   2.645 -33.384  1.00  0.00     0.236 C 
HETATM   20  C   UNL     1      -5.617   3.287 -33.074  1.00  0.00     0.029 C 
HETATM   21  C   UNL     1      -5.875   3.978 -31.750  1.00  0.00     0.029 C 
HETATM   22  C   UNL     1      -6.674   2.944 -30.979  1.00  0.00     0.236 C 
ENDBRANCH  16  17
BRANCH  16  23
HETATM   23  C   UNL     1      -6.930  -0.187 -32.548  1.00  0.00    -0.024 A 
HETATM   24  C   UNL     1      -5.628  -0.513 -32.127  1.00  0.00     0.033 A 
HETATM   25  C   UNL     1      -4.856  -1.430 -32.845  1.00  0.00     0.034 A 
HETATM   26 CL   UNL     1      -3.276  -1.819 -32.289  1.00  0.00    -0.084 Cl
HETATM   27  C   UNL     1      -5.354  -2.031 -33.995  1.00  0.00     0.024 A 
HETATM   28  C   UNL     1      -6.633  -1.706 -34.439  1.00  0.00     0.002 A 
HETATM   29  C   UNL     1      -7.411  -0.790 -33.725  1.00  0.00     0.009 A 
ENDBRANCH  16  23
ENDBRANCH   1  16
TORSDOF 6
ENDMDL
MODEL 6
REMARK VINA RESULT:      -8.0      4.113      7.589
REMARK  6 active torsions:
REMARK  status: ('A' for Active; 'I' for Inactive)
REMARK    1  A    between atoms: C_8  and  C_9 
REMARK    2  A    between atoms: C_9  and  C_10 
REMARK       I    between atoms: C_10  and  N_11 
REMARK    3  A    between atoms: N_11  and  C_12 
REMARK    4  A    between atoms: C_12  and  C_13 
REMARK    5  A    between atoms: C_13  and  N_14 
REMARK    6  A    between atoms: C_13  and  C_20 
ROOT
HETATM    1  C   UNL     1      -9.448   0.405 -32.279  1.00  0.00     0.160 C 
ENDROOT
BRANCH   1   2
HETATM    2  N   UNL     1     -10.249   1.628 -32.338  1.00  0.00    -0.358 N 
HETATM    3  C   UNL     1     -10.551   2.316 -33.496  1.00  0.00     0.226 C 
HETATM    4  O   UNL     1      -9.990   2.048 -34.558  1.00  0.00    -0.273 OA
HETATM    5  H   UNL     1     -10.908   1.762 -31.572  1.00  0.00     0.162 HD
BRANCH   3   6
HETATM    6  C   UNL     1     -11.599   3.424 -33.328  1.00  0.00     0.111 C 
HETATM    7  C   UNL     1     -11.791   4.217 -34.618  1.00  0.00     0.025 C 
BRANCH   6   8
HETATM    8  C   UNL     1     -12.891   2.846 -32.815  1.00  0.00     0.004 A 
HETATM    9  C   UNL     1     -13.603   3.176 -31.671  1.00  0.00     0.033 A 
HETATM   10  C   UNL     1     -13.361   4.151 -30.581  1.00  0.00     0.070 C 
HETATM   11  N   UNL     1     -14.702   2.359 -31.665  1.00  0.00    -0.282 N 
HETATM   12  H   UNL     1     -15.441   2.299 -30.970  1.00  0.00     0.189 HD
HETATM   13  N   UNL     1     -14.782   1.567 -32.738  1.00  0.00    -0.179 NA
HETATM   14  C   UNL     1     -13.663   1.814 -33.422  1.00  0.00     0.060 A 
HETATM   15  C   UNL     1     -13.378   1.049 -34.664  1.00  0.00     0.073 C 
ENDBRANCH   6   8
ENDBRANCH   3   6
ENDBRANCH   1   2
BRANCH   1  16
HETATM   16  C   UNL     1      -7.975   0.541 -31.759  1.00  0.00     0.238 C 
BRANCH  16  17
HETATM   17  N   UNL     1      -7.581   2.008 -31.619  1.00  0.00    -0.061 N 
HETATM   18  H   UNL     1      -8.501   2.497 -31.570  1.00  0.00     0.280 HD
HETATM   19  C   UNL     1      -6.845   2.677 -32.754  1.00  0.00     0.236 C 
HETATM   20  C   UNL     1      -5.547   3.149 -32.133  1.00  0.00     0.029 C 
HETATM   21  C   UNL     1      -5.964   3.526 -30.726  1.00  0.00     0.029 C 
HETATM   22  C   UNL     1      -6.888   2.389 -30.332  1.00  0.00     0.236 C 
ENDBRANCH  16  17
BRANCH  16  23
HETATM   23  C   UNL     1      -6.977  -0.283 -32.568  1.00  0.00    -0.024 A 
HETATM   24  C   UNL     1      -5.710  -0.634 -32.070  1.00  0.00     0.033 A 
HETATM   25  C   UNL     1      -4.838  -1.420 -32.827  1.00  0.00     0.034 A 
HETATM   26 CL   UNL     1      -3.304  -1.845 -32.177  1.00  0.00    -0.084 Cl
HETATM   27  C   UNL     1      -5.201  -1.862 -34.094  1.00  0.00     0.024 A 
HETATM   28  C   UNL     1      -6.444  -1.509 -34.614  1.00  0.00     0.002 A 
HETATM   29  C   UNL     1      -7.321  -0.723 -33.859  1.00  0.00     0.009 A 
ENDBRANCH  16  23
ENDBRANCH   1  16
TORSDOF 6
ENDMDL
MODEL 7
REMARK VINA RESULT:      -7.9      1.743      2.751
REMARK  6 active torsions:
REMARK  status: ('A' for Active; 'I' for Inactive)
REMARK    1  A    between atoms: C_8  and  C_9 
REMARK    2  A    between atoms: C_9  and  C_10 
REMARK       I    between atoms: C_10  and  N_11 
REMARK    3  A    between atoms: N_11  and  C_12 
REMARK    4  A    between atoms: C_12  and  C_13 
REMARK    5  A    between atoms: C_13  and  N_14 
REMARK    6  A    between atoms: C_13  and  C_20 
ROOT
HETATM    1  C   UNL     1      -5.058   1.106 -32.454  1.00  0.00     0.160 C 
ENDROOT
BRANCH   1   2
HETATM    2  N   UNL     1      -4.414   2.409 -32.629  1.00  0.00    -0.358 N 
HETATM    3  C   UNL     1      -3.243   2.797 -32.009  1.00  0.00     0.226 C 
HETATM    4  O   UNL     1      -2.757   2.130 -31.095  1.00  0.00    -0.273 OA
HETATM    5  H   UNL     1      -4.618   2.889 -33.504  1.00  0.00     0.162 HD
BRANCH   3   6
HETATM    6  C   UNL     1      -2.643   4.107 -32.537  1.00  0.00     0.111 C 
HETATM    7  C   UNL     1      -3.439   4.654 -33.719  1.00  0.00     0.025 C 
BRANCH   6   8
HETATM    8  C   UNL     1      -2.515   5.108 -31.421  1.00  0.00     0.004 A 
HETATM    9  C   UNL     1      -3.514   5.717 -30.674  1.00  0.00     0.033 A 
HETATM   10  C   UNL     1      -4.993   5.626 -30.708  1.00  0.00     0.070 C 
HETATM   11  N   UNL     1      -2.871   6.542 -29.791  1.00  0.00    -0.282 N 
HETATM   12  H   UNL     1      -3.276   7.166 -29.099  1.00  0.00     0.189 HD
HETATM   13  N   UNL     1      -1.539   6.477 -29.874  1.00  0.00    -0.179 NA
HETATM   14  C   UNL     1      -1.306   5.648 -30.894  1.00  0.00     0.060 A 
HETATM   15  C   UNL     1       0.093   5.386 -31.322  1.00  0.00     0.073 C 
ENDBRANCH   6   8
ENDBRANCH   3   6
ENDBRANCH   1   2
BRANCH   1  16
HETATM   16  C   UNL     1      -6.048   0.642 -33.579  1.00  0.00     0.238 C 
BRANCH  16  17
HETATM   17  N   UNL     1      -7.482   1.034 -33.237  1.00  0.00    -0.061 N 
HETATM   18  H   UNL     1      -8.051   0.389 -33.826  1.00  0.00     0.280 HD
HETATM   19  C   UNL     1      -7.965   2.418 -33.595  1.00  0.00     0.236 C 
HETATM   20  C   UNL     1      -8.384   3.024 -32.272  1.00  0.00     0.029 C 
HETATM   21  C   UNL     1      -8.936   1.833 -31.515  1.00  0.00     0.029 C 
HETATM   22  C   UNL     1      -7.931   0.740 -31.824  1.00  0.00     0.236 C 
ENDBRANCH  16  17
BRANCH  16  23
HETATM   23  C   UNL     1      -5.889  -0.830 -33.944  1.00  0.00    -0.024 A 
HETATM   24  C   UNL     1      -4.813  -1.610 -33.484  1.00  0.00     0.033 A 
HETATM   25  C   UNL     1      -4.722  -2.965 -33.811  1.00  0.00     0.034 A 
HETATM   26 CL   UNL     1      -3.402  -3.890 -33.213  1.00  0.00    -0.084 Cl
HETATM   27  C   UNL     1      -5.689  -3.569 -34.606  1.00  0.00     0.024 A 
HETATM   28  C   UNL     1      -6.753  -2.810 -35.088  1.00  0.00     0.002 A 
HETATM   29  C   UNL     1      -6.849  -1.453 -34.764  1.00  0.00     0.009 A 
ENDBRANCH  16  23
ENDBRANCH   1  16
TORSDOF 6
ENDMDL
MODEL 8
REMARK VINA RESULT:      -7.9      2.065      3.000
REMARK  6 active torsions:
REMARK  status: ('A' for Active; 'I' for Inactive)
REMARK    1  A    between atoms: C_8  and  C_9 
REMARK    2  A    between atoms: C_9  and  C_10 
REMARK       I    between atoms: C_10  and  N_11 
REMARK    3  A    between atoms: N_11  and  C_12 
REMARK    4  A    between atoms: C_12  and  C_13 
REMARK    5  A    between atoms: C_13  and  N_14 
REMARK    6  A    between atoms: C_13  and  C_20 
ROOT
HETATM    1  C   UNL     1      -4.926   0.316 -32.497  1.00  0.00     0.160 C 
ENDROOT
BRANCH   1   2
HETATM    2  N   UNL     1      -4.454   1.701 -32.481  1.00  0.00    -0.358 N 
HETATM    3  C   UNL     1      -4.676   2.596 -31.453  1.00  0.00     0.226 C 
HETATM    4  O   UNL     1      -5.471   2.339 -30.548  1.00  0.00    -0.273 OA
HETATM    5  H   UNL     1      -3.634   1.895 -33.052  1.00  0.00     0.162 HD
BRANCH   3   6
HETATM    6  C   UNL     1      -3.880   3.904 -31.560  1.00  0.00     0.111 C 
HETATM    7  C   UNL     1      -2.721   3.777 -32.545  1.00  0.00     0.025 C 
BRANCH   6   8
HETATM    8  C   UNL     1      -4.798   5.046 -31.901  1.00  0.00     0.004 A 
HETATM    9  C   UNL     1      -5.499   5.284 -33.075  1.00  0.00     0.033 A 
HETATM   10  C   UNL     1      -5.586   4.553 -34.361  1.00  0.00     0.070 C 
HETATM   11  N   UNL     1      -6.182   6.453 -32.873  1.00  0.00    -0.282 N 
HETATM   12  H   UNL     1      -6.785   6.952 -33.520  1.00  0.00     0.189 HD
HETATM   13  N   UNL     1      -6.018   6.961 -31.648  1.00  0.00    -0.179 NA
HETATM   14  C   UNL     1      -5.140   6.145 -31.061  1.00  0.00     0.060 A 
HETATM   15  C   UNL     1      -4.664   6.446 -29.685  1.00  0.00     0.073 C 
ENDBRANCH   6   8
ENDBRANCH   3   6
ENDBRANCH   1   2
BRANCH   1  16
HETATM   16  C   UNL     1      -5.900  -0.093 -33.657  1.00  0.00     0.238 C 
BRANCH  16  17
HETATM   17  N   UNL     1      -7.325   0.360 -33.354  1.00  0.00    -0.061 N 
HETATM   18  H   UNL     1      -7.909  -0.367 -33.821  1.00  0.00     0.280 HD
HETATM   19  C   UNL     1      -7.810   1.672 -33.919  1.00  0.00     0.236 C 
HETATM   20  C   UNL     1      -8.199   2.485 -32.702  1.00  0.00     0.029 C 
HETATM   21  C   UNL     1      -8.741   1.435 -31.755  1.00  0.00     0.029 C 
HETATM   22  C   UNL     1      -7.747   0.299 -31.904  1.00  0.00     0.236 C 
ENDBRANCH  16  17
BRANCH  16  23
HETATM   23  C   UNL     1      -5.796  -1.568 -34.032  1.00  0.00    -0.024 A 
HETATM   24  C   UNL     1      -4.644  -2.332 -33.775  1.00  0.00     0.033 A 
HETATM   25  C   UNL     1      -4.601  -3.690 -34.102  1.00  0.00     0.034 A 
HETATM   26 CL   UNL     1      -3.182  -4.596 -33.755  1.00  0.00    -0.084 Cl
HETATM   27  C   UNL     1      -5.693  -4.311 -34.698  1.00  0.00     0.024 A 
HETATM   28  C   UNL     1      -6.836  -3.567 -34.979  1.00  0.00     0.002 A 
HETATM   29  C   UNL     1      -6.885  -2.208 -34.653  1.00  0.00     0.009 A 
ENDBRANCH  16  23
ENDBRANCH   1  16
TORSDOF 6
ENDMDL
MODEL 9
REMARK VINA RESULT:      -7.8      1.876      2.597
REMARK  6 active torsions:
REMARK  status: ('A' for Active; 'I' for Inactive)
REMARK    1  A    between atoms: C_8  and  C_9 
REMARK    2  A    between atoms: C_9  and  C_10 
REMARK       I    between atoms: C_10  and  N_11 
REMARK    3  A    between atoms: N_11  and  C_12 
REMARK    4  A    between atoms: C_12  and  C_13 
REMARK    5  A    between atoms: C_13  and  N_14 
REMARK    6  A    between atoms: C_13  and  C_20 
ROOT
HETATM    1  C   UNL     1      -4.435   1.921 -32.334  1.00  0.00     0.160 C 
ENDROOT
BRANCH   1   2
HETATM    2  N   UNL     1      -3.830   3.170 -32.800  1.00  0.00    -0.358 N 
HETATM    3  C   UNL     1      -2.701   3.747 -32.256  1.00  0.00     0.226 C 
HETATM    4  O   UNL     1      -2.230   3.343 -31.193  1.00  0.00    -0.273 OA
HETATM    5  H   UNL     1      -4.015   3.415 -33.772  1.00  0.00     0.162 HD
BRANCH   3   6
HETATM    6  C   UNL     1      -2.126   4.917 -33.066  1.00  0.00     0.111 C 
HETATM    7  C   UNL     1      -2.743   4.991 -34.461  1.00  0.00     0.025 C 
BRANCH   6   8
HETATM    8  C   UNL     1      -2.280   6.205 -32.304  1.00  0.00     0.004 A 
HETATM    9  C   UNL     1      -1.305   6.985 -31.698  1.00  0.00     0.033 A 
HETATM   10  C   UNL     1       0.164   6.837 -31.567  1.00  0.00     0.070 C 
HETATM   11  N   UNL     1      -1.966   8.046 -31.142  1.00  0.00    -0.282 N 
HETATM   12  H   UNL     1      -1.584   8.814 -30.597  1.00  0.00     0.189 HD
HETATM   13  N   UNL     1      -3.280   8.041 -31.383  1.00  0.00    -0.179 NA
HETATM   14  C   UNL     1      -3.496   6.902 -32.046  1.00  0.00     0.060 A 
HETATM   15  C   UNL     1      -4.882   6.526 -32.428  1.00  0.00     0.073 C 
ENDBRANCH   6   8
ENDBRANCH   3   6
ENDBRANCH   1   2
BRANCH   1  16
HETATM   16  C   UNL     1      -5.735   1.440 -33.070  1.00  0.00     0.238 C 
BRANCH  16  17
HETATM   17  N   UNL     1      -6.972   1.707 -32.218  1.00  0.00    -0.061 N 
HETATM   18  H   UNL     1      -6.623   2.373 -31.496  1.00  0.00     0.280 HD
HETATM   19  C   UNL     1      -7.581   0.568 -31.438  1.00  0.00     0.236 C 
HETATM   20  C   UNL     1      -9.000   0.474 -31.955  1.00  0.00     0.029 C 
HETATM   21  C   UNL     1      -9.354   1.920 -32.236  1.00  0.00     0.029 C 
HETATM   22  C   UNL     1      -8.097   2.453 -32.898  1.00  0.00     0.236 C 
ENDBRANCH  16  17
BRANCH  16  23
HETATM   23  C   UNL     1      -5.640   0.002 -33.571  1.00  0.00    -0.024 A 
HETATM   24  C   UNL     1      -4.694  -0.910 -33.071  1.00  0.00     0.033 A 
HETATM   25  C   UNL     1      -4.662  -2.229 -33.531  1.00  0.00     0.034 A 
HETATM   26 CL   UNL     1      -3.504  -3.321 -32.881  1.00  0.00    -0.084 Cl
HETATM   27  C   UNL     1      -5.558  -2.664 -34.501  1.00  0.00     0.024 A 
HETATM   28  C   UNL     1      -6.490  -1.770 -35.023  1.00  0.00     0.002 A 
HETATM   29  C   UNL     1      -6.527  -0.449 -34.566  1.00  0.00     0.009 A 
ENDBRANCH  16  23
ENDBRANCH   1  16
TORSDOF 6
ENDMDL
MODEL 10
REMARK VINA RESULT:      -7.7      2.471      3.890
REMARK  6 active torsions:
REMARK  status: ('A' for Active; 'I' for Inactive)
REMARK    1  A    between atoms: C_8  and  C_9 
REMARK    2  A    between atoms: C_9  and  C_10 
REMARK       I    between atoms: C_10  and  N_11 
REMARK    3  A    between atoms: N_11  and  C_12 
REMARK    4  A    between atoms: C_12  and  C_13 
REMARK    5  A    between atoms: C_13  and  N_14 
REMARK    6  A    between atoms: C_13  and  C_20 
ROOT
HETATM    1  C   UNL     1      -6.712   1.775 -34.701  1.00  0.00     0.160 C 
ENDROOT
BRANCH   1   2
HETATM    2  N   UNL     1      -5.764   1.977 -33.604  1.00  0.00    -0.358 N 
HETATM    3  C   UNL     1      -5.296   3.207 -33.187  1.00  0.00     0.226 C 
HETATM    4  O   UNL     1      -5.501   4.223 -33.851  1.00  0.00    -0.273 OA
HETATM    5  H   UNL     1      -5.743   1.244 -32.897  1.00  0.00     0.162 HD
BRANCH   3   6
HETATM    6  C   UNL     1      -4.505   3.178 -31.872  1.00  0.00     0.111 C 
HETATM    7  C   UNL     1      -4.207   4.586 -31.365  1.00  0.00     0.025 C 
BRANCH   6   8
HETATM    8  C   UNL     1      -5.226   2.343 -30.849  1.00  0.00     0.004 A 
HETATM    9  C   UNL     1      -6.369   2.644 -30.121  1.00  0.00     0.033 A 
HETATM   10  C   UNL     1      -7.244   3.840 -30.071  1.00  0.00     0.070 C 
HETATM   11  N   UNL     1      -6.609   1.553 -29.331  1.00  0.00    -0.282 N 
HETATM   12  H   UNL     1      -7.349   1.418 -28.647  1.00  0.00     0.189 HD
HETATM   13  N   UNL     1      -5.744   0.553 -29.526  1.00  0.00    -0.179 NA
HETATM   14  C   UNL     1      -4.867   1.036 -30.409  1.00  0.00     0.060 A 
HETATM   15  C   UNL     1      -3.705   0.204 -30.818  1.00  0.00     0.073 C 
ENDBRANCH   6   8
ENDBRANCH   3   6
ENDBRANCH   1   2
BRANCH   1  16
HETATM   16  C   UNL     1      -7.476   0.405 -34.740  1.00  0.00     0.238 C 
BRANCH  16  17
HETATM   17  N   UNL     1      -8.658   0.414 -33.776  1.00  0.00    -0.061 N 
HETATM   18  H   UNL     1      -9.175  -0.455 -34.026  1.00  0.00     0.280 HD
HETATM   19  C   UNL     1      -9.679   1.520 -33.885  1.00  0.00     0.236 C 
HETATM   20  C   UNL     1      -9.657   2.187 -32.525  1.00  0.00     0.029 C 
HETATM   21  C   UNL     1      -9.394   1.028 -31.586  1.00  0.00     0.029 C 
HETATM   22  C   UNL     1      -8.323   0.239 -32.313  1.00  0.00     0.236 C 
ENDBRANCH  16  17
BRANCH  16  23
HETATM   23  C   UNL     1      -6.555  -0.798 -34.562  1.00  0.00    -0.024 A 
HETATM   24  C   UNL     1      -6.922  -2.096 -34.961  1.00  0.00     0.033 A 
HETATM   25  C   UNL     1      -6.036  -3.166 -34.814  1.00  0.00     0.034 A 
HETATM   26 CL   UNL     1      -6.514  -4.734 -35.331  1.00  0.00    -0.084 Cl
HETATM   27  C   UNL     1      -4.776  -2.972 -34.259  1.00  0.00     0.024 A 
HETATM   28  C   UNL     1      -4.401  -1.698 -33.840  1.00  0.00     0.002 A 
HETATM   29  C   UNL     1      -5.283  -0.623 -33.986  1.00  0.00     0.009 A 
ENDBRANCH  16  23
ENDBRANCH   1  16
TORSDOF 6
ENDMDL
