MODEL 1
REMARK VINA RESULT:      -7.2      0.000      0.000
REMARK  5 active torsions:
REMARK  status: ('A' for Active; 'I' for Inactive)
REMARK    1  A    between atoms: C_8  and  C_9 
REMARK    2  A    between atoms: C_11  and  O_12 
REMARK    3  A    between atoms: C_14  and  O_15 
REMARK    4  A    between atoms: C_18  and  C_19 
REMARK    5  A    between atoms: C_22  and  O_23 
ROOT
HETATM    1  C   UNL     1     -10.526   3.856 -30.529  1.00  0.00     0.070 C 
HETATM    2  C   UNL     1      -9.096   3.474 -30.539  1.00  0.00     0.033 A 
HETATM    3  N   UNL     1      -8.148   4.247 -29.920  1.00  0.00    -0.282 N 
HETATM    4  H   UNL     1      -8.280   5.125 -29.432  1.00  0.00     0.189 HD
HETATM    5  N   UNL     1      -6.914   3.725 -29.954  1.00  0.00    -0.179 NA
HETATM    6  C   UNL     1      -7.075   2.586 -30.631  1.00  0.00     0.066 A 
HETATM    7  C   UNL     1      -8.409   2.400 -31.077  1.00  0.00     0.001 A 
HETATM    8  C   UNL     1      -8.832   1.170 -31.824  1.00  0.00     0.070 C 
HETATM    9  C   UNL     1      -7.630   0.356 -32.385  1.00  0.00     0.102 C 
HETATM   10  C   UNL     1      -6.463   0.249 -31.361  1.00  0.00     0.071 C 
HETATM   11  C   UNL     1      -5.279  -0.566 -31.907  1.00  0.00     0.047 C 
HETATM   12  C   UNL     1      -5.954   1.629 -30.859  1.00  0.00     0.100 C 
ENDROOT
BRANCH   8  13
HETATM   13  C   UNL     1      -9.876   1.514 -32.878  1.00  0.00    -0.046 A 
HETATM   14  C   UNL     1      -9.814   2.669 -33.683  1.00  0.00     0.047 A 
HETATM   15  C   UNL     1     -10.790   2.912 -34.651  1.00  0.00     0.101 A 
HETATM   16  C   UNL     1     -11.786   1.964 -34.880  1.00  0.00     0.099 A 
HETATM   17  C   UNL     1     -11.861   0.810 -34.116  1.00  0.00     0.040 A 
HETATM   18  C   UNL     1     -10.915   0.591 -33.113  1.00  0.00     0.011 A 
BRANCH  15  19
HETATM   19  O   UNL     1     -10.813   4.029 -35.447  1.00  0.00    -0.353 OA
HETATM   20  C   UNL     1     -10.009   5.089 -34.929  1.00  0.00     0.210 C 
ENDBRANCH  15  19
BRANCH  16  21
HETATM   21  O   UNL     1     -12.715   2.162 -35.861  1.00  0.00    -0.358 OA
HETATM   22  H   UNL     1     -12.395   2.938 -36.361  1.00  0.00     0.218 HD
ENDBRANCH  16  21
ENDBRANCH   8  13
BRANCH   9  23
HETATM   23  C   UNL     1      -7.133   0.878 -33.732  1.00  0.00     0.131 C 
HETATM   24  C   UNL     1      -7.401   0.011 -34.939  1.00  0.00     0.091 C 
HETATM   25  O   UNL     1      -6.506   1.929 -33.845  1.00  0.00    -0.298 OA
ENDBRANCH   9  23
BRANCH  10  26
HETATM   26  O   UNL     1      -6.963  -0.487 -30.221  1.00  0.00    -0.389 OA
HETATM   27  H   UNL     1      -6.639  -0.070 -29.404  1.00  0.00     0.210 HD
ENDBRANCH  10  26
TORSDOF 5
ENDMDL
MODEL 2
REMARK VINA RESULT:      -7.0      2.475      4.131
REMARK  5 active torsions:
REMARK  status: ('A' for Active; 'I' for Inactive)
REMARK    1  A    between atoms: C_8  and  C_9 
REMARK    2  A    between atoms: C_11  and  O_12 
REMARK    3  A    between atoms: C_14  and  O_15 
REMARK    4  A    between atoms: C_18  and  C_19 
REMARK    5  A    between atoms: C_22  and  O_23 
ROOT
HETATM    1  C   UNL     1      -6.703  -1.020 -34.974  1.00  0.00     0.070 C 
HETATM    2  C   UNL     1      -5.764  -0.440 -33.987  1.00  0.00     0.033 A 
HETATM    3  N   UNL     1      -4.639  -1.116 -33.593  1.00  0.00    -0.282 N 
HETATM    4  H   UNL     1      -4.332  -2.039 -33.879  1.00  0.00     0.189 HD
HETATM    5  N   UNL     1      -3.854  -0.424 -32.755  1.00  0.00    -0.179 NA
HETATM    6  C   UNL     1      -4.508   0.729 -32.596  1.00  0.00     0.066 A 
HETATM    7  C   UNL     1      -5.742   0.758 -33.295  1.00  0.00     0.001 A 
HETATM    8  C   UNL     1      -6.628   1.969 -33.293  1.00  0.00     0.070 C 
HETATM    9  C   UNL     1      -6.266   2.984 -32.171  1.00  0.00     0.102 C 
HETATM   10  C   UNL     1      -4.729   3.177 -32.025  1.00  0.00     0.071 C 
HETATM   11  C   UNL     1      -4.368   4.190 -30.926  1.00  0.00     0.047 C 
HETATM   12  C   UNL     1      -3.961   1.849 -31.777  1.00  0.00     0.100 C 
ENDROOT
BRANCH   8  13
HETATM   13  C   UNL     1      -8.095   1.561 -33.292  1.00  0.00    -0.046 A 
HETATM   14  C   UNL     1      -9.068   2.165 -34.113  1.00  0.00     0.047 A 
HETATM   15  C   UNL     1     -10.393   1.726 -34.084  1.00  0.00     0.101 A 
HETATM   16  C   UNL     1     -10.737   0.625 -33.301  1.00  0.00     0.099 A 
HETATM   17  C   UNL     1      -9.797  -0.001 -32.498  1.00  0.00     0.040 A 
HETATM   18  C   UNL     1      -8.484   0.472 -32.487  1.00  0.00     0.011 A 
BRANCH  15  19
HETATM   19  O   UNL     1     -11.399   2.287 -34.828  1.00  0.00    -0.353 OA
HETATM   20  C   UNL     1     -11.123   3.640 -35.193  1.00  0.00     0.210 C 
ENDBRANCH  15  19
BRANCH  16  21
HETATM   21  O   UNL     1     -12.017   0.149 -33.304  1.00  0.00    -0.358 OA
HETATM   22  H   UNL     1     -12.055  -0.473 -34.056  1.00  0.00     0.218 HD
ENDBRANCH  16  21
ENDBRANCH   8  13
BRANCH   9  23
HETATM   23  C   UNL     1      -6.907   2.642 -30.827  1.00  0.00     0.131 C 
HETATM   24  C   UNL     1      -8.015   3.549 -30.350  1.00  0.00     0.091 C 
HETATM   25  O   UNL     1      -6.525   1.702 -30.131  1.00  0.00    -0.298 OA
ENDBRANCH   9  23
BRANCH  10  26
HETATM   26  O   UNL     1      -4.251   3.747 -33.266  1.00  0.00    -0.389 OA
HETATM   27  H   UNL     1      -4.850   3.488 -33.988  1.00  0.00     0.210 HD
ENDBRANCH  10  26
TORSDOF 5
ENDMDL
MODEL 3
REMARK VINA RESULT:      -7.0      2.953      5.437
REMARK  5 active torsions:
REMARK  status: ('A' for Active; 'I' for Inactive)
REMARK    1  A    between atoms: C_8  and  C_9 
REMARK    2  A    between atoms: C_11  and  O_12 
REMARK    3  A    between atoms: C_14  and  O_15 
REMARK    4  A    between atoms: C_18  and  C_19 
REMARK    5  A    between atoms: C_22  and  O_23 
ROOT
HETATM    1  C   UNL     1      -8.246   3.929 -31.427  1.00  0.00     0.070 C 
HETATM    2  C   UNL     1      -8.423   2.489 -31.721  1.00  0.00     0.033 A 
HETATM    3  N   UNL     1      -9.443   1.767 -31.158  1.00  0.00    -0.282 N 
HETATM    4  H   UNL     1     -10.145   2.086 -30.500  1.00  0.00     0.189 HD
HETATM    5  N   UNL     1      -9.511   0.498 -31.584  1.00  0.00    -0.179 NA
HETATM    6  C   UNL     1      -8.489   0.400 -32.437  1.00  0.00     0.066 A 
HETATM    7  C   UNL     1      -7.732   1.597 -32.522  1.00  0.00     0.001 A 
HETATM    8  C   UNL     1      -6.560   1.731 -33.449  1.00  0.00     0.070 C 
HETATM    9  C   UNL     1      -6.042   0.361 -33.976  1.00  0.00     0.102 C 
HETATM   10  C   UNL     1      -7.204  -0.597 -34.367  1.00  0.00     0.071 C 
HETATM   11  C   UNL     1      -6.696  -1.946 -34.900  1.00  0.00     0.047 C 
HETATM   12  C   UNL     1      -8.215  -0.844 -33.213  1.00  0.00     0.100 C 
ENDROOT
BRANCH   8  13
HETATM   13  C   UNL     1      -5.472   2.590 -32.819  1.00  0.00    -0.046 A 
HETATM   14  C   UNL     1      -4.877   3.688 -33.469  1.00  0.00     0.047 A 
HETATM   15  C   UNL     1      -3.903   4.453 -32.825  1.00  0.00     0.101 A 
HETATM   16  C   UNL     1      -3.578   4.178 -31.497  1.00  0.00     0.099 A 
HETATM   17  C   UNL     1      -4.161   3.115 -30.825  1.00  0.00     0.040 A 
HETATM   18  C   UNL     1      -5.097   2.318 -31.488  1.00  0.00     0.011 A 
BRANCH  15  19
HETATM   19  O   UNL     1      -3.258   5.514 -33.406  1.00  0.00    -0.353 OA
HETATM   20  C   UNL     1      -3.230   5.426 -34.832  1.00  0.00     0.210 C 
ENDBRANCH  15  19
BRANCH  16  21
HETATM   21  O   UNL     1      -2.667   4.951 -30.835  1.00  0.00    -0.358 OA
HETATM   22  H   UNL     1      -1.987   5.169 -31.502  1.00  0.00     0.218 HD
ENDBRANCH  16  21
ENDBRANCH   8  13
BRANCH   9  23
HETATM   23  C   UNL     1      -5.070  -0.319 -33.013  1.00  0.00     0.131 C 
HETATM   24  C   UNL     1      -3.625  -0.393 -33.444  1.00  0.00     0.091 C 
HETATM   25  O   UNL     1      -5.433  -0.825 -31.952  1.00  0.00    -0.298 OA
ENDBRANCH   9  23
BRANCH  10  26
HETATM   26  O   UNL     1      -7.916   0.023 -35.463  1.00  0.00    -0.389 OA
HETATM   27  H   UNL     1      -8.561   0.658 -35.107  1.00  0.00     0.210 HD
ENDBRANCH  10  26
TORSDOF 5
ENDMDL
MODEL 4
REMARK VINA RESULT:      -6.9      2.813      5.255
REMARK  5 active torsions:
REMARK  status: ('A' for Active; 'I' for Inactive)
REMARK    1  A    between atoms: C_8  and  C_9 
REMARK    2  A    between atoms: C_11  and  O_12 
REMARK    3  A    between atoms: C_14  and  O_15 
REMARK    4  A    between atoms: C_18  and  C_19 
REMARK    5  A    between atoms: C_22  and  O_23 
ROOT
HETATM    1  C   UNL     1      -9.855  -0.420 -32.721  1.00  0.00     0.070 C 
HETATM    2  C   UNL     1      -9.549   0.977 -32.336  1.00  0.00     0.033 A 
HETATM    3  N   UNL     1     -10.490   1.967 -32.440  1.00  0.00    -0.282 N 
HETATM    4  H   UNL     1     -11.439   1.893 -32.788  1.00  0.00     0.189 HD
HETATM    5  N   UNL     1     -10.080   3.158 -31.980  1.00  0.00    -0.179 NA
HETATM    6  C   UNL     1      -8.828   2.924 -31.582  1.00  0.00     0.066 A 
HETATM    7  C   UNL     1      -8.415   1.590 -31.833  1.00  0.00     0.001 A 
HETATM    8  C   UNL     1      -7.059   1.090 -31.431  1.00  0.00     0.070 C 
HETATM    9  C   UNL     1      -6.061   2.238 -31.100  1.00  0.00     0.102 C 
HETATM   10  C   UNL     1      -6.723   3.370 -30.262  1.00  0.00     0.071 C 
HETATM   11  C   UNL     1      -5.737   4.499 -29.923  1.00  0.00     0.047 C 
HETATM   12  C   UNL     1      -7.990   3.972 -30.931  1.00  0.00     0.100 C 
ENDROOT
BRANCH   8  13
HETATM   13  C   UNL     1      -6.525   0.100 -32.458  1.00  0.00    -0.046 A 
HETATM   14  C   UNL     1      -5.525  -0.850 -32.173  1.00  0.00     0.047 A 
HETATM   15  C   UNL     1      -5.100  -1.749 -33.153  1.00  0.00     0.101 A 
HETATM   16  C   UNL     1      -5.729  -1.761 -34.397  1.00  0.00     0.099 A 
HETATM   17  C   UNL     1      -6.729  -0.850 -34.700  1.00  0.00     0.040 A 
HETATM   18  C   UNL     1      -7.118   0.083 -33.737  1.00  0.00     0.011 A 
BRANCH  15  19
HETATM   19  O   UNL     1      -4.110  -2.677 -32.959  1.00  0.00    -0.353 OA
HETATM   20  C   UNL     1      -3.161  -2.270 -31.971  1.00  0.00     0.210 C 
ENDBRANCH  15  19
BRANCH  16  21
HETATM   21  O   UNL     1      -5.361  -2.670 -35.348  1.00  0.00    -0.358 OA
HETATM   22  H   UNL     1      -6.173  -2.838 -35.865  1.00  0.00     0.218 HD
ENDBRANCH  16  21
ENDBRANCH   8  13
BRANCH   9  23
HETATM   23  C   UNL     1      -5.371   2.804 -32.341  1.00  0.00     0.131 C 
HETATM   24  C   UNL     1      -3.871   2.650 -32.415  1.00  0.00     0.091 C 
HETATM   25  O   UNL     1      -5.983   3.398 -33.227  1.00  0.00    -0.298 OA
ENDBRANCH   9  23
BRANCH  10  26
HETATM   26  O   UNL     1      -7.116   2.789 -28.998  1.00  0.00    -0.389 OA
HETATM   27  H   UNL     1      -8.074   2.617 -29.009  1.00  0.00     0.210 HD
ENDBRANCH  10  26
TORSDOF 5
ENDMDL
MODEL 5
REMARK VINA RESULT:      -6.6      2.850      5.462
REMARK  5 active torsions:
REMARK  status: ('A' for Active; 'I' for Inactive)
REMARK    1  A    between atoms: C_8  and  C_9 
REMARK    2  A    between atoms: C_11  and  O_12 
REMARK    3  A    between atoms: C_14  and  O_15 
REMARK    4  A    between atoms: C_18  and  C_19 
REMARK    5  A    between atoms: C_22  and  O_23 
ROOT
HETATM    1  C   UNL     1      -9.035   4.027 -32.365  1.00  0.00     0.070 C 
HETATM    2  C   UNL     1      -8.964   2.560 -32.554  1.00  0.00     0.033 A 
HETATM    3  N   UNL     1     -10.048   1.758 -32.313  1.00  0.00    -0.282 N 
HETATM    4  H   UNL     1     -10.965   2.031 -31.977  1.00  0.00     0.189 HD
HETATM    5  N   UNL     1      -9.844   0.465 -32.604  1.00  0.00    -0.179 NA
HETATM    6  C   UNL     1      -8.580   0.438 -33.033  1.00  0.00     0.066 A 
HETATM    7  C   UNL     1      -7.954   1.709 -32.968  1.00  0.00     0.001 A 
HETATM    8  C   UNL     1      -6.545   1.925 -33.436  1.00  0.00     0.070 C 
HETATM    9  C   UNL     1      -5.751   0.597 -33.607  1.00  0.00     0.102 C 
HETATM   10  C   UNL     1      -6.605  -0.517 -34.280  1.00  0.00     0.071 C 
HETATM   11  C   UNL     1      -5.819  -1.826 -34.461  1.00  0.00     0.047 C 
HETATM   12  C   UNL     1      -7.935  -0.811 -33.532  1.00  0.00     0.100 C 
ENDROOT
BRANCH   8  13
HETATM   13  C   UNL     1      -5.837   2.947 -32.557  1.00  0.00    -0.046 A 
HETATM   14  C   UNL     1      -6.116   3.115 -31.186  1.00  0.00     0.047 A 
HETATM   15  C   UNL     1      -5.411   4.052 -30.428  1.00  0.00     0.101 A 
HETATM   16  C   UNL     1      -4.366   4.766 -31.014  1.00  0.00     0.099 A 
HETATM   17  C   UNL     1      -4.057   4.608 -32.355  1.00  0.00     0.040 A 
HETATM   18  C   UNL     1      -4.797   3.708 -33.126  1.00  0.00     0.011 A 
BRANCH  15  19
HETATM   19  O   UNL     1      -5.649   4.295 -29.100  1.00  0.00    -0.353 OA
HETATM   20  C   UNL     1      -6.870   5.004 -28.882  1.00  0.00     0.210 C 
ENDBRANCH  15  19
BRANCH  16  21
HETATM   21  O   UNL     1      -3.632   5.647 -30.272  1.00  0.00    -0.358 OA
HETATM   22  H   UNL     1      -2.972   5.097 -29.806  1.00  0.00     0.218 HD
ENDBRANCH  16  21
ENDBRANCH   8  13
BRANCH   9  23
HETATM   23  C   UNL     1      -5.132   0.101 -32.301  1.00  0.00     0.131 C 
HETATM   24  C   UNL     1      -3.626   0.146 -32.202  1.00  0.00     0.091 C 
HETATM   25  O   UNL     1      -5.805  -0.355 -31.379  1.00  0.00    -0.298 OA
ENDBRANCH   9  23
BRANCH  10  26
HETATM   26  O   UNL     1      -6.929  -0.058 -35.612  1.00  0.00    -0.389 OA
HETATM   27  H   UNL     1      -6.651   0.869 -35.707  1.00  0.00     0.210 HD
ENDBRANCH  10  26
TORSDOF 5
ENDMDL
MODEL 6
REMARK VINA RESULT:      -6.6      7.225      9.674
REMARK  5 active torsions:
REMARK  status: ('A' for Active; 'I' for Inactive)
REMARK    1  A    between atoms: C_8  and  C_9 
REMARK    2  A    between atoms: C_11  and  O_12 
REMARK    3  A    between atoms: C_14  and  O_15 
REMARK    4  A    between atoms: C_18  and  C_19 
REMARK    5  A    between atoms: C_22  and  O_23 
ROOT
HETATM    1  C   UNL     1       1.040   5.314 -30.538  1.00  0.00     0.070 C 
HETATM    2  C   UNL     1       0.227   5.848 -29.421  1.00  0.00     0.033 A 
HETATM    3  N   UNL     1       0.377   5.375 -28.144  1.00  0.00    -0.282 N 
HETATM    4  H   UNL     1       0.995   4.642 -27.817  1.00  0.00     0.189 HD
HETATM    5  N   UNL     1      -0.376   6.014 -27.236  1.00  0.00    -0.179 NA
HETATM    6  C   UNL     1      -1.042   6.915 -27.962  1.00  0.00     0.066 A 
HETATM    7  C   UNL     1      -0.753   6.822 -29.348  1.00  0.00     0.001 A 
HETATM    8  C   UNL     1      -1.355   7.762 -30.349  1.00  0.00     0.070 C 
HETATM    9  C   UNL     1      -2.580   8.542 -29.790  1.00  0.00     0.102 C 
HETATM   10  C   UNL     1      -2.344   9.044 -28.336  1.00  0.00     0.071 C 
HETATM   11  C   UNL     1      -3.547   9.826 -27.785  1.00  0.00     0.047 C 
HETATM   12  C   UNL     1      -1.968   7.907 -27.345  1.00  0.00     0.100 C 
ENDROOT
BRANCH   8  13
HETATM   13  C   UNL     1      -1.643   7.039 -31.659  1.00  0.00    -0.046 A 
HETATM   14  C   UNL     1      -2.028   5.686 -31.729  1.00  0.00     0.047 A 
HETATM   15  C   UNL     1      -2.304   5.090 -32.961  1.00  0.00     0.101 A 
HETATM   16  C   UNL     1      -2.279   5.862 -34.122  1.00  0.00     0.099 A 
HETATM   17  C   UNL     1      -1.921   7.200 -34.081  1.00  0.00     0.040 A 
HETATM   18  C   UNL     1      -1.595   7.783 -32.855  1.00  0.00     0.011 A 
BRANCH  15  19
HETATM   19  O   UNL     1      -2.652   3.772 -33.110  1.00  0.00    -0.353 OA
HETATM   20  C   UNL     1      -3.234   3.220 -31.928  1.00  0.00     0.210 C 
ENDBRANCH  15  19
BRANCH  16  21
HETATM   21  O   UNL     1      -2.600   5.307 -35.327  1.00  0.00    -0.358 OA
HETATM   22  H   UNL     1      -2.398   4.356 -35.230  1.00  0.00     0.218 HD
ENDBRANCH  16  21
ENDBRANCH   8  13
BRANCH   9  23
HETATM   23  C   UNL     1      -3.887   7.756 -29.895  1.00  0.00     0.131 C 
HETATM   24  C   UNL     1      -4.918   8.278 -30.867  1.00  0.00     0.091 C 
HETATM   25  O   UNL     1      -4.124   6.769 -29.202  1.00  0.00    -0.298 OA
ENDBRANCH   9  23
BRANCH  10  26
HETATM   26  O   UNL     1      -1.245   9.982 -28.382  1.00  0.00    -0.389 OA
HETATM   27  H   UNL     1      -1.478  10.773 -27.867  1.00  0.00     0.210 HD
ENDBRANCH  10  26
TORSDOF 5
ENDMDL
MODEL 7
REMARK VINA RESULT:      -6.6      2.324      5.587
REMARK  5 active torsions:
REMARK  status: ('A' for Active; 'I' for Inactive)
REMARK    1  A    between atoms: C_8  and  C_9 
REMARK    2  A    between atoms: C_11  and  O_12 
REMARK    3  A    between atoms: C_14  and  O_15 
REMARK    4  A    between atoms: C_18  and  C_19 
REMARK    5  A    between atoms: C_22  and  O_23 
ROOT
HETATM    1  C   UNL     1      -5.297   4.265 -34.346  1.00  0.00     0.070 C 
HETATM    2  C   UNL     1      -6.685   4.535 -33.907  1.00  0.00     0.033 A 
HETATM    3  N   UNL     1      -7.036   5.741 -33.359  1.00  0.00    -0.282 N 
HETATM    4  H   UNL     1      -6.441   6.540 -33.174  1.00  0.00     0.189 HD
HETATM    5  N   UNL     1      -8.344   5.854 -33.085  1.00  0.00    -0.179 NA
HETATM    6  C   UNL     1      -8.843   4.673 -33.455  1.00  0.00     0.066 A 
HETATM    7  C   UNL     1      -7.845   3.780 -33.923  1.00  0.00     0.001 A 
HETATM    8  C   UNL     1      -8.180   2.409 -34.430  1.00  0.00     0.070 C 
HETATM    9  C   UNL     1      -9.610   1.945 -34.027  1.00  0.00     0.102 C 
HETATM   10  C   UNL     1     -10.662   3.081 -34.180  1.00  0.00     0.071 C 
HETATM   11  C   UNL     1     -12.078   2.622 -33.794  1.00  0.00     0.047 C 
HETATM   12  C   UNL     1     -10.301   4.367 -33.386  1.00  0.00     0.100 C 
ENDROOT
BRANCH   8  13
HETATM   13  C   UNL     1      -7.090   1.415 -34.052  1.00  0.00    -0.046 A 
HETATM   14  C   UNL     1      -6.331   1.509 -32.868  1.00  0.00     0.047 A 
HETATM   15  C   UNL     1      -5.365   0.548 -32.567  1.00  0.00     0.101 A 
HETATM   16  C   UNL     1      -5.208  -0.558 -33.402  1.00  0.00     0.099 A 
HETATM   17  C   UNL     1      -5.953  -0.687 -34.563  1.00  0.00     0.040 A 
HETATM   18  C   UNL     1      -6.883   0.301 -34.891  1.00  0.00     0.011 A 
BRANCH  15  19
HETATM   19  O   UNL     1      -4.567   0.592 -31.452  1.00  0.00    -0.353 OA
HETATM   20  C   UNL     1      -3.598   1.640 -31.512  1.00  0.00     0.210 C 
ENDBRANCH  15  19
BRANCH  16  21
HETATM   21  O   UNL     1      -4.305  -1.534 -33.091  1.00  0.00    -0.358 OA
HETATM   22  H   UNL     1      -4.396  -1.668 -32.128  1.00  0.00     0.218 HD
ENDBRANCH  16  21
ENDBRANCH   8  13
BRANCH   9  23
HETATM   23  C   UNL     1      -9.665   1.328 -32.630  1.00  0.00     0.131 C 
HETATM   24  C   UNL     1      -9.975  -0.147 -32.548  1.00  0.00     0.091 C 
HETATM   25  O   UNL     1      -9.509   1.992 -31.606  1.00  0.00    -0.298 OA
ENDBRANCH   9  23
BRANCH  10  26
HETATM   26  O   UNL     1     -10.721   3.421 -35.584  1.00  0.00    -0.389 OA
HETATM   27  H   UNL     1     -11.651   3.497 -35.856  1.00  0.00     0.210 HD
ENDBRANCH  10  26
TORSDOF 5
ENDMDL
MODEL 8
REMARK VINA RESULT:      -6.5     16.057     17.202
REMARK  5 active torsions:
REMARK  status: ('A' for Active; 'I' for Inactive)
REMARK    1  A    between atoms: C_8  and  C_9 
REMARK    2  A    between atoms: C_11  and  O_12 
REMARK    3  A    between atoms: C_14  and  O_15 
REMARK    4  A    between atoms: C_18  and  C_19 
REMARK    5  A    between atoms: C_22  and  O_23 
ROOT
HETATM    1  C   UNL     1      -5.630 -11.700 -40.152  1.00  0.00     0.070 C 
HETATM    2  C   UNL     1      -4.890 -12.223 -38.981  1.00  0.00     0.033 A 
HETATM    3  N   UNL     1      -3.537 -12.043 -38.855  1.00  0.00    -0.282 N 
HETATM    4  H   UNL     1      -2.905 -11.586 -39.502  1.00  0.00     0.189 HD
HETATM    5  N   UNL     1      -3.031 -12.507 -37.704  1.00  0.00    -0.179 NA
HETATM    6  C   UNL     1      -4.095 -13.016 -37.078  1.00  0.00     0.066 A 
HETATM    7  C   UNL     1      -5.280 -12.923 -37.853  1.00  0.00     0.001 A 
HETATM    8  C   UNL     1      -6.606 -13.394 -37.334  1.00  0.00     0.070 C 
HETATM    9  C   UNL     1      -6.478 -14.320 -36.090  1.00  0.00     0.102 C 
HETATM   10  C   UNL     1      -5.417 -13.800 -35.077  1.00  0.00     0.071 C 
HETATM   11  C   UNL     1      -5.297 -14.706 -33.840  1.00  0.00     0.047 C 
HETATM   12  C   UNL     1      -4.011 -13.596 -35.707  1.00  0.00     0.100 C 
ENDROOT
BRANCH   8  13
HETATM   13  C   UNL     1      -7.438 -13.999 -38.458  1.00  0.00    -0.046 A 
HETATM   14  C   UNL     1      -8.793 -13.683 -38.676  1.00  0.00     0.047 A 
HETATM   15  C   UNL     1      -9.492 -14.252 -39.742  1.00  0.00     0.101 A 
HETATM   16  C   UNL     1      -8.820 -15.074 -40.646  1.00  0.00     0.099 A 
HETATM   17  C   UNL     1      -7.482 -15.388 -40.467  1.00  0.00     0.040 A 
HETATM   18  C   UNL     1      -6.797 -14.860 -39.371  1.00  0.00     0.011 A 
BRANCH  15  19
HETATM   19  O   UNL     1     -10.819 -14.018 -39.997  1.00  0.00    -0.353 OA
HETATM   20  C   UNL     1     -11.086 -12.648 -40.301  1.00  0.00     0.210 C 
ENDBRANCH  15  19
BRANCH  16  21
HETATM   21  O   UNL     1      -9.477 -15.595 -41.724  1.00  0.00    -0.358 OA
HETATM   22  H   UNL     1      -9.264 -14.995 -42.465  1.00  0.00     0.218 HD
ENDBRANCH  16  21
ENDBRANCH   8  13
BRANCH   9  23
HETATM   23  C   UNL     1      -6.219 -15.780 -36.457  1.00  0.00     0.131 C 
HETATM   24  C   UNL     1      -7.345 -16.755 -36.207  1.00  0.00     0.091 C 
HETATM   25  O   UNL     1      -5.139 -16.172 -36.896  1.00  0.00    -0.298 OA
ENDBRANCH   9  23
BRANCH  10  26
HETATM   26  O   UNL     1      -5.882 -12.520 -34.592  1.00  0.00    -0.389 OA
HETATM   27  H   UNL     1      -5.969 -12.558 -33.623  1.00  0.00     0.210 HD
ENDBRANCH  10  26
TORSDOF 5
ENDMDL
MODEL 9
REMARK VINA RESULT:      -6.5      3.165      5.872
REMARK  5 active torsions:
REMARK  status: ('A' for Active; 'I' for Inactive)
REMARK    1  A    between atoms: C_8  and  C_9 
REMARK    2  A    between atoms: C_11  and  O_12 
REMARK    3  A    between atoms: C_14  and  O_15 
REMARK    4  A    between atoms: C_18  and  C_19 
REMARK    5  A    between atoms: C_22  and  O_23 
ROOT
HETATM    1  C   UNL     1      -3.654   0.248 -31.211  1.00  0.00     0.070 C 
HETATM    2  C   UNL     1      -4.871  -0.117 -31.972  1.00  0.00     0.033 A 
HETATM    3  N   UNL     1      -4.934  -1.277 -32.698  1.00  0.00    -0.282 N 
HETATM    4  H   UNL     1      -4.211  -1.976 -32.824  1.00  0.00     0.189 HD
HETATM    5  N   UNL     1      -6.128  -1.498 -33.266  1.00  0.00    -0.179 NA
HETATM    6  C   UNL     1      -6.848  -0.435 -32.903  1.00  0.00     0.066 A 
HETATM    7  C   UNL     1      -6.099   0.498 -32.140  1.00  0.00     0.001 A 
HETATM    8  C   UNL     1      -6.714   1.750 -31.589  1.00  0.00     0.070 C 
HETATM    9  C   UNL     1      -8.078   2.100 -32.252  1.00  0.00     0.102 C 
HETATM   10  C   UNL     1      -8.976   0.844 -32.449  1.00  0.00     0.071 C 
HETATM   11  C   UNL     1     -10.329   1.188 -33.092  1.00  0.00     0.047 C 
HETATM   12  C   UNL     1      -8.288  -0.286 -33.264  1.00  0.00     0.100 C 
ENDROOT
BRANCH   8  13
HETATM   13  C   UNL     1      -5.714   2.898 -31.617  1.00  0.00    -0.046 A 
HETATM   14  C   UNL     1      -4.911   3.200 -32.735  1.00  0.00     0.047 A 
HETATM   15  C   UNL     1      -4.032   4.284 -32.706  1.00  0.00     0.101 A 
HETATM   16  C   UNL     1      -4.011   5.124 -31.593  1.00  0.00     0.099 A 
HETATM   17  C   UNL     1      -4.803   4.862 -30.486  1.00  0.00     0.040 A 
HETATM   18  C   UNL     1      -5.644   3.748 -30.495  1.00  0.00     0.011 A 
BRANCH  15  19
HETATM   19  O   UNL     1      -3.197   4.618 -33.741  1.00  0.00    -0.353 OA
HETATM   20  C   UNL     1      -3.900   5.168 -34.857  1.00  0.00     0.210 C 
ENDBRANCH  15  19
BRANCH  16  21
HETATM   21  O   UNL     1      -3.196   6.220 -31.571  1.00  0.00    -0.358 OA
HETATM   22  H   UNL     1      -3.021   6.424 -32.510  1.00  0.00     0.218 HD
ENDBRANCH  16  21
ENDBRANCH   8  13
BRANCH   9  23
HETATM   23  C   UNL     1      -7.923   2.875 -33.560  1.00  0.00     0.131 C 
HETATM   24  C   UNL     1      -8.417   4.301 -33.568  1.00  0.00     0.091 C 
HETATM   25  O   UNL     1      -7.461   2.367 -34.581  1.00  0.00    -0.298 OA
ENDBRANCH   9  23
BRANCH  10  26
HETATM   26  O   UNL     1      -9.279   0.328 -31.132  1.00  0.00    -0.389 OA
HETATM   27  H   UNL     1      -8.552  -0.247 -30.839  1.00  0.00     0.210 HD
ENDBRANCH  10  26
TORSDOF 5
ENDMDL
MODEL 10
REMARK VINA RESULT:      -6.5     16.044     17.785
REMARK  5 active torsions:
REMARK  status: ('A' for Active; 'I' for Inactive)
REMARK    1  A    between atoms: C_8  and  C_9 
REMARK    2  A    between atoms: C_11  and  O_12 
REMARK    3  A    between atoms: C_14  and  O_15 
REMARK    4  A    between atoms: C_18  and  C_19 
REMARK    5  A    between atoms: C_22  and  O_23 
ROOT
HETATM    1  C   UNL     1      -7.980 -13.468 -37.473  1.00  0.00     0.070 C 
HETATM    2  C   UNL     1      -6.769 -13.657 -38.305  1.00  0.00     0.033 A 
HETATM    3  N   UNL     1      -6.861 -14.038 -39.618  1.00  0.00    -0.282 N 
HETATM    4  H   UNL     1      -7.696 -14.249 -40.151  1.00  0.00     0.189 HD
HETATM    5  N   UNL     1      -5.681 -14.090 -40.252  1.00  0.00    -0.179 NA
HETATM    6  C   UNL     1      -4.803 -13.746 -39.308  1.00  0.00     0.066 A 
HETATM    7  C   UNL     1      -5.416 -13.520 -38.048  1.00  0.00     0.001 A 
HETATM    8  C   UNL     1      -4.629 -13.082 -36.849  1.00  0.00     0.070 C 
HETATM    9  C   UNL     1      -3.096 -13.290 -37.019  1.00  0.00     0.102 C 
HETATM   10  C   UNL     1      -2.600 -12.877 -38.435  1.00  0.00     0.071 C 
HETATM   11  C   UNL     1      -1.084 -13.069 -38.603  1.00  0.00     0.047 C 
HETATM   12  C   UNL     1      -3.344 -13.607 -39.587  1.00  0.00     0.100 C 
ENDROOT
BRANCH   8  13
HETATM   13  C   UNL     1      -5.189 -13.711 -35.580  1.00  0.00    -0.046 A 
HETATM   14  C   UNL     1      -5.604 -15.055 -35.498  1.00  0.00     0.047 A 
HETATM   15  C   UNL     1      -6.083 -15.578 -34.297  1.00  0.00     0.101 A 
HETATM   16  C   UNL     1      -6.073 -14.788 -33.148  1.00  0.00     0.099 A 
HETATM   17  C   UNL     1      -5.653 -13.468 -33.194  1.00  0.00     0.040 A 
HETATM   18  C   UNL     1      -5.223 -12.929 -34.408  1.00  0.00     0.011 A 
BRANCH  15  19
HETATM   19  O   UNL     1      -6.534 -16.865 -34.150  1.00  0.00    -0.353 OA
HETATM   20  C   UNL     1      -7.705 -17.128 -34.926  1.00  0.00     0.210 C 
ENDBRANCH  15  19
BRANCH  16  21
HETATM   21  O   UNL     1      -6.487 -15.302 -31.953  1.00  0.00    -0.358 OA
HETATM   22  H   UNL     1      -6.771 -16.215 -32.154  1.00  0.00     0.218 HD
ENDBRANCH  16  21
ENDBRANCH   8  13
BRANCH   9  23
HETATM   23  C   UNL     1      -2.644 -14.707 -36.670  1.00  0.00     0.131 C 
HETATM   24  C   UNL     1      -1.734 -14.856 -35.475  1.00  0.00     0.091 C 
HETATM   25  O   UNL     1      -2.960 -15.688 -37.342  1.00  0.00    -0.298 OA
ENDBRANCH   9  23
BRANCH  10  26
HETATM   26  O   UNL     1      -2.841 -11.458 -38.574  1.00  0.00    -0.389 OA
HETATM   27  H   UNL     1      -3.357 -11.299 -39.382  1.00  0.00     0.210 HD
ENDBRANCH  10  26
TORSDOF 5
ENDMDL
