MODEL 1
REMARK VINA RESULT:      -8.7      0.000      0.000
REMARK  7 active torsions:
REMARK  status: ('A' for Active; 'I' for Inactive)
REMARK    1  A    between atoms: C_2  and  O_3 
REMARK    2  A    between atoms: O_3  and  C_4 
REMARK    3  A    between atoms: C_4  and  C_5 
REMARK    4  A    between atoms: C_6  and  C_7 
REMARK    5  A    between atoms: C_18  and  S_19 
REMARK    6  A    between atoms: S_19  and  C_20 
REMARK    7  A    between atoms: C_20  and  C_21 
ROOT
HETATM    1  C   UNL     1      -5.761   4.586 -31.076  1.00  0.00     0.070 A 
HETATM    2  C   UNL     1      -4.981   3.744 -32.075  1.00  0.00     0.204 A 
HETATM    3  N   UNL     1      -4.838   2.357 -31.617  1.00  0.00    -0.082 N 
HETATM    4  C   UNL     1      -5.369   1.875 -30.452  1.00  0.00     0.726 A 
HETATM    5  N   UNL     1      -6.064   2.705 -29.653  1.00  0.00    -0.192 N 
HETATM    6  N   UNL     1      -4.233   1.382 -32.321  1.00  0.00    -0.128 NA
HETATM    7  C   UNL     1      -4.356   0.351 -31.476  1.00  0.00     0.226 A 
HETATM    8  N   UNL     1      -5.075   0.605 -30.333  1.00  0.00    -0.035 NA
HETATM    9  C   UNL     1      -6.274   4.052 -29.940  1.00  0.00     0.037 A 
HETATM   10  C   UNL     1      -7.121   4.806 -28.946  1.00  0.00     0.070 C 
HETATM   11  H   UNL     1      -6.432   2.348 -28.776  1.00  0.00     0.184 HD
ENDROOT
BRANCH   7  12
HETATM   12  S   UNL     1      -3.636  -1.188 -31.849  1.00  0.00    -0.083 SA
BRANCH  12  13
HETATM   13  C   UNL     1      -3.848  -1.216 -33.649  1.00  0.00     0.123 C 
BRANCH  13  14
HETATM   14  C   UNL     1      -4.707  -2.382 -34.082  1.00  0.00    -0.027 A 
HETATM   15  C   UNL     1      -6.051  -2.237 -34.462  1.00  0.00     0.041 A 
HETATM   16 CL   UNL     1      -6.839  -0.699 -34.491  1.00  0.00    -0.084 Cl
HETATM   17  C   UNL     1      -6.810  -3.353 -34.832  1.00  0.00     0.024 A 
HETATM   18  C   UNL     1      -6.242  -4.626 -34.819  1.00  0.00     0.002 A 
HETATM   19  C   UNL     1      -4.915  -4.788 -34.435  1.00  0.00     0.001 A 
HETATM   20  C   UNL     1      -4.153  -3.676 -34.068  1.00  0.00     0.009 A 
ENDBRANCH  13  14
ENDBRANCH  12  13
ENDBRANCH   7  12
BRANCH   2  21
HETATM   21  C   UNL     1      -3.627   4.322 -32.483  1.00  0.00    -0.006 A 
HETATM   22  C   UNL     1      -3.345   4.872 -33.745  1.00  0.00     0.042 A 
HETATM   23 CL   UNL     1      -4.508   4.928 -35.021  1.00  0.00    -0.084 Cl
HETATM   24  C   UNL     1      -2.078   5.398 -34.027  1.00  0.00     0.024 A 
HETATM   25  C   UNL     1      -1.074   5.382 -33.062  1.00  0.00     0.002 A 
HETATM   26  C   UNL     1      -1.330   4.835 -31.810  1.00  0.00     0.001 A 
HETATM   27  C   UNL     1      -2.591   4.310 -31.523  1.00  0.00     0.011 A 
ENDBRANCH   2  21
BRANCH   1  28
HETATM   28  C   UNL     1      -5.939   5.990 -31.492  1.00  0.00     0.293 C 
HETATM   29  O   UNL     1      -6.606   6.313 -32.461  1.00  0.00    -0.259 OA
BRANCH  28  30
HETATM   30  O   UNL     1      -5.189   6.810 -30.715  1.00  0.00    -0.318 OA
BRANCH  30  31
HETATM   31  C   UNL     1      -4.756   8.031 -31.332  1.00  0.00     0.174 C 
HETATM   32  C   UNL     1      -3.245   8.052 -31.476  1.00  0.00     0.034 C 
ENDBRANCH  30  31
ENDBRANCH  28  30
ENDBRANCH   1  28
TORSDOF 7
ENDMDL
MODEL 2
REMARK VINA RESULT:      -8.5      3.677      8.769
REMARK  7 active torsions:
REMARK  status: ('A' for Active; 'I' for Inactive)
REMARK    1  A    between atoms: C_2  and  O_3 
REMARK    2  A    between atoms: O_3  and  C_4 
REMARK    3  A    between atoms: C_4  and  C_5 
REMARK    4  A    between atoms: C_6  and  C_7 
REMARK    5  A    between atoms: C_18  and  S_19 
REMARK    6  A    between atoms: S_19  and  C_20 
REMARK    7  A    between atoms: C_20  and  C_21 
ROOT
HETATM    1  C   UNL     1      -4.215  -1.557 -33.163  1.00  0.00     0.070 A 
HETATM    2  C   UNL     1      -4.655  -0.143 -33.519  1.00  0.00     0.204 A 
HETATM    3  N   UNL     1      -4.091   0.846 -32.593  1.00  0.00    -0.082 N 
HETATM    4  C   UNL     1      -3.249   0.538 -31.560  1.00  0.00     0.726 A 
HETATM    5  N   UNL     1      -2.906  -0.747 -31.352  1.00  0.00    -0.192 N 
HETATM    6  N   UNL     1      -4.277   2.176 -32.695  1.00  0.00    -0.128 NA
HETATM    7  C   UNL     1      -3.588   2.606 -31.631  1.00  0.00     0.226 A 
HETATM    8  N   UNL     1      -2.917   1.635 -30.929  1.00  0.00    -0.035 NA
HETATM    9  C   UNL     1      -3.369  -1.802 -32.133  1.00  0.00     0.037 A 
HETATM   10  C   UNL     1      -2.832  -3.165 -31.773  1.00  0.00     0.070 C 
HETATM   11  H   UNL     1      -2.302  -0.972 -30.566  1.00  0.00     0.184 HD
ENDROOT
BRANCH   7  12
HETATM   12  S   UNL     1      -3.575   4.294 -31.210  1.00  0.00    -0.083 SA
BRANCH  12  13
HETATM   13  C   UNL     1      -1.852   4.709 -31.591  1.00  0.00     0.123 C 
BRANCH  13  14
HETATM   14  C   UNL     1      -1.363   5.857 -30.739  1.00  0.00    -0.027 A 
HETATM   15  C   UNL     1      -0.021   6.001 -30.352  1.00  0.00     0.041 A 
HETATM   16 CL   UNL     1       1.203   4.883 -30.841  1.00  0.00    -0.084 Cl
HETATM   17  C   UNL     1       0.375   7.072 -29.543  1.00  0.00     0.024 A 
HETATM   18  C   UNL     1      -0.561   8.005 -29.102  1.00  0.00     0.002 A 
HETATM   19  C   UNL     1      -1.897   7.871 -29.467  1.00  0.00     0.001 A 
HETATM   20  C   UNL     1      -2.296   6.806 -30.278  1.00  0.00     0.009 A 
ENDBRANCH  13  14
ENDBRANCH  12  13
ENDBRANCH   7  12
BRANCH   2  21
HETATM   21  C   UNL     1      -6.165   0.044 -33.657  1.00  0.00    -0.006 A 
HETATM   22  C   UNL     1      -7.072   0.003 -32.583  1.00  0.00     0.042 A 
HETATM   23 CL   UNL     1      -6.582  -0.306 -30.956  1.00  0.00    -0.084 Cl
HETATM   24  C   UNL     1      -8.441   0.204 -32.798  1.00  0.00     0.024 A 
HETATM   25  C   UNL     1      -8.928   0.445 -34.081  1.00  0.00     0.002 A 
HETATM   26  C   UNL     1      -8.049   0.482 -35.157  1.00  0.00     0.001 A 
HETATM   27  C   UNL     1      -6.683   0.283 -34.948  1.00  0.00     0.011 A 
ENDBRANCH   2  21
BRANCH   1  28
HETATM   28  C   UNL     1      -4.751  -2.591 -34.069  1.00  0.00     0.293 C 
HETATM   29  O   UNL     1      -4.185  -2.928 -35.095  1.00  0.00    -0.259 OA
BRANCH  28  30
HETATM   30  O   UNL     1      -5.967  -3.008 -33.640  1.00  0.00    -0.318 OA
BRANCH  30  31
HETATM   31  C   UNL     1      -6.923  -3.305 -34.669  1.00  0.00     0.174 C 
HETATM   32  C   UNL     1      -6.664  -4.678 -35.261  1.00  0.00     0.034 C 
ENDBRANCH  30  31
ENDBRANCH  28  30
ENDBRANCH   1  28
TORSDOF 7
ENDMDL
MODEL 3
REMARK VINA RESULT:      -8.5      2.357      3.916
REMARK  7 active torsions:
REMARK  status: ('A' for Active; 'I' for Inactive)
REMARK    1  A    between atoms: C_2  and  O_3 
REMARK    2  A    between atoms: O_3  and  C_4 
REMARK    3  A    between atoms: C_4  and  C_5 
REMARK    4  A    between atoms: C_6  and  C_7 
REMARK    5  A    between atoms: C_18  and  S_19 
REMARK    6  A    between atoms: S_19  and  C_20 
REMARK    7  A    between atoms: C_20  and  C_21 
ROOT
HETATM    1  C   UNL     1      -6.274   3.731 -30.630  1.00  0.00     0.070 A 
HETATM    2  C   UNL     1      -6.548   2.255 -30.881  1.00  0.00     0.204 A 
HETATM    3  N   UNL     1      -5.308   1.510 -31.128  1.00  0.00    -0.082 N 
HETATM    4  C   UNL     1      -4.059   2.068 -31.103  1.00  0.00     0.726 A 
HETATM    5  N   UNL     1      -3.931   3.383 -30.845  1.00  0.00    -0.192 N 
HETATM    6  N   UNL     1      -5.247   0.181 -31.335  1.00  0.00    -0.128 NA
HETATM    7  C   UNL     1      -3.932   0.017 -31.519  1.00  0.00     0.226 A 
HETATM    8  N   UNL     1      -3.166   1.145 -31.352  1.00  0.00    -0.035 NA
HETATM    9  C   UNL     1      -5.012   4.228 -30.607  1.00  0.00     0.037 A 
HETATM   10  C   UNL     1      -4.663   5.660 -30.288  1.00  0.00     0.070 C 
HETATM   11  H   UNL     1      -3.003   3.797 -30.855  1.00  0.00     0.184 HD
ENDROOT
BRANCH   7  12
HETATM   12  S   UNL     1      -3.286  -1.543 -31.938  1.00  0.00    -0.083 SA
BRANCH  12  13
HETATM   13  C   UNL     1      -3.561  -1.536 -33.730  1.00  0.00     0.123 C 
BRANCH  13  14
HETATM   14  C   UNL     1      -4.529  -2.623 -34.140  1.00  0.00    -0.027 A 
HETATM   15  C   UNL     1      -5.849  -2.357 -34.537  1.00  0.00     0.041 A 
HETATM   16 CL   UNL     1      -6.481  -0.750 -34.614  1.00  0.00    -0.084 Cl
HETATM   17  C   UNL     1      -6.711  -3.403 -34.885  1.00  0.00     0.024 A 
HETATM   18  C   UNL     1      -6.272  -4.725 -34.833  1.00  0.00     0.002 A 
HETATM   19  C   UNL     1      -4.970  -5.006 -34.432  1.00  0.00     0.001 A 
HETATM   20  C   UNL     1      -4.105  -3.965 -34.087  1.00  0.00     0.009 A 
ENDBRANCH  13  14
ENDBRANCH  12  13
ENDBRANCH   7  12
BRANCH   2  21
HETATM   21  C   UNL     1      -7.577   1.970 -31.974  1.00  0.00    -0.006 A 
HETATM   22  C   UNL     1      -7.446   2.376 -33.314  1.00  0.00     0.042 A 
HETATM   23 CL   UNL     1      -6.100   3.293 -33.885  1.00  0.00    -0.084 Cl
HETATM   24  C   UNL     1      -8.431   2.054 -34.255  1.00  0.00     0.024 A 
HETATM   25  C   UNL     1      -9.560   1.328 -33.880  1.00  0.00     0.002 A 
HETATM   26  C   UNL     1      -9.712   0.924 -32.558  1.00  0.00     0.001 A 
HETATM   27  C   UNL     1      -8.733   1.242 -31.615  1.00  0.00     0.011 A 
ENDBRANCH   2  21
BRANCH   1  28
HETATM   28  C   UNL     1      -7.489   4.526 -30.370  1.00  0.00     0.293 C 
HETATM   29  O   UNL     1      -8.128   4.438 -29.335  1.00  0.00    -0.259 OA
BRANCH  28  30
HETATM   30  O   UNL     1      -7.816   5.258 -31.464  1.00  0.00    -0.318 OA
BRANCH  30  31
HETATM   31  C   UNL     1      -9.161   5.756 -31.503  1.00  0.00     0.174 C 
HETATM   32  C   UNL     1     -10.032   4.880 -32.384  1.00  0.00     0.034 C 
ENDBRANCH  30  31
ENDBRANCH  28  30
ENDBRANCH   1  28
TORSDOF 7
ENDMDL
MODEL 4
REMARK VINA RESULT:      -8.5      1.735      2.297
REMARK  7 active torsions:
REMARK  status: ('A' for Active; 'I' for Inactive)
REMARK    1  A    between atoms: C_2  and  O_3 
REMARK    2  A    between atoms: O_3  and  C_4 
REMARK    3  A    between atoms: C_4  and  C_5 
REMARK    4  A    between atoms: C_6  and  C_7 
REMARK    5  A    between atoms: C_18  and  S_19 
REMARK    6  A    between atoms: S_19  and  C_20 
REMARK    7  A    between atoms: C_20  and  C_21 
ROOT
HETATM    1  C   UNL     1      -5.169   5.639 -30.669  1.00  0.00     0.070 A 
HETATM    2  C   UNL     1      -5.376   4.764 -31.897  1.00  0.00     0.204 A 
HETATM    3  N   UNL     1      -5.666   3.374 -31.526  1.00  0.00    -0.082 N 
HETATM    4  C   UNL     1      -5.771   2.929 -30.237  1.00  0.00     0.726 A 
HETATM    5  N   UNL     1      -5.592   3.799 -29.225  1.00  0.00    -0.192 N 
HETATM    6  N   UNL     1      -5.936   2.392 -32.407  1.00  0.00    -0.128 NA
HETATM    7  C   UNL     1      -6.105   1.354 -31.580  1.00  0.00     0.226 A 
HETATM    8  N   UNL     1      -6.044   1.649 -30.240  1.00  0.00    -0.035 NA
HETATM    9  C   UNL     1      -5.295   5.146 -29.413  1.00  0.00     0.037 A 
HETATM   10  C   UNL     1      -5.182   5.970 -28.154  1.00  0.00     0.070 C 
HETATM   11  H   UNL     1      -5.644   3.456 -28.269  1.00  0.00     0.184 HD
ENDROOT
BRANCH   7  12
HETATM   12  S   UNL     1      -6.384  -0.243 -32.211  1.00  0.00    -0.083 SA
BRANCH  12  13
HETATM   13  C   UNL     1      -4.924  -0.431 -33.270  1.00  0.00     0.123 C 
BRANCH  13  14
HETATM   14  C   UNL     1      -4.317  -1.808 -33.127  1.00  0.00    -0.027 A 
HETATM   15  C   UNL     1      -4.586  -2.856 -34.022  1.00  0.00     0.041 A 
HETATM   16 CL   UNL     1      -5.624  -2.655 -35.389  1.00  0.00    -0.084 Cl
HETATM   17  C   UNL     1      -4.015  -4.119 -33.831  1.00  0.00     0.024 A 
HETATM   18  C   UNL     1      -3.178  -4.356 -32.742  1.00  0.00     0.002 A 
HETATM   19  C   UNL     1      -2.910  -3.332 -31.840  1.00  0.00     0.001 A 
HETATM   20  C   UNL     1      -3.474  -2.068 -32.029  1.00  0.00     0.009 A 
ENDBRANCH  13  14
ENDBRANCH  12  13
ENDBRANCH   7  12
BRANCH   2  21
HETATM   21  C   UNL     1      -4.248   4.825 -32.926  1.00  0.00    -0.006 A 
HETATM   22  C   UNL     1      -2.917   4.453 -32.669  1.00  0.00     0.042 A 
HETATM   23 CL   UNL     1      -2.381   3.909 -31.121  1.00  0.00    -0.084 Cl
HETATM   24  C   UNL     1      -1.950   4.523 -33.679  1.00  0.00     0.024 A 
HETATM   25  C   UNL     1      -2.289   4.965 -34.956  1.00  0.00     0.002 A 
HETATM   26  C   UNL     1      -3.599   5.345 -35.229  1.00  0.00     0.001 A 
HETATM   27  C   UNL     1      -4.568   5.277 -34.226  1.00  0.00     0.011 A 
ENDBRANCH   2  21
BRANCH   1  28
HETATM   28  C   UNL     1      -4.879   7.051 -30.986  1.00  0.00     0.293 C 
HETATM   29  O   UNL     1      -5.713   7.807 -31.457  1.00  0.00    -0.259 OA
BRANCH  28  30
HETATM   30  O   UNL     1      -3.568   7.321 -30.775  1.00  0.00    -0.318 OA
BRANCH  30  31
HETATM   31  C   UNL     1      -3.029   8.422 -31.521  1.00  0.00     0.174 C 
HETATM   32  C   UNL     1      -1.858   7.970 -32.374  1.00  0.00     0.034 C 
ENDBRANCH  30  31
ENDBRANCH  28  30
ENDBRANCH   1  28
TORSDOF 7
ENDMDL
MODEL 5
REMARK VINA RESULT:      -8.3      2.384      4.019
REMARK  7 active torsions:
REMARK  status: ('A' for Active; 'I' for Inactive)
REMARK    1  A    between atoms: C_2  and  O_3 
REMARK    2  A    between atoms: O_3  and  C_4 
REMARK    3  A    between atoms: C_4  and  C_5 
REMARK    4  A    between atoms: C_6  and  C_7 
REMARK    5  A    between atoms: C_18  and  S_19 
REMARK    6  A    between atoms: S_19  and  C_20 
REMARK    7  A    between atoms: C_20  and  C_21 
ROOT
HETATM    1  C   UNL     1      -6.123   3.776 -30.816  1.00  0.00     0.070 A 
HETATM    2  C   UNL     1      -6.413   2.290 -30.967  1.00  0.00     0.204 A 
HETATM    3  N   UNL     1      -5.183   1.519 -31.183  1.00  0.00    -0.082 N 
HETATM    4  C   UNL     1      -3.930   2.065 -31.212  1.00  0.00     0.726 A 
HETATM    5  N   UNL     1      -3.787   3.393 -31.042  1.00  0.00    -0.192 N 
HETATM    6  N   UNL     1      -5.137   0.179 -31.305  1.00  0.00    -0.128 NA
HETATM    7  C   UNL     1      -3.826  -0.009 -31.497  1.00  0.00     0.226 A 
HETATM    8  N   UNL     1      -3.048   1.120 -31.414  1.00  0.00    -0.035 NA
HETATM    9  C   UNL     1      -4.857   4.262 -30.842  1.00  0.00     0.037 A 
HETATM   10  C   UNL     1      -4.490   5.708 -30.622  1.00  0.00     0.070 C 
HETATM   11  H   UNL     1      -2.856   3.796 -31.091  1.00  0.00     0.184 HD
ENDROOT
BRANCH   7  12
HETATM   12  S   UNL     1      -3.200  -1.599 -31.824  1.00  0.00    -0.083 SA
BRANCH  12  13
HETATM   13  C   UNL     1      -3.396  -1.659 -33.626  1.00  0.00     0.123 C 
BRANCH  13  14
HETATM   14  C   UNL     1      -4.631  -2.437 -34.018  1.00  0.00    -0.027 A 
HETATM   15  C   UNL     1      -4.626  -3.827 -34.213  1.00  0.00     0.041 A 
HETATM   16 CL   UNL     1      -3.202  -4.782 -33.998  1.00  0.00    -0.084 Cl
HETATM   17  C   UNL     1      -5.793  -4.496 -34.598  1.00  0.00     0.024 A 
HETATM   18  C   UNL     1      -6.976  -3.787 -34.803  1.00  0.00     0.002 A 
HETATM   19  C   UNL     1      -6.995  -2.408 -34.624  1.00  0.00     0.001 A 
HETATM   20  C   UNL     1      -5.833  -1.737 -34.235  1.00  0.00     0.009 A 
ENDBRANCH  13  14
ENDBRANCH  12  13
ENDBRANCH   7  12
BRANCH   2  21
HETATM   21  C   UNL     1      -7.461   1.945 -32.024  1.00  0.00    -0.006 A 
HETATM   22  C   UNL     1      -7.358   2.282 -33.385  1.00  0.00     0.042 A 
HETATM   23 CL   UNL     1      -6.027   3.175 -34.028  1.00  0.00    -0.084 Cl
HETATM   24  C   UNL     1      -8.358   1.909 -34.290  1.00  0.00     0.024 A 
HETATM   25  C   UNL     1      -9.476   1.198 -33.857  1.00  0.00     0.002 A 
HETATM   26  C   UNL     1      -9.601   0.862 -32.514  1.00  0.00     0.001 A 
HETATM   27  C   UNL     1      -8.606   1.231 -31.607  1.00  0.00     0.011 A 
ENDBRANCH   2  21
BRANCH   1  28
HETATM   28  C   UNL     1      -7.327   4.598 -30.590  1.00  0.00     0.293 C 
HETATM   29  O   UNL     1      -7.780   5.353 -31.435  1.00  0.00    -0.259 OA
BRANCH  28  30
HETATM   30  O   UNL     1      -7.761   4.457 -29.314  1.00  0.00    -0.318 OA
BRANCH  30  31
HETATM   31  C   UNL     1      -7.317   5.460 -28.389  1.00  0.00     0.174 C 
HETATM   32  C   UNL     1      -8.407   6.489 -28.150  1.00  0.00     0.034 C 
ENDBRANCH  30  31
ENDBRANCH  28  30
ENDBRANCH   1  28
TORSDOF 7
ENDMDL
MODEL 6
REMARK VINA RESULT:      -8.1      3.575      7.791
REMARK  7 active torsions:
REMARK  status: ('A' for Active; 'I' for Inactive)
REMARK    1  A    between atoms: C_2  and  O_3 
REMARK    2  A    between atoms: O_3  and  C_4 
REMARK    3  A    between atoms: C_4  and  C_5 
REMARK    4  A    between atoms: C_6  and  C_7 
REMARK    5  A    between atoms: C_18  and  S_19 
REMARK    6  A    between atoms: S_19  and  C_20 
REMARK    7  A    between atoms: C_20  and  C_21 
ROOT
HETATM    1  C   UNL     1      -8.286   3.622 -32.908  1.00  0.00     0.070 A 
HETATM    2  C   UNL     1      -6.935   2.967 -32.661  1.00  0.00     0.204 A 
HETATM    3  N   UNL     1      -5.830   3.816 -33.122  1.00  0.00    -0.082 N 
HETATM    4  C   UNL     1      -5.995   5.057 -33.674  1.00  0.00     0.726 A 
HETATM    5  N   UNL     1      -7.239   5.550 -33.823  1.00  0.00    -0.192 N 
HETATM    6  N   UNL     1      -4.526   3.508 -32.989  1.00  0.00    -0.128 NA
HETATM    7  C   UNL     1      -3.958   4.573 -33.568  1.00  0.00     0.226 A 
HETATM    8  N   UNL     1      -4.825   5.560 -33.971  1.00  0.00    -0.035 NA
HETATM    9  C   UNL     1      -8.390   4.860 -33.450  1.00  0.00     0.037 A 
HETATM   10  C   UNL     1      -9.688   5.601 -33.651  1.00  0.00     0.070 C 
HETATM   11  H   UNL     1      -7.357   6.461 -34.259  1.00  0.00     0.184 HD
ENDROOT
BRANCH   7  12
HETATM   12  S   UNL     1      -2.233   4.653 -33.770  1.00  0.00    -0.083 SA
BRANCH  12  13
HETATM   13  C   UNL     1      -1.923   6.357 -33.232  1.00  0.00     0.123 C 
BRANCH  13  14
HETATM   14  C   UNL     1      -1.150   6.390 -31.934  1.00  0.00    -0.027 A 
HETATM   15  C   UNL     1      -1.205   7.473 -31.042  1.00  0.00     0.041 A 
HETATM   16 CL   UNL     1      -2.189   8.862 -31.342  1.00  0.00    -0.084 Cl
HETATM   17  C   UNL     1      -0.451   7.464 -29.864  1.00  0.00     0.024 A 
HETATM   18  C   UNL     1       0.374   6.381 -29.564  1.00  0.00     0.002 A 
HETATM   19  C   UNL     1       0.449   5.305 -30.443  1.00  0.00     0.001 A 
HETATM   20  C   UNL     1      -0.305   5.308 -31.618  1.00  0.00     0.009 A 
ENDBRANCH  13  14
ENDBRANCH  12  13
ENDBRANCH   7  12
BRANCH   2  21
HETATM   21  C   UNL     1      -6.796   1.551 -33.218  1.00  0.00    -0.006 A 
HETATM   22  C   UNL     1      -6.525   0.413 -32.438  1.00  0.00     0.042 A 
HETATM   23 CL   UNL     1      -6.275   0.488 -30.731  1.00  0.00    -0.084 Cl
HETATM   24  C   UNL     1      -6.434  -0.853 -33.030  1.00  0.00     0.024 A 
HETATM   25  C   UNL     1      -6.607  -1.006 -34.404  1.00  0.00     0.002 A 
HETATM   26  C   UNL     1      -6.868   0.108 -35.195  1.00  0.00     0.001 A 
HETATM   27  C   UNL     1      -6.961   1.372 -34.609  1.00  0.00     0.011 A 
ENDBRANCH   2  21
BRANCH   1  28
HETATM   28  C   UNL     1      -9.432   2.810 -32.457  1.00  0.00     0.293 C 
HETATM   29  O   UNL     1      -9.706   2.649 -31.279  1.00  0.00    -0.259 OA
BRANCH  28  30
HETATM   30  O   UNL     1     -10.036   2.218 -33.516  1.00  0.00    -0.318 OA
BRANCH  30  31
HETATM   31  C   UNL     1     -10.913   1.125 -33.205  1.00  0.00     0.174 C 
HETATM   32  C   UNL     1     -10.118  -0.136 -32.922  1.00  0.00     0.034 C 
ENDBRANCH  30  31
ENDBRANCH  28  30
ENDBRANCH   1  28
TORSDOF 7
ENDMDL
MODEL 7
REMARK VINA RESULT:      -8.1      3.125      7.371
REMARK  7 active torsions:
REMARK  status: ('A' for Active; 'I' for Inactive)
REMARK    1  A    between atoms: C_2  and  O_3 
REMARK    2  A    between atoms: O_3  and  C_4 
REMARK    3  A    between atoms: C_4  and  C_5 
REMARK    4  A    between atoms: C_6  and  C_7 
REMARK    5  A    between atoms: C_18  and  S_19 
REMARK    6  A    between atoms: S_19  and  C_20 
REMARK    7  A    between atoms: C_20  and  C_21 
ROOT
HETATM    1  C   UNL     1      -7.318   3.743 -32.139  1.00  0.00     0.070 A 
HETATM    2  C   UNL     1      -5.847   3.394 -31.972  1.00  0.00     0.204 A 
HETATM    3  N   UNL     1      -5.000   4.171 -32.885  1.00  0.00    -0.082 N 
HETATM    4  C   UNL     1      -5.474   5.116 -33.754  1.00  0.00     0.726 A 
HETATM    5  N   UNL     1      -6.797   5.362 -33.801  1.00  0.00    -0.192 N 
HETATM    6  N   UNL     1      -3.656   4.100 -32.923  1.00  0.00    -0.128 NA
HETATM    7  C   UNL     1      -3.388   4.966 -33.907  1.00  0.00     0.226 A 
HETATM    8  N   UNL     1      -4.474   5.634 -34.420  1.00  0.00    -0.035 NA
HETATM    9  C   UNL     1      -7.730   4.697 -33.011  1.00  0.00     0.037 A 
HETATM   10  C   UNL     1      -9.160   5.148 -33.172  1.00  0.00     0.070 C 
HETATM   11  H   UNL     1      -7.145   6.045 -34.468  1.00  0.00     0.184 HD
ENDROOT
BRANCH   7  12
HETATM   12  S   UNL     1      -1.755   5.197 -34.461  1.00  0.00    -0.083 SA
BRANCH  12  13
HETATM   13  C   UNL     1      -1.366   6.781 -33.670  1.00  0.00     0.123 C 
BRANCH  13  14
HETATM   14  C   UNL     1      -0.926   6.586 -32.238  1.00  0.00    -0.027 A 
HETATM   15  C   UNL     1      -1.178   7.528 -31.228  1.00  0.00     0.041 A 
HETATM   16 CL   UNL     1      -2.041   8.994 -31.532  1.00  0.00    -0.084 Cl
HETATM   17  C   UNL     1      -0.729   7.308 -29.921  1.00  0.00     0.024 A 
HETATM   18  C   UNL     1      -0.015   6.153 -29.607  1.00  0.00     0.002 A 
HETATM   19  C   UNL     1       0.253   5.214 -30.598  1.00  0.00     0.001 A 
HETATM   20  C   UNL     1      -0.198   5.428 -31.903  1.00  0.00     0.009 A 
ENDBRANCH  13  14
ENDBRANCH  12  13
ENDBRANCH   7  12
BRANCH   2  21
HETATM   21  C   UNL     1      -5.525   1.904 -32.073  1.00  0.00    -0.006 A 
HETATM   22  C   UNL     1      -5.809   1.104 -33.193  1.00  0.00     0.042 A 
HETATM   23 CL   UNL     1      -6.604   1.714 -34.600  1.00  0.00    -0.084 Cl
HETATM   24  C   UNL     1      -5.461  -0.252 -33.207  1.00  0.00     0.024 A 
HETATM   25  C   UNL     1      -4.830  -0.833 -32.110  1.00  0.00     0.002 A 
HETATM   26  C   UNL     1      -4.546  -0.061 -30.989  1.00  0.00     0.001 A 
HETATM   27  C   UNL     1      -4.890   1.292 -30.969  1.00  0.00     0.011 A 
ENDBRANCH   2  21
BRANCH   1  28
HETATM   28  C   UNL     1      -8.214   2.993 -31.239  1.00  0.00     0.293 C 
HETATM   29  O   UNL     1      -8.119   3.038 -30.023  1.00  0.00    -0.259 OA
BRANCH  28  30
HETATM   30  O   UNL     1      -9.050   2.204 -31.957  1.00  0.00    -0.318 OA
BRANCH  30  31
HETATM   31  C   UNL     1      -8.986   0.800 -31.668  1.00  0.00     0.174 C 
HETATM   32  C   UNL     1      -9.442  -0.016 -32.864  1.00  0.00     0.034 C 
ENDBRANCH  30  31
ENDBRANCH  28  30
ENDBRANCH   1  28
TORSDOF 7
ENDMDL
MODEL 8
REMARK VINA RESULT:      -7.9      3.543      7.814
REMARK  7 active torsions:
REMARK  status: ('A' for Active; 'I' for Inactive)
REMARK    1  A    between atoms: C_2  and  O_3 
REMARK    2  A    between atoms: O_3  and  C_4 
REMARK    3  A    between atoms: C_4  and  C_5 
REMARK    4  A    between atoms: C_6  and  C_7 
REMARK    5  A    between atoms: C_18  and  S_19 
REMARK    6  A    between atoms: S_19  and  C_20 
REMARK    7  A    between atoms: C_20  and  C_21 
ROOT
HETATM    1  C   UNL     1      -4.195  -1.596 -33.174  1.00  0.00     0.070 A 
HETATM    2  C   UNL     1      -4.632  -0.183 -33.531  1.00  0.00     0.204 A 
HETATM    3  N   UNL     1      -4.080   0.806 -32.597  1.00  0.00    -0.082 N 
HETATM    4  C   UNL     1      -3.248   0.497 -31.556  1.00  0.00     0.726 A 
HETATM    5  N   UNL     1      -2.905  -0.788 -31.347  1.00  0.00    -0.192 N 
HETATM    6  N   UNL     1      -4.267   2.135 -32.699  1.00  0.00    -0.128 NA
HETATM    7  C   UNL     1      -3.590   2.565 -31.627  1.00  0.00     0.226 A 
HETATM    8  N   UNL     1      -2.925   1.593 -30.919  1.00  0.00    -0.035 NA
HETATM    9  C   UNL     1      -3.359  -1.842 -32.135  1.00  0.00     0.037 A 
HETATM   10  C   UNL     1      -2.823  -3.205 -31.772  1.00  0.00     0.070 C 
HETATM   11  H   UNL     1      -2.309  -1.013 -30.556  1.00  0.00     0.184 HD
ENDROOT
BRANCH   7  12
HETATM   12  S   UNL     1      -3.584   4.252 -31.203  1.00  0.00    -0.083 SA
BRANCH  12  13
HETATM   13  C   UNL     1      -5.181   4.377 -30.353  1.00  0.00     0.123 C 
BRANCH  13  14
HETATM   14  C   UNL     1      -6.304   4.636 -31.331  1.00  0.00    -0.027 A 
HETATM   15  C   UNL     1      -6.534   5.893 -31.913  1.00  0.00     0.041 A 
HETATM   16 CL   UNL     1      -5.530   7.259 -31.577  1.00  0.00    -0.084 Cl
HETATM   17  C   UNL     1      -7.603   6.084 -32.795  1.00  0.00     0.024 A 
HETATM   18  C   UNL     1      -8.460   5.029 -33.101  1.00  0.00     0.002 A 
HETATM   19  C   UNL     1      -8.253   3.779 -32.525  1.00  0.00     0.001 A 
HETATM   20  C   UNL     1      -7.185   3.583 -31.647  1.00  0.00     0.009 A 
ENDBRANCH  13  14
ENDBRANCH  12  13
ENDBRANCH   7  12
BRANCH   2  21
HETATM   21  C   UNL     1      -6.142   0.002 -33.684  1.00  0.00    -0.006 A 
HETATM   22  C   UNL     1      -7.060  -0.042 -32.620  1.00  0.00     0.042 A 
HETATM   23 CL   UNL     1      -6.586  -0.354 -30.989  1.00  0.00    -0.084 Cl
HETATM   24  C   UNL     1      -8.426   0.157 -32.849  1.00  0.00     0.024 A 
HETATM   25  C   UNL     1      -8.901   0.400 -34.137  1.00  0.00     0.002 A 
HETATM   26  C   UNL     1      -8.010   0.441 -35.203  1.00  0.00     0.001 A 
HETATM   27  C   UNL     1      -6.646   0.243 -34.981  1.00  0.00     0.011 A 
ENDBRANCH   2  21
BRANCH   1  28
HETATM   28  C   UNL     1      -4.719  -2.630 -34.086  1.00  0.00     0.293 C 
HETATM   29  O   UNL     1      -4.169  -2.927 -35.134  1.00  0.00    -0.259 OA
BRANCH  28  30
HETATM   30  O   UNL     1      -5.909  -3.096 -33.636  1.00  0.00    -0.318 OA
BRANCH  30  31
HETATM   31  C   UNL     1      -6.911  -3.322 -34.638  1.00  0.00     0.174 C 
HETATM   32  C   UNL     1      -6.707  -4.669 -35.306  1.00  0.00     0.034 C 
ENDBRANCH  30  31
ENDBRANCH  28  30
ENDBRANCH   1  28
TORSDOF 7
ENDMDL
MODEL 9
REMARK VINA RESULT:      -7.8      1.900      3.577
REMARK  7 active torsions:
REMARK  status: ('A' for Active; 'I' for Inactive)
REMARK    1  A    between atoms: C_2  and  O_3 
REMARK    2  A    between atoms: O_3  and  C_4 
REMARK    3  A    between atoms: C_4  and  C_5 
REMARK    4  A    between atoms: C_6  and  C_7 
REMARK    5  A    between atoms: C_18  and  S_19 
REMARK    6  A    between atoms: S_19  and  C_20 
REMARK    7  A    between atoms: C_20  and  C_21 
ROOT
HETATM    1  C   UNL     1      -5.171   4.738 -30.476  1.00  0.00     0.070 A 
HETATM    2  C   UNL     1      -5.785   3.346 -30.465  1.00  0.00     0.204 A 
HETATM    3  N   UNL     1      -4.832   2.331 -30.929  1.00  0.00    -0.082 N 
HETATM    4  C   UNL     1      -3.542   2.600 -31.294  1.00  0.00     0.726 A 
HETATM    5  N   UNL     1      -3.094   3.869 -31.241  1.00  0.00    -0.192 N 
HETATM    6  N   UNL     1      -5.091   1.011 -30.979  1.00  0.00    -0.128 NA
HETATM    7  C   UNL     1      -3.937   0.549 -31.473  1.00  0.00     0.226 A 
HETATM    8  N   UNL     1      -2.950   1.489 -31.649  1.00  0.00    -0.035 NA
HETATM    9  C   UNL     1      -3.881   4.945 -30.839  1.00  0.00     0.037 A 
HETATM   10  C   UNL     1      -3.185   6.283 -30.799  1.00  0.00     0.070 C 
HETATM   11  H   UNL     1      -2.143   4.066 -31.540  1.00  0.00     0.184 HD
ENDROOT
BRANCH   7  12
HETATM   12  S   UNL     1      -3.749  -1.139 -31.849  1.00  0.00    -0.083 SA
BRANCH  12  13
HETATM   13  C   UNL     1      -4.115  -1.118 -33.625  1.00  0.00     0.123 C 
BRANCH  13  14
HETATM   14  C   UNL     1      -4.763  -2.410 -34.066  1.00  0.00    -0.027 A 
HETATM   15  C   UNL     1      -6.058  -2.469 -34.604  1.00  0.00     0.041 A 
HETATM   16 CL   UNL     1      -7.025  -1.054 -34.831  1.00  0.00    -0.084 Cl
HETATM   17  C   UNL     1      -6.620  -3.696 -34.976  1.00  0.00     0.024 A 
HETATM   18  C   UNL     1      -5.901  -4.878 -34.809  1.00  0.00     0.002 A 
HETATM   19  C   UNL     1      -4.621  -4.839 -34.267  1.00  0.00     0.001 A 
HETATM   20  C   UNL     1      -4.055  -3.616 -33.898  1.00  0.00     0.009 A 
ENDBRANCH  13  14
ENDBRANCH  12  13
ENDBRANCH   7  12
BRANCH   2  21
HETATM   21  C   UNL     1      -7.112   3.224 -31.213  1.00  0.00    -0.006 A 
HETATM   22  C   UNL     1      -7.255   3.363 -32.604  1.00  0.00     0.042 A 
HETATM   23 CL   UNL     1      -5.930   3.733 -33.648  1.00  0.00    -0.084 Cl
HETATM   24  C   UNL     1      -8.509   3.216 -33.210  1.00  0.00     0.024 A 
HETATM   25  C   UNL     1      -9.638   2.932 -32.443  1.00  0.00     0.002 A 
HETATM   26  C   UNL     1      -9.518   2.798 -31.065  1.00  0.00     0.001 A 
HETATM   27  C   UNL     1      -8.271   2.943 -30.456  1.00  0.00     0.011 A 
ENDBRANCH   2  21
BRANCH   1  28
HETATM   28  C   UNL     1      -6.087   5.797 -30.013  1.00  0.00     0.293 C 
HETATM   29  O   UNL     1      -6.384   5.948 -28.839  1.00  0.00    -0.259 OA
BRANCH  28  30
HETATM   30  O   UNL     1      -6.598   6.474 -31.070  1.00  0.00    -0.318 OA
BRANCH  30  31
HETATM   31  C   UNL     1      -7.824   7.179 -30.827  1.00  0.00     0.174 C 
HETATM   32  C   UNL     1      -8.949   6.605 -31.668  1.00  0.00     0.034 C 
ENDBRANCH  30  31
ENDBRANCH  28  30
ENDBRANCH   1  28
TORSDOF 7
ENDMDL
MODEL 10
REMARK VINA RESULT:      -7.6      4.765      6.362
REMARK  7 active torsions:
REMARK  status: ('A' for Active; 'I' for Inactive)
REMARK    1  A    between atoms: C_2  and  O_3 
REMARK    2  A    between atoms: O_3  and  C_4 
REMARK    3  A    between atoms: C_4  and  C_5 
REMARK    4  A    between atoms: C_6  and  C_7 
REMARK    5  A    between atoms: C_18  and  S_19 
REMARK    6  A    between atoms: S_19  and  C_20 
REMARK    7  A    between atoms: C_20  and  C_21 
ROOT
HETATM    1  C   UNL     1      -4.925   4.497 -32.743  1.00  0.00     0.070 A 
HETATM    2  C   UNL     1      -5.856   3.461 -33.358  1.00  0.00     0.204 A 
HETATM    3  N   UNL     1      -7.175   4.031 -33.659  1.00  0.00    -0.082 N 
HETATM    4  C   UNL     1      -7.513   5.339 -33.445  1.00  0.00     0.726 A 
HETATM    5  N   UNL     1      -6.600   6.176 -32.917  1.00  0.00    -0.192 N 
HETATM    6  N   UNL     1      -8.179   3.354 -34.248  1.00  0.00    -0.128 NA
HETATM    7  C   UNL     1      -9.131   4.295 -34.275  1.00  0.00     0.226 A 
HETATM    8  N   UNL     1      -8.750   5.535 -33.822  1.00  0.00    -0.035 NA
HETATM    9  C   UNL     1      -5.312   5.784 -32.563  1.00  0.00     0.037 A 
HETATM   10  C   UNL     1      -4.419   6.879 -32.034  1.00  0.00     0.070 C 
HETATM   11  H   UNL     1      -6.866   7.140 -32.735  1.00  0.00     0.184 HD
ENDROOT
BRANCH   7  12
HETATM   12  S   UNL     1     -10.726   3.921 -34.859  1.00  0.00    -0.083 SA
BRANCH  12  13
HETATM   13  C   UNL     1     -11.539   3.462 -33.305  1.00  0.00     0.123 C 
BRANCH  13  14
HETATM   14  C   UNL     1     -12.374   2.213 -33.472  1.00  0.00    -0.027 A 
HETATM   15  C   UNL     1     -11.827   0.920 -33.434  1.00  0.00     0.041 A 
HETATM   16 CL   UNL     1     -10.143   0.641 -33.167  1.00  0.00    -0.084 Cl
HETATM   17  C   UNL     1     -12.642  -0.203 -33.616  1.00  0.00     0.024 A 
HETATM   18  C   UNL     1     -14.008  -0.051 -33.849  1.00  0.00     0.002 A 
HETATM   19  C   UNL     1     -14.564   1.223 -33.901  1.00  0.00     0.001 A 
HETATM   20  C   UNL     1     -13.755   2.346 -33.715  1.00  0.00     0.009 A 
ENDBRANCH  13  14
ENDBRANCH  12  13
ENDBRANCH   7  12
BRANCH   2  21
HETATM   21  C   UNL     1      -5.995   2.168 -32.556  1.00  0.00    -0.006 A 
HETATM   22  C   UNL     1      -6.506   2.096 -31.248  1.00  0.00     0.042 A 
HETATM   23 CL   UNL     1      -7.010   3.490 -30.363  1.00  0.00    -0.084 Cl
HETATM   24  C   UNL     1      -6.616   0.863 -30.593  1.00  0.00     0.024 A 
HETATM   25  C   UNL     1      -6.220  -0.313 -31.226  1.00  0.00     0.002 A 
HETATM   26  C   UNL     1      -5.706  -0.262 -32.516  1.00  0.00     0.001 A 
HETATM   27  C   UNL     1      -5.593   0.964 -33.174  1.00  0.00     0.011 A 
ENDBRANCH   2  21
BRANCH   1  28
HETATM   28  C   UNL     1      -3.582   3.977 -32.426  1.00  0.00     0.293 C 
HETATM   29  O   UNL     1      -3.251   3.642 -31.301  1.00  0.00    -0.259 OA
BRANCH  28  30
HETATM   30  O   UNL     1      -2.786   4.030 -33.522  1.00  0.00    -0.318 OA
BRANCH  30  31
HETATM   31  C   UNL     1      -1.678   4.939 -33.445  1.00  0.00     0.174 C 
HETATM   32  C   UNL     1      -1.294   5.433 -34.828  1.00  0.00     0.034 C 
ENDBRANCH  30  31
ENDBRANCH  28  30
ENDBRANCH   1  28
TORSDOF 7
ENDMDL
