MODEL 1
REMARK VINA RESULT:      -9.9      0.000      0.000
REMARK  3 active torsions:
REMARK  status: ('A' for Active; 'I' for Inactive)
REMARK    1  A    between atoms: C_8  and  C_9 
REMARK       I    between atoms: C_9  and  N_10 
REMARK    2  A    between atoms: N_10  and  N_11 
REMARK    3  A    between atoms: N_11  and  C_12 
ROOT
HETATM    1  C   UNL     1      -4.461   1.428 -32.535  1.00  0.00     0.276 C 
HETATM    2  N   UNL     1      -3.390   2.286 -32.454  1.00  0.00    -0.264 N 
HETATM    3  O   UNL     1      -5.622   1.844 -32.555  1.00  0.00    -0.266 OA
HETATM    4  H   UNL     1      -2.408   1.997 -32.399  1.00  0.00     0.190 HD
ENDROOT
BRANCH   2   5
HETATM    5  N   UNL     1      -3.663   3.657 -32.409  1.00  0.00    -0.275 N 
HETATM    6  H   UNL     1      -4.657   3.876 -32.514  1.00  0.00     0.189 HD
BRANCH   5   7
HETATM    7  C   UNL     1      -2.879   4.517 -31.719  1.00  0.00     0.187 A 
HETATM    8  S   UNL     1      -3.581   5.864 -30.914  1.00  0.00    -0.048 SA
HETATM    9  C   UNL     1      -2.026   6.366 -30.377  1.00  0.00     0.043 A 
HETATM   10  C   UNL     1      -1.069   5.466 -30.851  1.00  0.00     0.115 A 
HETATM   11  C   UNL     1      -1.680   7.481 -29.595  1.00  0.00     0.063 A 
HETATM   12  N   UNL     1      -1.575   4.416 -31.605  1.00  0.00    -0.219 NA
HETATM   13  C   UNL     1       0.284   5.708 -30.523  1.00  0.00     0.149 A 
HETATM   14  C   UNL     1       0.649   6.810 -29.751  1.00  0.00     0.087 A 
HETATM   15  F   UNL     1       1.247   4.879 -30.952  1.00  0.00    -0.203 F 
HETATM   16  C   UNL     1      -0.333   7.676 -29.299  1.00  0.00     0.120 A 
HETATM   17  F   UNL     1       0.022   8.733 -28.557  1.00  0.00    -0.206 F 
ENDBRANCH   5   7
ENDBRANCH   2   5
BRANCH   1  18
HETATM   18  C   UNL     1      -4.145  -0.030 -32.599  1.00  0.00     0.110 A 
HETATM   19  C   UNL     1      -3.098  -0.660 -31.767  1.00  0.00     0.304 A 
HETATM   20  O   UNL     1      -2.895  -2.029 -31.918  1.00  0.00    -0.274 OA
HETATM   21  O   UNL     1      -2.426  -0.011 -30.969  1.00  0.00    -0.259 OA
HETATM   22  C   UNL     1      -3.645  -2.787 -32.834  1.00  0.00     0.089 A 
HETATM   23  C   UNL     1      -4.624  -2.187 -33.616  1.00  0.00    -0.001 A 
HETATM   24  C   UNL     1      -3.368  -4.149 -32.927  1.00  0.00     0.038 A 
HETATM   25  C   UNL     1      -5.345  -2.972 -34.518  1.00  0.00     0.014 A 
HETATM   26  C   UNL     1      -4.861  -0.761 -33.470  1.00  0.00     0.037 A 
HETATM   27  C   UNL     1      -5.077  -4.340 -34.624  1.00  0.00     0.001 A 
HETATM   28  C   UNL     1      -4.090  -4.928 -33.829  1.00  0.00     0.003 A 
ENDBRANCH   1  18
TORSDOF 3
ENDMDL
MODEL 2
REMARK VINA RESULT:      -9.5      2.435      2.663
REMARK  3 active torsions:
REMARK  status: ('A' for Active; 'I' for Inactive)
REMARK    1  A    between atoms: C_8  and  C_9 
REMARK       I    between atoms: C_9  and  N_10 
REMARK    2  A    between atoms: N_10  and  N_11 
REMARK    3  A    between atoms: N_11  and  C_12 
ROOT
HETATM    1  C   UNL     1      -5.925   1.264 -33.535  1.00  0.00     0.276 C 
HETATM    2  N   UNL     1      -5.626   1.920 -32.365  1.00  0.00    -0.264 N 
HETATM    3  O   UNL     1      -6.559   1.812 -34.440  1.00  0.00    -0.266 OA
HETATM    4  H   UNL     1      -5.134   1.505 -31.567  1.00  0.00     0.190 HD
ENDROOT
BRANCH   2   5
HETATM    5  N   UNL     1      -6.056   3.246 -32.239  1.00  0.00    -0.275 N 
HETATM    6  H   UNL     1      -6.909   3.343 -31.683  1.00  0.00     0.189 HD
BRANCH   5   7
HETATM    7  C   UNL     1      -5.189   4.283 -32.286  1.00  0.00     0.187 A 
HETATM    8  S   UNL     1      -5.168   5.442 -31.016  1.00  0.00    -0.048 SA
HETATM    9  C   UNL     1      -3.921   6.313 -31.819  1.00  0.00     0.043 A 
HETATM   10  C   UNL     1      -3.601   5.655 -33.009  1.00  0.00     0.115 A 
HETATM   11  C   UNL     1      -3.275   7.496 -31.422  1.00  0.00     0.063 A 
HETATM   12  N   UNL     1      -4.328   4.498 -33.252  1.00  0.00    -0.219 NA
HETATM   13  C   UNL     1      -2.595   6.220 -33.826  1.00  0.00     0.149 A 
HETATM   14  C   UNL     1      -1.944   7.395 -33.452  1.00  0.00     0.087 A 
HETATM   15  F   UNL     1      -2.248   5.634 -34.981  1.00  0.00    -0.203 F 
HETATM   16  C   UNL     1      -2.290   8.013 -32.262  1.00  0.00     0.120 A 
HETATM   17  F   UNL     1      -1.662   9.140 -31.907  1.00  0.00    -0.206 F 
ENDBRANCH   5   7
ENDBRANCH   2   5
BRANCH   1  18
HETATM   18  C   UNL     1      -5.442  -0.144 -33.653  1.00  0.00     0.110 A 
HETATM   19  C   UNL     1      -4.094  -0.568 -33.219  1.00  0.00     0.304 A 
HETATM   20  O   UNL     1      -3.760  -1.910 -33.381  1.00  0.00    -0.274 OA
HETATM   21  O   UNL     1      -3.291   0.224 -32.733  1.00  0.00    -0.259 OA
HETATM   22  C   UNL     1      -4.660  -2.829 -33.947  1.00  0.00     0.089 A 
HETATM   23  C   UNL     1      -5.924  -2.422 -34.356  1.00  0.00    -0.001 A 
HETATM   24  C   UNL     1      -4.238  -4.150 -34.080  1.00  0.00     0.038 A 
HETATM   25  C   UNL     1      -6.789  -3.364 -34.917  1.00  0.00     0.014 A 
HETATM   26  C   UNL     1      -6.300  -1.030 -34.188  1.00  0.00     0.037 A 
HETATM   27  C   UNL     1      -6.379  -4.693 -35.060  1.00  0.00     0.001 A 
HETATM   28  C   UNL     1      -5.105  -5.085 -34.642  1.00  0.00     0.003 A 
ENDBRANCH   1  18
TORSDOF 3
ENDMDL
MODEL 3
REMARK VINA RESULT:      -9.4      7.238      9.087
REMARK  3 active torsions:
REMARK  status: ('A' for Active; 'I' for Inactive)
REMARK    1  A    between atoms: C_8  and  C_9 
REMARK       I    between atoms: C_9  and  N_10 
REMARK    2  A    between atoms: N_10  and  N_11 
REMARK    3  A    between atoms: N_11  and  C_12 
ROOT
HETATM    1  C   UNL     1      -7.087   1.077 -34.417  1.00  0.00     0.276 C 
HETATM    2  N   UNL     1      -8.455   0.942 -34.404  1.00  0.00    -0.264 N 
HETATM    3  O   UNL     1      -6.547   2.173 -34.583  1.00  0.00    -0.266 OA
HETATM    4  H   UNL     1      -8.957   0.053 -34.305  1.00  0.00     0.190 HD
ENDROOT
BRANCH   2   5
HETATM    5  N   UNL     1      -9.220   2.100 -34.571  1.00  0.00    -0.275 N 
HETATM    6  H   UNL     1      -8.970   2.633 -35.408  1.00  0.00     0.189 HD
BRANCH   5   7
HETATM    7  C   UNL     1     -10.482   2.196 -34.095  1.00  0.00     0.187 A 
HETATM    8  S   UNL     1     -10.914   3.497 -33.057  1.00  0.00    -0.048 SA
HETATM    9  C   UNL     1     -12.515   2.883 -32.936  1.00  0.00     0.043 A 
HETATM   10  C   UNL     1     -12.615   1.719 -33.703  1.00  0.00     0.115 A 
HETATM   11  C   UNL     1     -13.605   3.395 -32.212  1.00  0.00     0.063 A 
HETATM   12  N   UNL     1     -11.450   1.350 -34.361  1.00  0.00    -0.219 NA
HETATM   13  C   UNL     1     -13.861   1.052 -33.731  1.00  0.00     0.149 A 
HETATM   14  C   UNL     1     -14.953   1.542 -33.016  1.00  0.00     0.087 A 
HETATM   15  F   UNL     1     -14.014  -0.071 -34.447  1.00  0.00    -0.203 F 
HETATM   16  C   UNL     1     -14.811   2.700 -32.272  1.00  0.00     0.120 A 
HETATM   17  F   UNL     1     -15.863   3.168 -31.588  1.00  0.00    -0.206 F 
ENDBRANCH   5   7
ENDBRANCH   2   5
BRANCH   1  18
HETATM   18  C   UNL     1      -6.291  -0.171 -34.221  1.00  0.00     0.110 A 
HETATM   19  C   UNL     1      -5.016  -0.200 -33.473  1.00  0.00     0.304 A 
HETATM   20  O   UNL     1      -4.366  -1.426 -33.359  1.00  0.00    -0.274 OA
HETATM   21  O   UNL     1      -4.538   0.813 -32.969  1.00  0.00    -0.259 OA
HETATM   22  C   UNL     1      -4.890  -2.594 -33.940  1.00  0.00     0.089 A 
HETATM   23  C   UNL     1      -6.087  -2.558 -34.645  1.00  0.00    -0.001 A 
HETATM   24  C   UNL     1      -4.167  -3.774 -33.785  1.00  0.00     0.038 A 
HETATM   25  C   UNL     1      -6.574  -3.738 -35.212  1.00  0.00     0.014 A 
HETATM   26  C   UNL     1      -6.789  -1.293 -34.769  1.00  0.00     0.037 A 
HETATM   27  C   UNL     1      -5.859  -4.930 -35.065  1.00  0.00     0.001 A 
HETATM   28  C   UNL     1      -4.657  -4.948 -34.353  1.00  0.00     0.003 A 
ENDBRANCH   1  18
TORSDOF 3
ENDMDL
MODEL 4
REMARK VINA RESULT:      -9.3      2.828      3.528
REMARK  3 active torsions:
REMARK  status: ('A' for Active; 'I' for Inactive)
REMARK    1  A    between atoms: C_8  and  C_9 
REMARK       I    between atoms: C_9  and  N_10 
REMARK    2  A    between atoms: N_10  and  N_11 
REMARK    3  A    between atoms: N_11  and  C_12 
ROOT
HETATM    1  C   UNL     1      -6.222   1.434 -33.291  1.00  0.00     0.276 C 
HETATM    2  N   UNL     1      -6.444   2.353 -34.288  1.00  0.00    -0.264 N 
HETATM    3  O   UNL     1      -6.188   1.764 -32.103  1.00  0.00    -0.266 OA
HETATM    4  H   UNL     1      -6.447   2.144 -35.292  1.00  0.00     0.190 HD
ENDROOT
BRANCH   2   5
HETATM    5  N   UNL     1      -6.646   3.684 -33.907  1.00  0.00    -0.275 N 
HETATM    6  H   UNL     1      -7.520   3.830 -33.395  1.00  0.00     0.189 HD
BRANCH   5   7
HETATM    7  C   UNL     1      -5.611   4.525 -33.677  1.00  0.00     0.187 A 
HETATM    8  S   UNL     1      -5.720   5.699 -32.426  1.00  0.00    -0.048 SA
HETATM    9  C   UNL     1      -4.147   6.274 -32.815  1.00  0.00     0.043 A 
HETATM   10  C   UNL     1      -3.639   5.524 -33.879  1.00  0.00     0.115 A 
HETATM   11  C   UNL     1      -3.416   7.317 -32.221  1.00  0.00     0.063 A 
HETATM   12  N   UNL     1      -4.484   4.529 -34.349  1.00  0.00    -0.219 NA
HETATM   13  C   UNL     1      -2.350   5.847 -34.358  1.00  0.00     0.149 A 
HETATM   14  C   UNL     1      -1.610   6.880 -33.784  1.00  0.00     0.087 A 
HETATM   15  F   UNL     1      -1.813   5.164 -35.379  1.00  0.00    -0.203 F 
HETATM   16  C   UNL     1      -2.149   7.596 -32.729  1.00  0.00     0.120 A 
HETATM   17  F   UNL     1      -1.434   8.586 -32.181  1.00  0.00    -0.206 F 
ENDBRANCH   5   7
ENDBRANCH   2   5
BRANCH   1  18
HETATM   18  C   UNL     1      -6.025   0.018 -33.721  1.00  0.00     0.110 A 
HETATM   19  C   UNL     1      -6.868  -0.633 -34.748  1.00  0.00     0.304 A 
HETATM   20  O   UNL     1      -6.586  -1.960 -35.063  1.00  0.00    -0.274 OA
HETATM   21  O   UNL     1      -7.783  -0.036 -35.307  1.00  0.00    -0.259 OA
HETATM   22  C   UNL     1      -5.549  -2.664 -34.425  1.00  0.00     0.089 A 
HETATM   23  C   UNL     1      -4.765  -2.046 -33.458  1.00  0.00    -0.001 A 
HETATM   24  C   UNL     1      -5.345  -3.990 -34.795  1.00  0.00     0.038 A 
HETATM   25  C   UNL     1      -3.747  -2.779 -32.844  1.00  0.00     0.014 A 
HETATM   26  C   UNL     1      -5.032  -0.660 -33.119  1.00  0.00     0.037 A 
HETATM   27  C   UNL     1      -3.531  -4.113 -33.204  1.00  0.00     0.001 A 
HETATM   28  C   UNL     1      -4.329  -4.717 -34.178  1.00  0.00     0.003 A 
ENDBRANCH   1  18
TORSDOF 3
ENDMDL
MODEL 5
REMARK VINA RESULT:      -9.1      4.689      9.451
REMARK  3 active torsions:
REMARK  status: ('A' for Active; 'I' for Inactive)
REMARK    1  A    between atoms: C_8  and  C_9 
REMARK       I    between atoms: C_9  and  N_10 
REMARK    2  A    between atoms: N_10  and  N_11 
REMARK    3  A    between atoms: N_11  and  C_12 
ROOT
HETATM    1  C   UNL     1      -5.311   2.689 -32.663  1.00  0.00     0.276 C 
HETATM    2  N   UNL     1      -5.772   2.007 -33.763  1.00  0.00    -0.264 N 
HETATM    3  O   UNL     1      -5.573   2.318 -31.516  1.00  0.00    -0.266 OA
HETATM    4  H   UNL     1      -5.616   2.287 -34.738  1.00  0.00     0.190 HD
ENDROOT
BRANCH   2   5
HETATM    5  N   UNL     1      -6.542   0.861 -33.538  1.00  0.00    -0.275 N 
HETATM    6  H   UNL     1      -7.537   0.997 -33.736  1.00  0.00     0.189 HD
BRANCH   5   7
HETATM    7  C   UNL     1      -6.022  -0.382 -33.653  1.00  0.00     0.187 A 
HETATM    8  S   UNL     1      -4.490  -0.740 -32.960  1.00  0.00    -0.048 SA
HETATM    9  C   UNL     1      -4.593  -2.355 -33.541  1.00  0.00     0.043 A 
HETATM   10  C   UNL     1      -5.799  -2.515 -34.228  1.00  0.00     0.115 A 
HETATM   11  C   UNL     1      -3.670  -3.405 -33.399  1.00  0.00     0.063 A 
HETATM   12  N   UNL     1      -6.602  -1.383 -34.273  1.00  0.00    -0.219 NA
HETATM   13  C   UNL     1      -6.074  -3.781 -34.794  1.00  0.00     0.149 A 
HETATM   14  C   UNL     1      -5.170  -4.834 -34.668  1.00  0.00     0.087 A 
HETATM   15  F   UNL     1      -7.215  -3.991 -35.467  1.00  0.00    -0.203 F 
HETATM   16  C   UNL     1      -3.988  -4.633 -33.976  1.00  0.00     0.120 A 
HETATM   17  F   UNL     1      -3.123  -5.648 -33.856  1.00  0.00    -0.206 F 
ENDBRANCH   5   7
ENDBRANCH   2   5
BRANCH   1  18
HETATM   18  C   UNL     1      -4.478   3.899 -32.929  1.00  0.00     0.110 A 
HETATM   19  C   UNL     1      -4.879   4.955 -33.883  1.00  0.00     0.304 A 
HETATM   20  O   UNL     1      -4.016   6.035 -34.046  1.00  0.00    -0.274 OA
HETATM   21  O   UNL     1      -5.931   4.892 -34.514  1.00  0.00    -0.259 OA
HETATM   22  C   UNL     1      -2.801   6.119 -33.342  1.00  0.00     0.089 A 
HETATM   23  C   UNL     1      -2.429   5.120 -32.451  1.00  0.00    -0.001 A 
HETATM   24  C   UNL     1      -1.995   7.230 -33.575  1.00  0.00     0.038 A 
HETATM   25  C   UNL     1      -1.214   5.237 -31.774  1.00  0.00     0.014 A 
HETATM   26  C   UNL     1      -3.318   3.988 -32.256  1.00  0.00     0.037 A 
HETATM   27  C   UNL     1      -0.392   6.346 -31.998  1.00  0.00     0.001 A 
HETATM   28  C   UNL     1      -0.783   7.341 -32.898  1.00  0.00     0.003 A 
ENDBRANCH   1  18
TORSDOF 3
ENDMDL
MODEL 6
REMARK VINA RESULT:      -9.1      3.987      9.169
REMARK  3 active torsions:
REMARK  status: ('A' for Active; 'I' for Inactive)
REMARK    1  A    between atoms: C_8  and  C_9 
REMARK       I    between atoms: C_9  and  N_10 
REMARK    2  A    between atoms: N_10  and  N_11 
REMARK    3  A    between atoms: N_11  and  C_12 
ROOT
HETATM    1  C   UNL     1      -5.055   3.409 -32.262  1.00  0.00     0.276 C 
HETATM    2  N   UNL     1      -5.460   2.931 -33.485  1.00  0.00    -0.264 N 
HETATM    3  O   UNL     1      -5.564   3.011 -31.212  1.00  0.00    -0.266 OA
HETATM    4  H   UNL     1      -5.099   3.249 -34.391  1.00  0.00     0.190 HD
ENDROOT
BRANCH   2   5
HETATM    5  N   UNL     1      -6.468   1.962 -33.499  1.00  0.00    -0.275 N 
HETATM    6  H   UNL     1      -7.389   2.338 -33.741  1.00  0.00     0.189 HD
BRANCH   5   7
HETATM    7  C   UNL     1      -6.206   0.664 -33.774  1.00  0.00     0.187 A 
HETATM    8  S   UNL     1      -7.288  -0.243 -34.754  1.00  0.00    -0.048 SA
HETATM    9  C   UNL     1      -6.293  -1.635 -34.583  1.00  0.00     0.043 A 
HETATM   10  C   UNL     1      -5.192  -1.312 -33.785  1.00  0.00     0.115 A 
HETATM   11  C   UNL     1      -6.476  -2.923 -35.116  1.00  0.00     0.063 A 
HETATM   12  N   UNL     1      -5.157   0.003 -33.342  1.00  0.00    -0.219 NA
HETATM   13  C   UNL     1      -4.250  -2.330 -33.516  1.00  0.00     0.149 A 
HETATM   14  C   UNL     1      -4.416  -3.614 -34.033  1.00  0.00     0.087 A 
HETATM   15  F   UNL     1      -3.176  -2.078 -32.754  1.00  0.00    -0.203 F 
HETATM   16  C   UNL     1      -5.519  -3.891 -34.821  1.00  0.00     0.120 A 
HETATM   17  F   UNL     1      -5.673  -5.126 -35.316  1.00  0.00    -0.206 F 
ENDBRANCH   5   7
ENDBRANCH   2   5
BRANCH   1  18
HETATM   18  C   UNL     1      -3.966   4.431 -32.272  1.00  0.00     0.110 A 
HETATM   19  C   UNL     1      -4.054   5.688 -33.046  1.00  0.00     0.304 A 
HETATM   20  O   UNL     1      -2.973   6.562 -32.976  1.00  0.00    -0.274 OA
HETATM   21  O   UNL     1      -5.038   5.961 -33.728  1.00  0.00    -0.259 OA
HETATM   22  C   UNL     1      -1.832   6.262 -32.211  1.00  0.00     0.089 A 
HETATM   23  C   UNL     1      -1.755   5.076 -31.490  1.00  0.00    -0.001 A 
HETATM   24  C   UNL     1      -0.794   7.190 -32.207  1.00  0.00     0.038 A 
HETATM   25  C   UNL     1      -0.604   4.811 -30.745  1.00  0.00     0.014 A 
HETATM   26  C   UNL     1      -2.875   4.153 -31.539  1.00  0.00     0.037 A 
HETATM   27  C   UNL     1       0.448   5.732 -30.733  1.00  0.00     0.001 A 
HETATM   28  C   UNL     1       0.353   6.920 -31.463  1.00  0.00     0.003 A 
ENDBRANCH   1  18
TORSDOF 3
ENDMDL
MODEL 7
REMARK VINA RESULT:      -8.9      7.204      9.006
REMARK  3 active torsions:
REMARK  status: ('A' for Active; 'I' for Inactive)
REMARK    1  A    between atoms: C_8  and  C_9 
REMARK       I    between atoms: C_9  and  N_10 
REMARK    2  A    between atoms: N_10  and  N_11 
REMARK    3  A    between atoms: N_11  and  C_12 
ROOT
HETATM    1  C   UNL     1      -7.605   1.398 -33.821  1.00  0.00     0.276 C 
HETATM    2  N   UNL     1      -8.630   1.413 -34.737  1.00  0.00    -0.264 N 
HETATM    3  O   UNL     1      -7.426   2.332 -33.037  1.00  0.00    -0.266 OA
HETATM    4  H   UNL     1      -8.806   0.683 -35.436  1.00  0.00     0.190 HD
ENDROOT
BRANCH   2   5
HETATM    5  N   UNL     1      -9.478   2.525 -34.741  1.00  0.00    -0.275 N 
HETATM    6  H   UNL     1      -9.340   3.137 -35.550  1.00  0.00     0.189 HD
BRANCH   5   7
HETATM    7  C   UNL     1     -10.693   2.497 -34.148  1.00  0.00     0.187 A 
HETATM    8  S   UNL     1     -11.875   1.361 -34.664  1.00  0.00    -0.048 SA
HETATM    9  C   UNL     1     -12.990   1.982 -33.512  1.00  0.00     0.043 A 
HETATM   10  C   UNL     1     -12.381   3.021 -32.805  1.00  0.00     0.115 A 
HETATM   11  C   UNL     1     -14.312   1.578 -33.256  1.00  0.00     0.063 A 
HETATM   12  N   UNL     1     -11.072   3.293 -33.176  1.00  0.00    -0.219 NA
HETATM   13  C   UNL     1     -13.140   3.675 -31.808  1.00  0.00     0.149 A 
HETATM   14  C   UNL     1     -14.454   3.291 -31.541  1.00  0.00     0.087 A 
HETATM   15  F   UNL     1     -12.609   4.681 -31.099  1.00  0.00    -0.203 F 
HETATM   16  C   UNL     1     -15.018   2.254 -32.263  1.00  0.00     0.120 A 
HETATM   17  F   UNL     1     -16.279   1.888 -32.002  1.00  0.00    -0.206 F 
ENDBRANCH   5   7
ENDBRANCH   2   5
BRANCH   1  18
HETATM   18  C   UNL     1      -6.724   0.192 -33.826  1.00  0.00     0.110 A 
HETATM   19  C   UNL     1      -5.321   0.223 -33.360  1.00  0.00     0.304 A 
HETATM   20  O   UNL     1      -4.600  -0.967 -33.415  1.00  0.00    -0.274 OA
HETATM   21  O   UNL     1      -4.801   1.252 -32.938  1.00  0.00    -0.259 OA
HETATM   22  C   UNL     1      -5.174  -2.153 -33.906  1.00  0.00     0.089 A 
HETATM   23  C   UNL     1      -6.491  -2.173 -34.347  1.00  0.00    -0.001 A 
HETATM   24  C   UNL     1      -4.376  -3.294 -33.934  1.00  0.00     0.038 A 
HETATM   25  C   UNL     1      -7.025  -3.369 -34.832  1.00  0.00     0.014 A 
HETATM   26  C   UNL     1      -7.267  -0.946 -34.290  1.00  0.00     0.037 A 
HETATM   27  C   UNL     1      -6.235  -4.522 -34.868  1.00  0.00     0.001 A 
HETATM   28  C   UNL     1      -4.913  -4.484 -34.420  1.00  0.00     0.003 A 
ENDBRANCH   1  18
TORSDOF 3
ENDMDL
MODEL 8
REMARK VINA RESULT:      -8.8      1.657      2.432
REMARK  3 active torsions:
REMARK  status: ('A' for Active; 'I' for Inactive)
REMARK    1  A    between atoms: C_8  and  C_9 
REMARK       I    between atoms: C_9  and  N_10 
REMARK    2  A    between atoms: N_10  and  N_11 
REMARK    3  A    between atoms: N_11  and  C_12 
ROOT
HETATM    1  C   UNL     1      -4.890   2.959 -31.806  1.00  0.00     0.276 C 
HETATM    2  N   UNL     1      -3.879   3.837 -32.117  1.00  0.00    -0.264 N 
HETATM    3  O   UNL     1      -5.889   3.320 -31.181  1.00  0.00    -0.266 OA
HETATM    4  H   UNL     1      -3.011   3.587 -32.603  1.00  0.00     0.190 HD
ENDROOT
BRANCH   2   5
HETATM    5  N   UNL     1      -4.030   5.167 -31.710  1.00  0.00    -0.275 N 
HETATM    6  H   UNL     1      -5.006   5.435 -31.559  1.00  0.00     0.189 HD
BRANCH   5   7
HETATM    7  C   UNL     1      -3.064   5.815 -31.020  1.00  0.00     0.187 A 
HETATM    8  S   UNL     1      -1.409   5.532 -31.385  1.00  0.00    -0.048 SA
HETATM    9  C   UNL     1      -0.937   6.631 -30.150  1.00  0.00     0.043 A 
HETATM   10  C   UNL     1      -2.083   7.146 -29.539  1.00  0.00     0.115 A 
HETATM   11  C   UNL     1       0.356   7.008 -29.750  1.00  0.00     0.063 A 
HETATM   12  N   UNL     1      -3.283   6.676 -30.053  1.00  0.00    -0.219 NA
HETATM   13  C   UNL     1      -1.909   8.071 -28.484  1.00  0.00     0.149 A 
HETATM   14  C   UNL     1      -0.635   8.455 -28.070  1.00  0.00     0.087 A 
HETATM   15  F   UNL     1      -2.973   8.596 -27.858  1.00  0.00    -0.203 F 
HETATM   16  C   UNL     1       0.474   7.923 -28.706  1.00  0.00     0.120 A 
HETATM   17  F   UNL     1       1.696   8.296 -28.306  1.00  0.00    -0.206 F 
ENDBRANCH   5   7
ENDBRANCH   2   5
BRANCH   1  18
HETATM   18  C   UNL     1      -4.714   1.549 -32.265  1.00  0.00     0.110 A 
HETATM   19  C   UNL     1      -3.564   0.712 -31.860  1.00  0.00     0.304 A 
HETATM   20  O   UNL     1      -3.511  -0.588 -32.356  1.00  0.00    -0.274 OA
HETATM   21  O   UNL     1      -2.685   1.136 -31.116  1.00  0.00    -0.259 OA
HETATM   22  C   UNL     1      -4.502  -1.088 -33.219  1.00  0.00     0.089 A 
HETATM   23  C   UNL     1      -5.576  -0.293 -33.599  1.00  0.00    -0.001 A 
HETATM   24  C   UNL     1      -4.362  -2.397 -33.674  1.00  0.00     0.038 A 
HETATM   25  C   UNL     1      -6.538  -0.824 -34.461  1.00  0.00     0.014 A 
HETATM   26  C   UNL     1      -5.660   1.063 -33.087  1.00  0.00     0.037 A 
HETATM   27  C   UNL     1      -6.411  -2.135 -34.928  1.00  0.00     0.001 A 
HETATM   28  C   UNL     1      -5.324  -2.920 -34.535  1.00  0.00     0.003 A 
ENDBRANCH   1  18
TORSDOF 3
ENDMDL
MODEL 9
REMARK VINA RESULT:      -8.7      2.139      2.946
REMARK  3 active torsions:
REMARK  status: ('A' for Active; 'I' for Inactive)
REMARK    1  A    between atoms: C_8  and  C_9 
REMARK       I    between atoms: C_9  and  N_10 
REMARK    2  A    between atoms: N_10  and  N_11 
REMARK    3  A    between atoms: N_11  and  C_12 
ROOT
HETATM    1  C   UNL     1      -6.223   1.463 -33.022  1.00  0.00     0.276 C 
HETATM    2  N   UNL     1      -5.078   2.222 -33.001  1.00  0.00    -0.264 N 
HETATM    3  O   UNL     1      -7.300   1.906 -32.619  1.00  0.00    -0.266 OA
HETATM    4  H   UNL     1      -4.149   1.896 -33.290  1.00  0.00     0.190 HD
ENDROOT
BRANCH   2   5
HETATM    5  N   UNL     1      -5.179   3.530 -32.517  1.00  0.00    -0.275 N 
HETATM    6  H   UNL     1      -6.051   3.708 -32.012  1.00  0.00     0.189 HD
BRANCH   5   7
HETATM    7  C   UNL     1      -4.085   4.260 -32.200  1.00  0.00     0.187 A 
HETATM    8  S   UNL     1      -2.641   4.086 -33.116  1.00  0.00    -0.048 SA
HETATM    9  C   UNL     1      -1.855   5.243 -32.115  1.00  0.00     0.043 A 
HETATM   10  C   UNL     1      -2.754   5.689 -31.143  1.00  0.00     0.115 A 
HETATM   11  C   UNL     1      -0.534   5.719 -32.185  1.00  0.00     0.063 A 
HETATM   12  N   UNL     1      -4.020   5.124 -31.214  1.00  0.00    -0.219 NA
HETATM   13  C   UNL     1      -2.296   6.646 -30.210  1.00  0.00     0.149 A 
HETATM   14  C   UNL     1      -0.989   7.128 -30.260  1.00  0.00     0.087 A 
HETATM   15  F   UNL     1      -3.114   7.108 -29.253  1.00  0.00    -0.203 F 
HETATM   16  C   UNL     1      -0.132   6.662 -31.242  1.00  0.00     0.120 A 
HETATM   17  F   UNL     1       1.123   7.128 -31.287  1.00  0.00    -0.206 F 
ENDBRANCH   5   7
ENDBRANCH   2   5
BRANCH   1  18
HETATM   18  C   UNL     1      -6.093   0.075 -33.559  1.00  0.00     0.110 A 
HETATM   19  C   UNL     1      -7.013  -0.482 -34.574  1.00  0.00     0.304 A 
HETATM   20  O   UNL     1      -6.789  -1.790 -34.995  1.00  0.00    -0.274 OA
HETATM   21  O   UNL     1      -7.941   0.175 -35.036  1.00  0.00    -0.259 OA
HETATM   22  C   UNL     1      -5.738  -2.562 -34.469  1.00  0.00     0.089 A 
HETATM   23  C   UNL     1      -4.881  -2.034 -33.512  1.00  0.00    -0.001 A 
HETATM   24  C   UNL     1      -5.595  -3.865 -34.940  1.00  0.00     0.038 A 
HETATM   25  C   UNL     1      -3.851  -2.833 -33.011  1.00  0.00     0.014 A 
HETATM   26  C   UNL     1      -5.087  -0.668 -33.064  1.00  0.00     0.037 A 
HETATM   27  C   UNL     1      -3.696  -4.144 -33.473  1.00  0.00     0.001 A 
HETATM   28  C   UNL     1      -4.567  -4.658 -34.436  1.00  0.00     0.003 A 
ENDBRANCH   1  18
TORSDOF 3
ENDMDL
MODEL 10
REMARK VINA RESULT:      -8.5      4.294      9.134
REMARK  3 active torsions:
REMARK  status: ('A' for Active; 'I' for Inactive)
REMARK    1  A    between atoms: C_8  and  C_9 
REMARK       I    between atoms: C_9  and  N_10 
REMARK    2  A    between atoms: N_10  and  N_11 
REMARK    3  A    between atoms: N_11  and  C_12 
ROOT
HETATM    1  C   UNL     1      -4.744   3.613 -31.996  1.00  0.00     0.276 C 
HETATM    2  N   UNL     1      -5.304   2.698 -31.137  1.00  0.00    -0.264 N 
HETATM    3  O   UNL     1      -4.994   3.604 -33.204  1.00  0.00    -0.266 OA
HETATM    4  H   UNL     1      -5.107   2.636 -30.133  1.00  0.00     0.190 HD
ENDROOT
BRANCH   2   5
HETATM    5  N   UNL     1      -6.185   1.757 -31.680  1.00  0.00    -0.275 N 
HETATM    6  H   UNL     1      -7.028   2.177 -32.083  1.00  0.00     0.189 HD
BRANCH   5   7
HETATM    7  C   UNL     1      -5.751   0.575 -32.172  1.00  0.00     0.187 A 
HETATM    8  S   UNL     1      -4.306  -0.131 -31.565  1.00  0.00    -0.048 SA
HETATM    9  C   UNL     1      -4.485  -1.455 -32.647  1.00  0.00     0.043 A 
HETATM   10  C   UNL     1      -5.645  -1.270 -33.403  1.00  0.00     0.115 A 
HETATM   11  C   UNL     1      -3.655  -2.576 -32.815  1.00  0.00     0.063 A 
HETATM   12  N   UNL     1      -6.356  -0.114 -33.112  1.00  0.00    -0.219 NA
HETATM   13  C   UNL     1      -5.970  -2.253 -34.365  1.00  0.00     0.149 A 
HETATM   14  C   UNL     1      -5.157  -3.371 -34.549  1.00  0.00     0.087 A 
HETATM   15  F   UNL     1      -7.069  -2.127 -35.122  1.00  0.00    -0.203 F 
HETATM   16  C   UNL     1      -4.019  -3.517 -33.776  1.00  0.00     0.120 A 
HETATM   17  F   UNL     1      -3.242  -4.593 -33.956  1.00  0.00    -0.206 F 
ENDBRANCH   5   7
ENDBRANCH   2   5
BRANCH   1  18
HETATM   18  C   UNL     1      -3.820   4.618 -31.391  1.00  0.00     0.110 A 
HETATM   19  C   UNL     1      -4.285   5.699 -30.496  1.00  0.00     0.304 A 
HETATM   20  O   UNL     1      -3.326   6.575 -29.995  1.00  0.00    -0.274 OA
HETATM   21  O   UNL     1      -5.469   5.829 -30.200  1.00  0.00    -0.259 OA
HETATM   22  C   UNL     1      -1.967   6.450 -30.332  1.00  0.00     0.089 A 
HETATM   23  C   UNL     1      -1.538   5.434 -31.178  1.00  0.00    -0.001 A 
HETATM   24  C   UNL     1      -1.078   7.377 -29.793  1.00  0.00     0.038 A 
HETATM   25  C   UNL     1      -0.181   5.344 -31.493  1.00  0.00     0.014 A 
HETATM   26  C   UNL     1      -2.518   4.501 -31.705  1.00  0.00     0.037 A 
HETATM   27  C   UNL     1       0.724   6.269 -30.961  1.00  0.00     0.001 A 
HETATM   28  C   UNL     1       0.275   7.283 -30.112  1.00  0.00     0.003 A 
ENDBRANCH   1  18
TORSDOF 3
ENDMDL
