MODEL 1
REMARK VINA RESULT:      -8.9      0.000      0.000
REMARK  4 active torsions:
REMARK  status: ('A' for Active; 'I' for Inactive)
REMARK    1  A    between atoms: C_8  and  N_9 
REMARK       I    between atoms: N_9  and  C_10 
REMARK       I    between atoms: C_10  and  N_11 
REMARK    2  A    between atoms: N_11  and  C_12 
REMARK    3  A    between atoms: C_14  and  C_15 
REMARK       I    between atoms: C_15  and  N_16 
REMARK    4  A    between atoms: N_16  and  C_17 
ROOT
HETATM    1  C   UNL     1      -7.545   0.550 -31.740  1.00  0.00     0.037 A 
HETATM    2  C   UNL     1      -6.941  -0.321 -32.647  1.00  0.00     0.048 A 
HETATM    3  C   UNL     1      -5.577  -0.649 -32.537  1.00  0.00     0.055 A 
HETATM    4  C   UNL     1      -4.819  -0.131 -31.485  1.00  0.00     0.049 A 
HETATM    5 CL   UNL     1      -3.128  -0.422 -31.302  1.00  0.00    -0.083 Cl
HETATM    6  C   UNL     1      -5.430   0.712 -30.552  1.00  0.00     0.027 A 
HETATM    7  C   UNL     1      -6.783   1.050 -30.679  1.00  0.00     0.031 A 
ENDROOT
BRANCH   1   8
HETATM    8  N   UNL     1      -8.889   0.973 -31.832  1.00  0.00    -0.309 N 
HETATM    9  C   UNL     1      -9.688   0.977 -32.971  1.00  0.00     0.325 C 
HETATM   10  N   UNL     1     -10.941   1.488 -32.689  1.00  0.00    -0.305 N 
HETATM   11  O   UNL     1      -9.312   0.602 -34.072  1.00  0.00    -0.247 OA
HETATM   12  H   UNL     1     -11.156   1.689 -31.727  1.00  0.00     0.171 HD
HETATM   13  H   UNL     1      -9.267   1.431 -31.017  1.00  0.00     0.170 HD
BRANCH  10  14
HETATM   14  C   UNL     1     -11.976   1.723 -33.585  1.00  0.00     0.086 A 
HETATM   15  C   UNL     1     -12.056   2.909 -34.296  1.00  0.00     0.052 A 
HETATM   16  C   UNL     1     -11.200   4.117 -34.340  1.00  0.00     0.072 C 
HETATM   17  N   UNL     1     -13.170   2.803 -35.077  1.00  0.00    -0.280 N 
HETATM   18  H   UNL     1     -13.543   3.479 -35.735  1.00  0.00     0.189 HD
HETATM   19  N   UNL     1     -13.821   1.647 -34.936  1.00  0.00    -0.177 NA
HETATM   20  C   UNL     1     -13.106   0.969 -34.025  1.00  0.00     0.079 A 
HETATM   21  C   UNL     1     -13.583  -0.386 -33.648  1.00  0.00     0.075 C 
ENDBRANCH  10  14
ENDBRANCH   1   8
BRANCH   3  22
HETATM   22  C   UNL     1      -4.998  -1.558 -33.555  1.00  0.00     0.253 C 
HETATM   23  N   UNL     1      -5.900  -2.444 -34.117  1.00  0.00    -0.352 N 
HETATM   24  H   UNL     1      -6.876  -2.404 -33.846  1.00  0.00     0.163 HD
HETATM   25  O   UNL     1      -3.806  -1.510 -33.829  1.00  0.00    -0.268 OA
BRANCH  23  26
HETATM   26  C   UNL     1      -5.504  -3.446 -35.052  1.00  0.00     0.084 A 
HETATM   27  C   UNL     1      -5.286  -4.864 -34.598  1.00  0.00     0.027 A 
HETATM   28  C   UNL     1      -6.466  -4.528 -35.462  1.00  0.00     0.027 A 
ENDBRANCH  23  26
ENDBRANCH   3  22
TORSDOF 4
ENDMDL
MODEL 2
REMARK VINA RESULT:      -8.6      2.388      4.043
REMARK  4 active torsions:
REMARK  status: ('A' for Active; 'I' for Inactive)
REMARK    1  A    between atoms: C_8  and  N_9 
REMARK       I    between atoms: N_9  and  C_10 
REMARK       I    between atoms: C_10  and  N_11 
REMARK    2  A    between atoms: N_11  and  C_12 
REMARK    3  A    between atoms: C_14  and  C_15 
REMARK       I    between atoms: C_15  and  N_16 
REMARK    4  A    between atoms: N_16  and  C_17 
ROOT
HETATM    1  C   UNL     1      -7.410   0.225 -34.356  1.00  0.00     0.037 A 
HETATM    2  C   UNL     1      -6.557   0.889 -33.473  1.00  0.00     0.048 A 
HETATM    3  C   UNL     1      -5.388   0.269 -32.993  1.00  0.00     0.055 A 
HETATM    4  C   UNL     1      -5.047  -1.012 -33.432  1.00  0.00     0.049 A 
HETATM    5 CL   UNL     1      -3.672  -1.878 -32.853  1.00  0.00    -0.083 Cl
HETATM    6  C   UNL     1      -5.879  -1.665 -34.346  1.00  0.00     0.027 A 
HETATM    7  C   UNL     1      -7.051  -1.051 -34.804  1.00  0.00     0.031 A 
ENDROOT
BRANCH   1   8
HETATM    8  N   UNL     1      -8.630   0.760 -34.822  1.00  0.00    -0.309 N 
HETATM    9  C   UNL     1      -9.772   1.015 -34.071  1.00  0.00     0.325 C 
HETATM   10  N   UNL     1     -10.785   1.511 -34.870  1.00  0.00    -0.305 N 
HETATM   11  O   UNL     1      -9.865   0.799 -32.871  1.00  0.00    -0.247 OA
HETATM   12  H   UNL     1     -10.561   1.720 -35.829  1.00  0.00     0.171 HD
HETATM   13  H   UNL     1      -8.721   0.852 -35.823  1.00  0.00     0.170 HD
BRANCH  10  14
HETATM   14  C   UNL     1     -12.089   1.803 -34.493  1.00  0.00     0.086 A 
HETATM   15  C   UNL     1     -12.604   3.082 -34.617  1.00  0.00     0.052 A 
HETATM   16  C   UNL     1     -12.033   4.353 -35.121  1.00  0.00     0.072 C 
HETATM   17  N   UNL     1     -13.892   3.013 -34.171  1.00  0.00    -0.280 N 
HETATM   18  H   UNL     1     -14.579   3.757 -34.118  1.00  0.00     0.189 HD
HETATM   19  N   UNL     1     -14.260   1.796 -33.769  1.00  0.00    -0.177 NA
HETATM   20  C   UNL     1     -13.169   1.037 -33.958  1.00  0.00     0.079 A 
HETATM   21  C   UNL     1     -13.263  -0.402 -33.599  1.00  0.00     0.075 C 
ENDBRANCH  10  14
ENDBRANCH   1   8
BRANCH   3  22
HETATM   22  C   UNL     1      -4.546   1.025 -32.034  1.00  0.00     0.253 C 
HETATM   23  N   UNL     1      -4.023   2.205 -32.533  1.00  0.00    -0.352 N 
HETATM   24  H   UNL     1      -4.260   2.501 -33.473  1.00  0.00     0.163 HD
HETATM   25  O   UNL     1      -4.338   0.591 -30.909  1.00  0.00    -0.268 OA
BRANCH  23  26
HETATM   26  C   UNL     1      -3.124   3.018 -31.780  1.00  0.00     0.084 A 
HETATM   27  C   UNL     1      -2.410   4.169 -32.436  1.00  0.00     0.027 A 
HETATM   28  C   UNL     1      -3.491   4.436 -31.430  1.00  0.00     0.027 A 
ENDBRANCH  23  26
ENDBRANCH   3  22
TORSDOF 4
ENDMDL
MODEL 3
REMARK VINA RESULT:      -8.4      5.200      7.286
REMARK  4 active torsions:
REMARK  status: ('A' for Active; 'I' for Inactive)
REMARK    1  A    between atoms: C_8  and  N_9 
REMARK       I    between atoms: N_9  and  C_10 
REMARK       I    between atoms: C_10  and  N_11 
REMARK    2  A    between atoms: N_11  and  C_12 
REMARK    3  A    between atoms: C_14  and  C_15 
REMARK       I    between atoms: C_15  and  N_16 
REMARK    4  A    between atoms: N_16  and  C_17 
ROOT
HETATM    1  C   UNL     1      -6.106   2.456 -32.210  1.00  0.00     0.037 A 
HETATM    2  C   UNL     1      -6.151   1.466 -33.192  1.00  0.00     0.048 A 
HETATM    3  C   UNL     1      -7.284   0.643 -33.339  1.00  0.00     0.055 A 
HETATM    4  C   UNL     1      -8.398   0.839 -32.520  1.00  0.00     0.049 A 
HETATM    5 CL   UNL     1      -9.805  -0.158 -32.579  1.00  0.00    -0.083 Cl
HETATM    6  C   UNL     1      -8.371   1.855 -31.560  1.00  0.00     0.027 A 
HETATM    7  C   UNL     1      -7.233   2.657 -31.406  1.00  0.00     0.031 A 
ENDROOT
BRANCH   1   8
HETATM    8  N   UNL     1      -4.979   3.269 -31.965  1.00  0.00    -0.309 N 
HETATM    9  C   UNL     1      -4.611   4.418 -32.659  1.00  0.00     0.325 C 
HETATM   10  N   UNL     1      -3.430   4.936 -32.159  1.00  0.00    -0.305 N 
HETATM   11  O   UNL     1      -5.240   4.881 -33.599  1.00  0.00    -0.247 OA
HETATM   12  H   UNL     1      -3.049   4.510 -31.331  1.00  0.00     0.171 HD
HETATM   13  H   UNL     1      -4.309   2.912 -31.301  1.00  0.00     0.170 HD
BRANCH  10  14
HETATM   14  C   UNL     1      -2.715   6.022 -32.645  1.00  0.00     0.086 A 
HETATM   15  C   UNL     1      -2.717   7.239 -31.985  1.00  0.00     0.052 A 
HETATM   16  C   UNL     1      -3.367   7.707 -30.739  1.00  0.00     0.072 C 
HETATM   17  N   UNL     1      -1.917   8.065 -32.719  1.00  0.00    -0.280 N 
HETATM   18  H   UNL     1      -1.681   9.035 -32.537  1.00  0.00     0.189 HD
HETATM   19  N   UNL     1      -1.392   7.488 -33.801  1.00  0.00    -0.177 NA
HETATM   20  C   UNL     1      -1.867   6.234 -33.775  1.00  0.00     0.079 A 
HETATM   21  C   UNL     1      -1.453   5.320 -34.871  1.00  0.00     0.075 C 
ENDBRANCH  10  14
ENDBRANCH   1   8
BRANCH   3  22
HETATM   22  C   UNL     1      -7.247  -0.407 -34.385  1.00  0.00     0.253 C 
HETATM   23  N   UNL     1      -6.434  -1.487 -34.091  1.00  0.00    -0.352 N 
HETATM   24  H   UNL     1      -5.955  -1.524 -33.198  1.00  0.00     0.163 HD
HETATM   25  O   UNL     1      -7.883  -0.276 -35.423  1.00  0.00    -0.268 OA
BRANCH  23  26
HETATM   26  C   UNL     1      -6.213  -2.550 -35.017  1.00  0.00     0.084 A 
HETATM   27  C   UNL     1      -5.306  -3.694 -34.656  1.00  0.00     0.027 A 
HETATM   28  C   UNL     1      -6.787  -3.917 -34.758  1.00  0.00     0.027 A 
ENDBRANCH  23  26
ENDBRANCH   3  22
TORSDOF 4
ENDMDL
MODEL 4
REMARK VINA RESULT:      -8.3      5.249      8.407
REMARK  4 active torsions:
REMARK  status: ('A' for Active; 'I' for Inactive)
REMARK    1  A    between atoms: C_8  and  N_9 
REMARK       I    between atoms: N_9  and  C_10 
REMARK       I    between atoms: C_10  and  N_11 
REMARK    2  A    between atoms: N_11  and  C_12 
REMARK    3  A    between atoms: C_14  and  C_15 
REMARK       I    between atoms: C_15  and  N_16 
REMARK    4  A    between atoms: N_16  and  C_17 
ROOT
HETATM    1  C   UNL     1      -4.078   1.402 -32.142  1.00  0.00     0.037 A 
HETATM    2  C   UNL     1      -5.271   1.498 -32.858  1.00  0.00     0.048 A 
HETATM    3  C   UNL     1      -5.771   0.399 -33.581  1.00  0.00     0.055 A 
HETATM    4  C   UNL     1      -5.091  -0.821 -33.555  1.00  0.00     0.049 A 
HETATM    5 CL   UNL     1      -5.589  -2.204 -34.458  1.00  0.00    -0.083 Cl
HETATM    6  C   UNL     1      -3.916  -0.931 -32.807  1.00  0.00     0.027 A 
HETATM    7  C   UNL     1      -3.412   0.172 -32.107  1.00  0.00     0.031 A 
ENDROOT
BRANCH   1   8
HETATM    8  N   UNL     1      -3.486   2.482 -31.452  1.00  0.00    -0.309 N 
HETATM    9  C   UNL     1      -2.775   3.541 -32.009  1.00  0.00     0.325 C 
HETATM   10  N   UNL     1      -2.317   4.396 -31.024  1.00  0.00    -0.305 N 
HETATM   11  O   UNL     1      -2.567   3.670 -33.206  1.00  0.00    -0.247 OA
HETATM   12  H   UNL     1      -2.621   4.224 -30.080  1.00  0.00     0.171 HD
HETATM   13  H   UNL     1      -3.474   2.413 -30.446  1.00  0.00     0.170 HD
BRANCH  10  14
HETATM   14  C   UNL     1      -1.505   5.511 -31.188  1.00  0.00     0.086 A 
HETATM   15  C   UNL     1      -2.022   6.718 -31.626  1.00  0.00     0.052 A 
HETATM   16  C   UNL     1      -3.389   7.153 -31.995  1.00  0.00     0.072 C 
HETATM   17  N   UNL     1      -0.969   7.585 -31.664  1.00  0.00    -0.280 N 
HETATM   18  H   UNL     1      -0.970   8.563 -31.934  1.00  0.00     0.189 HD
HETATM   19  N   UNL     1       0.190   7.045 -31.285  1.00  0.00    -0.177 NA
HETATM   20  C   UNL     1      -0.116   5.772 -30.987  1.00  0.00     0.079 A 
HETATM   21  C   UNL     1       0.987   4.892 -30.521  1.00  0.00     0.075 C 
ENDBRANCH  10  14
ENDBRANCH   1   8
BRANCH   3  22
HETATM   22  C   UNL     1      -7.030   0.585 -34.343  1.00  0.00     0.253 C 
HETATM   23  N   UNL     1      -8.164   0.707 -33.560  1.00  0.00    -0.352 N 
HETATM   24  H   UNL     1      -8.079   0.702 -32.550  1.00  0.00     0.163 HD
HETATM   25  O   UNL     1      -7.023   0.599 -35.567  1.00  0.00    -0.268 OA
BRANCH  23  26
HETATM   26  C   UNL     1      -9.472   0.808 -34.123  1.00  0.00     0.084 A 
HETATM   27  C   UNL     1     -10.686   0.551 -33.273  1.00  0.00     0.027 A 
HETATM   28  C   UNL     1     -10.380   1.945 -33.738  1.00  0.00     0.027 A 
ENDBRANCH  23  26
ENDBRANCH   3  22
TORSDOF 4
ENDMDL
MODEL 5
REMARK VINA RESULT:      -8.1      2.231      4.269
REMARK  4 active torsions:
REMARK  status: ('A' for Active; 'I' for Inactive)
REMARK    1  A    between atoms: C_8  and  N_9 
REMARK       I    between atoms: N_9  and  C_10 
REMARK       I    between atoms: C_10  and  N_11 
REMARK    2  A    between atoms: N_11  and  C_12 
REMARK    3  A    between atoms: C_14  and  C_15 
REMARK       I    between atoms: C_15  and  N_16 
REMARK    4  A    between atoms: N_16  and  C_17 
ROOT
HETATM    1  C   UNL     1      -7.445   0.021 -34.559  1.00  0.00     0.037 A 
HETATM    2  C   UNL     1      -6.361   0.620 -33.917  1.00  0.00     0.048 A 
HETATM    3  C   UNL     1      -5.278  -0.151 -33.455  1.00  0.00     0.055 A 
HETATM    4  C   UNL     1      -5.260  -1.530 -33.675  1.00  0.00     0.049 A 
HETATM    5 CL   UNL     1      -4.011  -2.568 -33.092  1.00  0.00    -0.083 Cl
HETATM    6  C   UNL     1      -6.327  -2.128 -34.352  1.00  0.00     0.027 A 
HETATM    7  C   UNL     1      -7.411  -1.358 -34.790  1.00  0.00     0.031 A 
ENDROOT
BRANCH   1   8
HETATM    8  N   UNL     1      -8.592   0.725 -34.986  1.00  0.00    -0.309 N 
HETATM    9  C   UNL     1      -9.528   1.365 -34.179  1.00  0.00     0.325 C 
HETATM   10  N   UNL     1     -10.535   1.923 -34.945  1.00  0.00    -0.305 N 
HETATM   11  O   UNL     1      -9.471   1.398 -32.959  1.00  0.00    -0.247 OA
HETATM   12  H   UNL     1     -10.428   1.897 -35.945  1.00  0.00     0.171 HD
HETATM   13  H   UNL     1      -8.820   0.651 -35.966  1.00  0.00     0.170 HD
BRANCH  10  14
HETATM   14  C   UNL     1     -11.678   2.567 -34.491  1.00  0.00     0.086 A 
HETATM   15  C   UNL     1     -12.799   1.854 -34.102  1.00  0.00     0.052 A 
HETATM   16  C   UNL     1     -13.098   0.405 -34.039  1.00  0.00     0.072 C 
HETATM   17  N   UNL     1     -13.718   2.783 -33.710  1.00  0.00    -0.280 N 
HETATM   18  H   UNL     1     -14.657   2.629 -33.359  1.00  0.00     0.189 HD
HETATM   19  N   UNL     1     -13.289   4.043 -33.810  1.00  0.00    -0.177 NA
HETATM   20  C   UNL     1     -12.040   3.934 -34.286  1.00  0.00     0.079 A 
HETATM   21  C   UNL     1     -11.278   5.190 -34.509  1.00  0.00     0.075 C 
ENDBRANCH  10  14
ENDBRANCH   1   8
BRANCH   3  22
HETATM   22  C   UNL     1      -4.175   0.551 -32.755  1.00  0.00     0.253 C 
HETATM   23  N   UNL     1      -4.544   1.734 -32.139  1.00  0.00    -0.352 N 
HETATM   24  H   UNL     1      -5.513   2.029 -32.162  1.00  0.00     0.163 HD
HETATM   25  O   UNL     1      -3.038   0.097 -32.768  1.00  0.00    -0.268 OA
BRANCH  23  26
HETATM   26  C   UNL     1      -3.599   2.583 -31.491  1.00  0.00     0.084 A 
HETATM   27  C   UNL     1      -2.838   3.614 -32.279  1.00  0.00     0.027 A 
HETATM   28  C   UNL     1      -3.893   4.047 -31.303  1.00  0.00     0.027 A 
ENDBRANCH  23  26
ENDBRANCH   3  22
TORSDOF 4
ENDMDL
MODEL 6
REMARK VINA RESULT:      -7.9      5.709      7.925
REMARK  4 active torsions:
REMARK  status: ('A' for Active; 'I' for Inactive)
REMARK    1  A    between atoms: C_8  and  N_9 
REMARK       I    between atoms: N_9  and  C_10 
REMARK       I    between atoms: C_10  and  N_11 
REMARK    2  A    between atoms: N_11  and  C_12 
REMARK    3  A    between atoms: C_14  and  C_15 
REMARK       I    between atoms: C_15  and  N_16 
REMARK    4  A    between atoms: N_16  and  C_17 
ROOT
HETATM    1  C   UNL     1      -3.334   3.671 -32.586  1.00  0.00     0.037 A 
HETATM    2  C   UNL     1      -2.396   3.930 -31.586  1.00  0.00     0.048 A 
HETATM    3  C   UNL     1      -1.520   5.027 -31.683  1.00  0.00     0.055 A 
HETATM    4  C   UNL     1      -1.611   5.898 -32.771  1.00  0.00     0.049 A 
HETATM    5 CL   UNL     1      -0.542   7.231 -33.011  1.00  0.00    -0.083 Cl
HETATM    6  C   UNL     1      -2.575   5.663 -33.755  1.00  0.00     0.027 A 
HETATM    7  C   UNL     1      -3.429   4.558 -33.664  1.00  0.00     0.031 A 
ENDROOT
BRANCH   1   8
HETATM    8  N   UNL     1      -4.195   2.552 -32.586  1.00  0.00    -0.309 N 
HETATM    9  C   UNL     1      -5.577   2.561 -32.744  1.00  0.00     0.325 C 
HETATM   10  N   UNL     1      -6.089   1.280 -32.658  1.00  0.00    -0.305 N 
HETATM   11  O   UNL     1      -6.240   3.574 -32.909  1.00  0.00    -0.247 OA
HETATM   12  H   UNL     1      -5.433   0.520 -32.601  1.00  0.00     0.171 HD
HETATM   13  H   UNL     1      -3.779   1.672 -32.322  1.00  0.00     0.170 HD
BRANCH  10  14
HETATM   14  C   UNL     1      -7.425   0.904 -32.686  1.00  0.00     0.086 A 
HETATM   15  C   UNL     1      -7.873  -0.098 -33.531  1.00  0.00     0.052 A 
HETATM   16  C   UNL     1      -7.187  -0.966 -34.515  1.00  0.00     0.072 C 
HETATM   17  N   UNL     1      -9.212  -0.215 -33.297  1.00  0.00    -0.280 N 
HETATM   18  H   UNL     1      -9.872  -0.851 -33.730  1.00  0.00     0.189 HD
HETATM   19  N   UNL     1      -9.674   0.625 -32.369  1.00  0.00    -0.177 NA
HETATM   20  C   UNL     1      -8.594   1.321 -31.980  1.00  0.00     0.079 A 
HETATM   21  C   UNL     1      -8.786   2.355 -30.931  1.00  0.00     0.075 C 
ENDBRANCH  10  14
ENDBRANCH   1   8
BRANCH   3  22
HETATM   22  C   UNL     1      -0.530   5.222 -30.596  1.00  0.00     0.253 C 
HETATM   23  N   UNL     1      -0.955   6.048 -29.570  1.00  0.00    -0.352 N 
HETATM   24  H   UNL     1      -1.893   6.431 -29.592  1.00  0.00     0.163 HD
HETATM   25  O   UNL     1       0.572   4.694 -30.654  1.00  0.00    -0.268 OA
BRANCH  23  26
HETATM   26  C   UNL     1      -0.105   6.414 -28.484  1.00  0.00     0.084 A 
HETATM   27  C   UNL     1       0.809   7.603 -28.602  1.00  0.00     0.027 A 
HETATM   28  C   UNL     1      -0.381   7.662 -27.689  1.00  0.00     0.027 A 
ENDBRANCH  23  26
ENDBRANCH   3  22
TORSDOF 4
ENDMDL
MODEL 7
REMARK VINA RESULT:      -7.6      4.966      7.313
REMARK  4 active torsions:
REMARK  status: ('A' for Active; 'I' for Inactive)
REMARK    1  A    between atoms: C_8  and  N_9 
REMARK       I    between atoms: N_9  and  C_10 
REMARK       I    between atoms: C_10  and  N_11 
REMARK    2  A    between atoms: N_11  and  C_12 
REMARK    3  A    between atoms: C_14  and  C_15 
REMARK       I    between atoms: C_15  and  N_16 
REMARK    4  A    between atoms: N_16  and  C_17 
ROOT
HETATM    1  C   UNL     1      -3.778   1.186 -31.372  1.00  0.00     0.037 A 
HETATM    2  C   UNL     1      -4.824   0.583 -32.072  1.00  0.00     0.048 A 
HETATM    3  C   UNL     1      -4.743  -0.762 -32.477  1.00  0.00     0.055 A 
HETATM    4  C   UNL     1      -3.621  -1.524 -32.144  1.00  0.00     0.049 A 
HETATM    5 CL   UNL     1      -3.400  -3.159 -32.650  1.00  0.00    -0.083 Cl
HETATM    6  C   UNL     1      -2.588  -0.934 -31.409  1.00  0.00     0.027 A 
HETATM    7  C   UNL     1      -2.666   0.411 -31.027  1.00  0.00     0.031 A 
ENDROOT
BRANCH   1   8
HETATM    8  N   UNL     1      -3.766   2.546 -30.995  1.00  0.00    -0.309 N 
HETATM    9  C   UNL     1      -3.189   3.602 -31.694  1.00  0.00     0.325 C 
HETATM   10  N   UNL     1      -3.347   4.791 -31.006  1.00  0.00    -0.305 N 
HETATM   11  O   UNL     1      -2.602   3.478 -32.759  1.00  0.00    -0.247 OA
HETATM   12  H   UNL     1      -3.920   4.777 -30.179  1.00  0.00     0.171 HD
HETATM   13  H   UNL     1      -4.102   2.753 -30.067  1.00  0.00     0.170 HD
BRANCH  10  14
HETATM   14  C   UNL     1      -2.838   6.036 -31.348  1.00  0.00     0.086 A 
HETATM   15  C   UNL     1      -3.672   7.116 -31.579  1.00  0.00     0.052 A 
HETATM   16  C   UNL     1      -5.144   7.279 -31.534  1.00  0.00     0.072 C 
HETATM   17  N   UNL     1      -2.854   8.166 -31.878  1.00  0.00    -0.280 N 
HETATM   18  H   UNL     1      -3.112   9.121 -32.100  1.00  0.00     0.189 HD
HETATM   19  N   UNL     1      -1.555   7.861 -31.859  1.00  0.00    -0.177 NA
HETATM   20  C   UNL     1      -1.522   6.559 -31.536  1.00  0.00     0.079 A 
HETATM   21  C   UNL     1      -0.189   5.912 -31.430  1.00  0.00     0.075 C 
ENDBRANCH  10  14
ENDBRANCH   1   8
BRANCH   3  22
HETATM   22  C   UNL     1      -5.881  -1.325 -33.243  1.00  0.00     0.253 C 
HETATM   23  N   UNL     1      -5.555  -2.395 -34.058  1.00  0.00    -0.352 N 
HETATM   24  H   UNL     1      -4.605  -2.750 -34.062  1.00  0.00     0.163 HD
HETATM   25  O   UNL     1      -6.999  -0.836 -33.150  1.00  0.00    -0.268 OA
BRANCH  23  26
HETATM   26  C   UNL     1      -6.504  -3.008 -34.928  1.00  0.00     0.084 A 
HETATM   27  C   UNL     1      -6.165  -4.289 -35.640  1.00  0.00     0.027 A 
HETATM   28  C   UNL     1      -7.180  -4.294 -34.534  1.00  0.00     0.027 A 
ENDBRANCH  23  26
ENDBRANCH   3  22
TORSDOF 4
ENDMDL
MODEL 8
REMARK VINA RESULT:      -7.6      5.697      7.896
REMARK  4 active torsions:
REMARK  status: ('A' for Active; 'I' for Inactive)
REMARK    1  A    between atoms: C_8  and  N_9 
REMARK       I    between atoms: N_9  and  C_10 
REMARK       I    between atoms: C_10  and  N_11 
REMARK    2  A    between atoms: N_11  and  C_12 
REMARK    3  A    between atoms: C_14  and  C_15 
REMARK       I    between atoms: C_15  and  N_16 
REMARK    4  A    between atoms: N_16  and  C_17 
ROOT
HETATM    1  C   UNL     1      -3.633   3.790 -31.951  1.00  0.00     0.037 A 
HETATM    2  C   UNL     1      -3.325   4.734 -30.970  1.00  0.00     0.048 A 
HETATM    3  C   UNL     1      -2.359   5.730 -31.204  1.00  0.00     0.055 A 
HETATM    4  C   UNL     1      -1.723   5.808 -32.445  1.00  0.00     0.049 A 
HETATM    5 CL   UNL     1      -0.482   6.950 -32.805  1.00  0.00    -0.083 Cl
HETATM    6  C   UNL     1      -2.057   4.887 -33.442  1.00  0.00     0.027 A 
HETATM    7  C   UNL     1      -3.005   3.886 -33.197  1.00  0.00     0.031 A 
ENDROOT
BRANCH   1   8
HETATM    8  N   UNL     1      -4.541   2.725 -31.759  1.00  0.00    -0.309 N 
HETATM    9  C   UNL     1      -5.794   2.580 -32.347  1.00  0.00     0.325 C 
HETATM   10  N   UNL     1      -6.413   1.427 -31.901  1.00  0.00    -0.305 N 
HETATM   11  O   UNL     1      -6.281   3.383 -33.128  1.00  0.00    -0.247 OA
HETATM   12  H   UNL     1      -5.876   0.805 -31.320  1.00  0.00     0.171 HD
HETATM   13  H   UNL     1      -4.307   2.068 -31.031  1.00  0.00     0.170 HD
BRANCH  10  14
HETATM   14  C   UNL     1      -7.697   0.991 -32.201  1.00  0.00     0.086 A 
HETATM   15  C   UNL     1      -8.809   1.589 -31.634  1.00  0.00     0.052 A 
HETATM   16  C   UNL     1      -8.974   2.715 -30.685  1.00  0.00     0.072 C 
HETATM   17  N   UNL     1      -9.890   0.932 -32.145  1.00  0.00    -0.280 N 
HETATM   18  H   UNL     1     -10.873   1.099 -31.959  1.00  0.00     0.189 HD
HETATM   19  N   UNL     1      -9.575  -0.043 -32.999  1.00  0.00    -0.177 NA
HETATM   20  C   UNL     1      -8.234  -0.025 -33.049  1.00  0.00     0.079 A 
HETATM   21  C   UNL     1      -7.566  -1.013 -33.934  1.00  0.00     0.075 C 
ENDBRANCH  10  14
ENDBRANCH   1   8
BRANCH   3  22
HETATM   22  C   UNL     1      -2.064   6.680 -30.104  1.00  0.00     0.253 C 
HETATM   23  N   UNL     1      -1.054   6.277 -29.249  1.00  0.00    -0.352 N 
HETATM   24  H   UNL     1      -0.561   5.409 -29.430  1.00  0.00     0.163 HD
HETATM   25  O   UNL     1      -2.704   7.717 -29.986  1.00  0.00    -0.268 OA
BRANCH  23  26
HETATM   26  C   UNL     1      -0.693   7.024 -28.089  1.00  0.00     0.084 A 
HETATM   27  C   UNL     1      -0.315   6.317 -26.816  1.00  0.00     0.027 A 
HETATM   28  C   UNL     1       0.734   7.042 -27.608  1.00  0.00     0.027 A 
ENDBRANCH  23  26
ENDBRANCH   3  22
TORSDOF 4
ENDMDL
MODEL 9
REMARK VINA RESULT:      -7.5      4.841      8.103
REMARK  4 active torsions:
REMARK  status: ('A' for Active; 'I' for Inactive)
REMARK    1  A    between atoms: C_8  and  N_9 
REMARK       I    between atoms: N_9  and  C_10 
REMARK       I    between atoms: C_10  and  N_11 
REMARK    2  A    between atoms: N_11  and  C_12 
REMARK    3  A    between atoms: C_14  and  C_15 
REMARK       I    between atoms: C_15  and  N_16 
REMARK    4  A    between atoms: N_16  and  C_17 
ROOT
HETATM    1  C   UNL     1      -4.188   1.690 -31.544  1.00  0.00     0.037 A 
HETATM    2  C   UNL     1      -3.057   2.487 -31.726  1.00  0.00     0.048 A 
HETATM    3  C   UNL     1      -3.100   3.872 -31.480  1.00  0.00     0.055 A 
HETATM    4  C   UNL     1      -4.276   4.460 -31.008  1.00  0.00     0.049 A 
HETATM    5 CL   UNL     1      -4.447   6.155 -30.739  1.00  0.00    -0.083 Cl
HETATM    6  C   UNL     1      -5.399   3.658 -30.788  1.00  0.00     0.027 A 
HETATM    7  C   UNL     1      -5.356   2.284 -31.054  1.00  0.00     0.031 A 
ENDROOT
BRANCH   1   8
HETATM    8  N   UNL     1      -4.232   0.310 -31.835  1.00  0.00    -0.309 N 
HETATM    9  C   UNL     1      -4.810  -0.291 -32.949  1.00  0.00     0.325 C 
HETATM   10  N   UNL     1      -4.689  -1.666 -32.884  1.00  0.00    -0.305 N 
HETATM   11  O   UNL     1      -5.371   0.324 -33.845  1.00  0.00    -0.247 OA
HETATM   12  H   UNL     1      -4.136  -2.049 -32.135  1.00  0.00     0.171 HD
HETATM   13  H   UNL     1      -3.921  -0.309 -31.102  1.00  0.00     0.170 HD
BRANCH  10  14
HETATM   14  C   UNL     1      -5.212  -2.601 -33.767  1.00  0.00     0.086 A 
HETATM   15  C   UNL     1      -4.592  -3.822 -33.972  1.00  0.00     0.052 A 
HETATM   16  C   UNL     1      -3.372  -4.440 -33.403  1.00  0.00     0.072 C 
HETATM   17  N   UNL     1      -5.365  -4.487 -34.880  1.00  0.00    -0.280 N 
HETATM   18  H   UNL     1      -5.223  -5.414 -35.266  1.00  0.00     0.189 HD
HETATM   19  N   UNL     1      -6.437  -3.802 -35.281  1.00  0.00    -0.177 NA
HETATM   20  C   UNL     1      -6.364  -2.642 -34.611  1.00  0.00     0.079 A 
HETATM   21  C   UNL     1      -7.440  -1.645 -34.845  1.00  0.00     0.075 C 
ENDBRANCH  10  14
ENDBRANCH   1   8
BRANCH   3  22
HETATM   22  C   UNL     1      -1.867   4.658 -31.725  1.00  0.00     0.253 C 
HETATM   23  N   UNL     1      -1.115   4.919 -30.593  1.00  0.00    -0.352 N 
HETATM   24  H   UNL     1      -1.410   4.543 -29.699  1.00  0.00     0.163 HD
HETATM   25  O   UNL     1      -1.587   5.047 -32.851  1.00  0.00    -0.268 OA
BRANCH  23  26
HETATM   26  C   UNL     1       0.058   5.731 -30.626  1.00  0.00     0.084 A 
HETATM   27  C   UNL     1      -0.058   7.229 -30.692  1.00  0.00     0.027 A 
HETATM   28  C   UNL     1       0.435   6.571 -29.436  1.00  0.00     0.027 A 
ENDBRANCH  23  26
ENDBRANCH   3  22
TORSDOF 4
ENDMDL
MODEL 10
REMARK VINA RESULT:      -7.4      3.441      4.968
REMARK  4 active torsions:
REMARK  status: ('A' for Active; 'I' for Inactive)
REMARK    1  A    between atoms: C_8  and  N_9 
REMARK       I    between atoms: N_9  and  C_10 
REMARK       I    between atoms: C_10  and  N_11 
REMARK    2  A    between atoms: N_11  and  C_12 
REMARK    3  A    between atoms: C_14  and  C_15 
REMARK       I    between atoms: C_15  and  N_16 
REMARK    4  A    between atoms: N_16  and  C_17 
ROOT
HETATM    1  C   UNL     1      -7.833   1.611 -33.814  1.00  0.00     0.037 A 
HETATM    2  C   UNL     1      -7.035   2.686 -33.418  1.00  0.00     0.048 A 
HETATM    3  C   UNL     1      -5.705   2.485 -33.005  1.00  0.00     0.055 A 
HETATM    4  C   UNL     1      -5.154   1.202 -33.027  1.00  0.00     0.049 A 
HETATM    5 CL   UNL     1      -3.557   0.846 -32.480  1.00  0.00    -0.083 Cl
HETATM    6  C   UNL     1      -5.938   0.129 -33.460  1.00  0.00     0.027 A 
HETATM    7  C   UNL     1      -7.268   0.332 -33.849  1.00  0.00     0.031 A 
ENDROOT
BRANCH   1   8
HETATM    8  N   UNL     1      -9.193   1.733 -34.174  1.00  0.00    -0.309 N 
HETATM    9  C   UNL     1     -10.271   1.927 -33.316  1.00  0.00     0.325 C 
HETATM   10  N   UNL     1     -11.458   1.968 -34.022  1.00  0.00    -0.305 N 
HETATM   11  O   UNL     1     -10.170   2.019 -32.102  1.00  0.00    -0.247 OA
HETATM   12  H   UNL     1     -11.403   1.960 -35.027  1.00  0.00     0.171 HD
HETATM   13  H   UNL     1      -9.415   1.537 -35.138  1.00  0.00     0.170 HD
BRANCH  10  14
HETATM   14  C   UNL     1     -12.743   2.065 -33.504  1.00  0.00     0.086 A 
HETATM   15  C   UNL     1     -13.550   0.948 -33.370  1.00  0.00     0.052 A 
HETATM   16  C   UNL     1     -13.342  -0.487 -33.674  1.00  0.00     0.072 C 
HETATM   17  N   UNL     1     -14.721   1.394 -32.829  1.00  0.00    -0.280 N 
HETATM   18  H   UNL     1     -15.546   0.856 -32.587  1.00  0.00     0.189 HD
HETATM   19  N   UNL     1     -14.743   2.707 -32.598  1.00  0.00    -0.177 NA
HETATM   20  C   UNL     1     -13.539   3.139 -33.004  1.00  0.00     0.079 A 
HETATM   21  C   UNL     1     -13.250   4.591 -32.871  1.00  0.00     0.075 C 
ENDBRANCH  10  14
ENDBRANCH   1   8
BRANCH   3  22
HETATM   22  C   UNL     1      -4.928   3.671 -32.570  1.00  0.00     0.253 C 
HETATM   23  N   UNL     1      -4.045   4.160 -33.515  1.00  0.00    -0.352 N 
HETATM   24  H   UNL     1      -4.001   3.728 -34.431  1.00  0.00     0.163 HD
HETATM   25  O   UNL     1      -5.071   4.133 -31.445  1.00  0.00    -0.268 OA
BRANCH  23  26
HETATM   26  C   UNL     1      -3.156   5.243 -33.241  1.00  0.00     0.084 A 
HETATM   27  C   UNL     1      -1.693   5.126 -33.568  1.00  0.00     0.027 A 
HETATM   28  C   UNL     1      -2.566   6.047 -34.368  1.00  0.00     0.027 A 
ENDBRANCH  23  26
ENDBRANCH   3  22
TORSDOF 4
ENDMDL
