MODEL 1
REMARK VINA RESULT:      -8.3      0.000      0.000
REMARK  3 active torsions:
REMARK  status: ('A' for Active; 'I' for Inactive)
REMARK    1  A    between atoms: C_4  and  C_5 
REMARK    2  A    between atoms: C_11  and  C_12 
REMARK    3  A    between atoms: C_21  and  N_22 
ROOT
HETATM    1  C   UNL     1      -7.107   0.040 -33.677  1.00  0.00     0.098 A 
HETATM    2  N   UNL     1      -8.418  -0.264 -33.658  1.00  0.00    -0.172 NA
HETATM    3  N   UNL     1      -9.044   0.928 -33.696  1.00  0.00    -0.256 N 
HETATM    4  H   UNL     1     -10.058   0.949 -33.696  1.00  0.00     0.191 HD
HETATM    5  C   UNL     1      -8.183   1.974 -33.724  1.00  0.00     0.175 A 
HETATM    6  C   UNL     1      -6.919   1.451 -33.684  1.00  0.00     0.036 A 
HETATM    7  C   UNL     1      -5.716   2.356 -33.617  1.00  0.00     0.076 C 
HETATM    8  C   UNL     1      -6.195   3.806 -33.865  1.00  0.00     0.063 C 
HETATM    9  C   UNL     1      -5.117   4.845 -34.127  1.00  0.00     0.020 C 
HETATM   10  N   UNL     1      -4.223   5.706 -34.346  1.00  0.00    -0.096 N 
HETATM   11  C   UNL     1      -7.503   4.180 -33.911  1.00  0.00     0.139 C 
HETATM   12  O   UNL     1      -8.545   3.249 -33.773  1.00  0.00    -0.279 OA
ENDROOT
BRANCH   7  13
HETATM   13  C   UNL     1      -4.922   2.076 -32.286  1.00  0.00     0.003 C 
HETATM   14  C   UNL     1      -5.513   2.736 -31.026  1.00  0.00     0.032 C 
HETATM   15  C   UNL     1      -4.885   4.042 -30.657  1.00  0.00    -0.030 C 
HETATM   16  C   UNL     1      -3.694   4.445 -31.115  1.00  0.00    -0.031 C 
HETATM   17  C   UNL     1      -2.841   3.644 -32.046  1.00  0.00     0.027 C 
HETATM   18  C   UNL     1      -3.393   2.261 -32.389  1.00  0.00     0.009 C 
ENDBRANCH   7  13
BRANCH  11  19
HETATM   19  N   UNL     1      -7.961   5.460 -34.118  1.00  0.00    -0.282 NA
HETATM   20  H   UNL     1      -7.806   6.119 -33.360  1.00  0.00     0.126 HD
HETATM   21  H   UNL     1      -7.688   5.824 -35.027  1.00  0.00     0.126 HD
ENDBRANCH  11  19
BRANCH   1  22
HETATM   22  C   UNL     1      -6.089  -1.006 -33.635  1.00  0.00    -0.005 A 
HETATM   23  C   UNL     1      -6.006  -1.965 -34.652  1.00  0.00     0.014 A 
HETATM   24  C   UNL     1      -4.995  -2.930 -34.630  1.00  0.00     0.001 A 
HETATM   25  C   UNL     1      -4.064  -2.942 -33.594  1.00  0.00     0.000 A 
HETATM   26  C   UNL     1      -4.145  -1.997 -32.571  1.00  0.00     0.001 A 
HETATM   27  C   UNL     1      -5.157  -1.035 -32.589  1.00  0.00     0.014 A 
ENDBRANCH   1  22
TORSDOF 3
ENDMDL
MODEL 2
REMARK VINA RESULT:      -8.3      2.830      4.762
REMARK  3 active torsions:
REMARK  status: ('A' for Active; 'I' for Inactive)
REMARK    1  A    between atoms: C_4  and  C_5 
REMARK    2  A    between atoms: C_11  and  C_12 
REMARK    3  A    between atoms: C_21  and  N_22 
ROOT
HETATM    1  C   UNL     1      -3.830  -1.613 -32.355  1.00  0.00     0.098 A 
HETATM    2  N   UNL     1      -2.567  -1.465 -31.914  1.00  0.00    -0.172 NA
HETATM    3  N   UNL     1      -2.598  -0.347 -31.164  1.00  0.00    -0.256 N 
HETATM    4  H   UNL     1      -1.745  -0.035 -30.715  1.00  0.00     0.191 HD
HETATM    5  C   UNL     1      -3.826   0.226 -31.124  1.00  0.00     0.175 A 
HETATM    6  C   UNL     1      -4.650  -0.541 -31.903  1.00  0.00     0.036 A 
HETATM    7  C   UNL     1      -6.079  -0.133 -32.142  1.00  0.00     0.076 C 
HETATM    8  C   UNL     1      -6.407   1.040 -31.187  1.00  0.00     0.063 C 
HETATM    9  C   UNL     1      -7.872   1.421 -31.053  1.00  0.00     0.020 C 
HETATM   10  N   UNL     1      -9.088   1.737 -30.940  1.00  0.00    -0.096 N 
HETATM   11  C   UNL     1      -5.479   1.698 -30.440  1.00  0.00     0.139 C 
HETATM   12  O   UNL     1      -4.124   1.327 -30.448  1.00  0.00    -0.279 OA
ENDROOT
BRANCH   7  13
HETATM   13  C   UNL     1      -6.307   0.106 -33.682  1.00  0.00     0.003 C 
HETATM   14  C   UNL     1      -6.044   1.547 -34.162  1.00  0.00     0.032 C 
HETATM   15  C   UNL     1      -7.266   2.403 -34.254  1.00  0.00    -0.030 C 
HETATM   16  C   UNL     1      -8.511   1.913 -34.292  1.00  0.00    -0.031 C 
HETATM   17  C   UNL     1      -8.837   0.454 -34.251  1.00  0.00     0.027 C 
HETATM   18  C   UNL     1      -7.622  -0.473 -34.244  1.00  0.00     0.009 C 
ENDBRANCH   7  13
BRANCH  11  19
HETATM   19  N   UNL     1      -5.735   2.749 -29.591  1.00  0.00    -0.282 NA
HETATM   20  H   UNL     1      -6.242   2.524 -28.740  1.00  0.00     0.126 HD
HETATM   21  H   UNL     1      -4.910   3.320 -29.427  1.00  0.00     0.126 HD
ENDBRANCH  11  19
BRANCH   1  22
HETATM   22  C   UNL     1      -4.199  -2.727 -33.225  1.00  0.00    -0.005 A 
HETATM   23  C   UNL     1      -3.675  -4.008 -33.009  1.00  0.00     0.014 A 
HETATM   24  C   UNL     1      -4.076  -5.078 -33.813  1.00  0.00     0.001 A 
HETATM   25  C   UNL     1      -5.000  -4.875 -34.836  1.00  0.00     0.000 A 
HETATM   26  C   UNL     1      -5.519  -3.601 -35.065  1.00  0.00     0.001 A 
HETATM   27  C   UNL     1      -5.116  -2.529 -34.266  1.00  0.00     0.014 A 
ENDBRANCH   1  22
TORSDOF 3
ENDMDL
MODEL 3
REMARK VINA RESULT:      -7.8      6.400      8.714
REMARK  3 active torsions:
REMARK  status: ('A' for Active; 'I' for Inactive)
REMARK    1  A    between atoms: C_4  and  C_5 
REMARK    2  A    between atoms: C_11  and  C_12 
REMARK    3  A    between atoms: C_21  and  N_22 
ROOT
HETATM    1  C   UNL     1      -3.644   6.475 -30.050  1.00  0.00     0.098 A 
HETATM    2  N   UNL     1      -4.813   5.812 -30.125  1.00  0.00    -0.172 NA
HETATM    3  N   UNL     1      -5.345   5.919 -28.893  1.00  0.00    -0.256 N 
HETATM    4  H   UNL     1      -6.246   5.492 -28.709  1.00  0.00     0.191 HD
HETATM    5  C   UNL     1      -4.555   6.611 -28.036  1.00  0.00     0.175 A 
HETATM    6  C   UNL     1      -3.430   6.967 -28.731  1.00  0.00     0.036 A 
HETATM    7  C   UNL     1      -2.297   7.683 -28.043  1.00  0.00     0.076 C 
HETATM    8  C   UNL     1      -2.785   8.107 -26.638  1.00  0.00     0.063 C 
HETATM    9  C   UNL     1      -1.908   9.091 -25.880  1.00  0.00     0.020 C 
HETATM   10  N   UNL     1      -1.181   9.908 -25.252  1.00  0.00    -0.096 N 
HETATM   11  C   UNL     1      -3.956   7.696 -26.080  1.00  0.00     0.139 C 
HETATM   12  O   UNL     1      -4.854   6.865 -26.770  1.00  0.00    -0.279 OA
ENDROOT
BRANCH   7  13
HETATM   13  C   UNL     1      -0.995   6.800 -28.119  1.00  0.00     0.003 C 
HETATM   14  C   UNL     1      -0.459   6.316 -26.758  1.00  0.00     0.032 C 
HETATM   15  C   UNL     1       0.629   7.165 -26.182  1.00  0.00    -0.030 C 
HETATM   16  C   UNL     1       1.349   8.033 -26.902  1.00  0.00    -0.031 C 
HETATM   17  C   UNL     1       1.160   8.263 -28.368  1.00  0.00     0.027 C 
HETATM   18  C   UNL     1       0.119   7.360 -29.028  1.00  0.00     0.009 C 
ENDBRANCH   7  13
BRANCH  11  19
HETATM   19  N   UNL     1      -4.413   8.046 -24.831  1.00  0.00    -0.282 NA
HETATM   20  H   UNL     1      -5.018   8.862 -24.787  1.00  0.00     0.126 HD
HETATM   21  H   UNL     1      -4.779   7.248 -24.317  1.00  0.00     0.126 HD
ENDBRANCH  11  19
BRANCH   1  22
HETATM   22  C   UNL     1      -2.757   6.572 -31.205  1.00  0.00    -0.005 A 
HETATM   23  C   UNL     1      -2.569   7.795 -31.862  1.00  0.00     0.014 A 
HETATM   24  C   UNL     1      -1.676   7.890 -32.933  1.00  0.00     0.001 A 
HETATM   25  C   UNL     1      -0.968   6.766 -33.353  1.00  0.00     0.000 A 
HETATM   26  C   UNL     1      -1.157   5.541 -32.712  1.00  0.00     0.001 A 
HETATM   27  C   UNL     1      -2.052   5.444 -31.645  1.00  0.00     0.014 A 
ENDBRANCH   1  22
TORSDOF 3
ENDMDL
MODEL 4
REMARK VINA RESULT:      -7.8      2.221      3.065
REMARK  3 active torsions:
REMARK  status: ('A' for Active; 'I' for Inactive)
REMARK    1  A    between atoms: C_4  and  C_5 
REMARK    2  A    between atoms: C_11  and  C_12 
REMARK    3  A    between atoms: C_21  and  N_22 
ROOT
HETATM    1  C   UNL     1      -6.308   0.386 -31.385  1.00  0.00     0.098 A 
HETATM    2  N   UNL     1      -6.111  -0.035 -30.121  1.00  0.00    -0.172 NA
HETATM    3  N   UNL     1      -6.411   1.032 -29.357  1.00  0.00    -0.256 N 
HETATM    4  H   UNL     1      -6.340   0.949 -28.349  1.00  0.00     0.191 HD
HETATM    5  C   UNL     1      -6.778   2.115 -30.085  1.00  0.00     0.175 A 
HETATM    6  C   UNL     1      -6.699   1.754 -31.403  1.00  0.00     0.036 A 
HETATM    7  C   UNL     1      -6.963   2.761 -32.492  1.00  0.00     0.076 C 
HETATM    8  C   UNL     1      -7.545   4.034 -31.833  1.00  0.00     0.063 C 
HETATM    9  C   UNL     1      -8.151   5.069 -32.767  1.00  0.00     0.020 C 
HETATM   10  N   UNL     1      -8.656   5.927 -33.541  1.00  0.00    -0.096 N 
HETATM   11  C   UNL     1      -7.588   4.247 -30.489  1.00  0.00     0.139 C 
HETATM   12  O   UNL     1      -7.132   3.286 -29.573  1.00  0.00    -0.279 OA
ENDROOT
BRANCH   7  13
HETATM   13  C   UNL     1      -5.670   2.932 -33.374  1.00  0.00     0.003 C 
HETATM   14  C   UNL     1      -4.340   2.735 -32.623  1.00  0.00     0.032 C 
HETATM   15  C   UNL     1      -3.701   4.001 -32.149  1.00  0.00    -0.030 C 
HETATM   16  C   UNL     1      -4.014   5.211 -32.627  1.00  0.00    -0.031 C 
HETATM   17  C   UNL     1      -5.035   5.450 -33.693  1.00  0.00     0.027 C 
HETATM   18  C   UNL     1      -5.659   4.184 -34.277  1.00  0.00     0.009 C 
ENDBRANCH   7  13
BRANCH  11  19
HETATM   19  N   UNL     1      -8.088   5.370 -29.873  1.00  0.00    -0.282 NA
HETATM   20  H   UNL     1      -8.291   5.284 -28.881  1.00  0.00     0.126 HD
HETATM   21  H   UNL     1      -7.553   6.204 -30.101  1.00  0.00     0.126 HD
ENDBRANCH  11  19
BRANCH   1  22
HETATM   22  C   UNL     1      -6.071  -0.501 -32.520  1.00  0.00    -0.005 A 
HETATM   23  C   UNL     1      -4.822  -1.106 -32.708  1.00  0.00     0.014 A 
HETATM   24  C   UNL     1      -4.621  -1.995 -33.767  1.00  0.00     0.001 A 
HETATM   25  C   UNL     1      -5.665  -2.284 -34.643  1.00  0.00     0.000 A 
HETATM   26  C   UNL     1      -6.910  -1.679 -34.470  1.00  0.00     0.001 A 
HETATM   27  C   UNL     1      -7.111  -0.786 -33.416  1.00  0.00     0.014 A 
ENDBRANCH   1  22
TORSDOF 3
ENDMDL
MODEL 5
REMARK VINA RESULT:      -7.8      1.571      5.351
REMARK  3 active torsions:
REMARK  status: ('A' for Active; 'I' for Inactive)
REMARK    1  A    between atoms: C_4  and  C_5 
REMARK    2  A    between atoms: C_11  and  C_12 
REMARK    3  A    between atoms: C_21  and  N_22 
ROOT
HETATM    1  C   UNL     1      -6.547   4.463 -33.309  1.00  0.00     0.098 A 
HETATM    2  N   UNL     1      -6.879   5.701 -33.718  1.00  0.00    -0.172 NA
HETATM    3  N   UNL     1      -8.168   5.601 -34.096  1.00  0.00    -0.256 N 
HETATM    4  H   UNL     1      -8.643   6.427 -34.441  1.00  0.00     0.191 HD
HETATM    5  C   UNL     1      -8.662   4.347 -33.955  1.00  0.00     0.175 A 
HETATM    6  C   UNL     1      -7.642   3.569 -33.477  1.00  0.00     0.036 A 
HETATM    7  C   UNL     1      -7.833   2.087 -33.285  1.00  0.00     0.076 C 
HETATM    8  C   UNL     1      -9.338   1.773 -33.462  1.00  0.00     0.063 C 
HETATM    9  C   UNL     1      -9.801   0.391 -33.030  1.00  0.00     0.020 C 
HETATM   10  N   UNL     1     -10.186  -0.755 -32.671  1.00  0.00    -0.096 N 
HETATM   11  C   UNL     1     -10.254   2.666 -33.924  1.00  0.00     0.139 C 
HETATM   12  O   UNL     1      -9.904   3.987 -34.247  1.00  0.00    -0.279 OA
ENDROOT
BRANCH   7  13
HETATM   13  C   UNL     1      -6.820   1.303 -34.202  1.00  0.00     0.003 C 
HETATM   14  C   UNL     1      -7.470   0.448 -35.306  1.00  0.00     0.032 C 
HETATM   15  C   UNL     1      -7.648  -0.993 -34.951  1.00  0.00    -0.030 C 
HETATM   16  C   UNL     1      -6.989  -1.595 -33.953  1.00  0.00    -0.031 C 
HETATM   17  C   UNL     1      -5.995  -0.908 -33.073  1.00  0.00     0.027 C 
HETATM   18  C   UNL     1      -5.708   0.546 -33.445  1.00  0.00     0.009 C 
ENDBRANCH   7  13
BRANCH  11  19
HETATM   19  N   UNL     1     -11.595   2.415 -34.103  1.00  0.00    -0.282 NA
HETATM   20  H   UNL     1     -11.894   2.242 -35.059  1.00  0.00     0.126 HD
HETATM   21  H   UNL     1     -11.950   1.729 -33.442  1.00  0.00     0.126 HD
ENDBRANCH  11  19
BRANCH   1  22
HETATM   22  C   UNL     1      -5.202   4.163 -32.827  1.00  0.00    -0.005 A 
HETATM   23  C   UNL     1      -4.077   4.484 -33.598  1.00  0.00     0.014 A 
HETATM   24  C   UNL     1      -2.792   4.242 -33.105  1.00  0.00     0.001 A 
HETATM   25  C   UNL     1      -2.624   3.678 -31.842  1.00  0.00     0.000 A 
HETATM   26  C   UNL     1      -3.738   3.344 -31.072  1.00  0.00     0.001 A 
HETATM   27  C   UNL     1      -5.023   3.581 -31.565  1.00  0.00     0.014 A 
ENDBRANCH   1  22
TORSDOF 3
ENDMDL
MODEL 6
REMARK VINA RESULT:      -7.7     15.543     18.083
REMARK  3 active torsions:
REMARK  status: ('A' for Active; 'I' for Inactive)
REMARK    1  A    between atoms: C_4  and  C_5 
REMARK    2  A    between atoms: C_11  and  C_12 
REMARK    3  A    between atoms: C_21  and  N_22 
ROOT
HETATM    1  C   UNL     1      -2.327 -14.390 -40.840  1.00  0.00     0.098 A 
HETATM    2  N   UNL     1      -1.133 -13.800 -40.643  1.00  0.00    -0.172 NA
HETATM    3  N   UNL     1      -1.285 -13.095 -39.506  1.00  0.00    -0.256 N 
HETATM    4  H   UNL     1      -0.499 -12.562 -39.150  1.00  0.00     0.191 HD
HETATM    5  C   UNL     1      -2.530 -13.204 -38.981  1.00  0.00     0.175 A 
HETATM    6  C   UNL     1      -3.249 -14.008 -39.825  1.00  0.00     0.036 A 
HETATM    7  C   UNL     1      -4.711 -14.269 -39.576  1.00  0.00     0.076 C 
HETATM    8  C   UNL     1      -5.063 -13.717 -38.174  1.00  0.00     0.063 C 
HETATM    9  C   UNL     1      -6.409 -14.124 -37.598  1.00  0.00     0.020 C 
HETATM   10  N   UNL     1      -7.525 -14.464 -37.120  1.00  0.00    -0.096 N 
HETATM   11  C   UNL     1      -4.227 -12.946 -37.426  1.00  0.00     0.139 C 
HETATM   12  O   UNL     1      -2.933 -12.617 -37.863  1.00  0.00    -0.279 OA
ENDROOT
BRANCH   7  13
HETATM   13  C   UNL     1      -5.555 -13.735 -40.794  1.00  0.00     0.003 C 
HETATM   14  C   UNL     1      -6.109 -12.308 -40.625  1.00  0.00     0.032 C 
HETATM   15  C   UNL     1      -7.519 -12.244 -40.132  1.00  0.00    -0.030 C 
HETATM   16  C   UNL     1      -8.367 -13.278 -40.182  1.00  0.00    -0.031 C 
HETATM   17  C   UNL     1      -8.016 -14.621 -40.737  1.00  0.00     0.027 C 
HETATM   18  C   UNL     1      -6.613 -14.720 -41.334  1.00  0.00     0.009 C 
ENDBRANCH   7  13
BRANCH  11  19
HETATM   19  N   UNL     1      -4.513 -12.431 -36.183  1.00  0.00    -0.282 NA
HETATM   20  H   UNL     1      -4.480 -11.418 -36.101  1.00  0.00     0.126 HD
HETATM   21  H   UNL     1      -5.353 -12.839 -35.781  1.00  0.00     0.126 HD
ENDBRANCH  11  19
BRANCH   1  22
HETATM   22  C   UNL     1      -2.563 -15.244 -42.000  1.00  0.00    -0.005 A 
HETATM   23  C   UNL     1      -3.377 -14.811 -43.054  1.00  0.00     0.014 A 
HETATM   24  C   UNL     1      -3.554 -15.614 -44.184  1.00  0.00     0.001 A 
HETATM   25  C   UNL     1      -2.920 -16.852 -44.266  1.00  0.00     0.000 A 
HETATM   26  C   UNL     1      -2.116 -17.296 -43.217  1.00  0.00     0.001 A 
HETATM   27  C   UNL     1      -1.942 -16.498 -42.085  1.00  0.00     0.014 A 
ENDBRANCH   1  22
TORSDOF 3
ENDMDL
MODEL 7
REMARK VINA RESULT:      -7.7      2.845      4.147
REMARK  3 active torsions:
REMARK  status: ('A' for Active; 'I' for Inactive)
REMARK    1  A    between atoms: C_4  and  C_5 
REMARK    2  A    between atoms: C_11  and  C_12 
REMARK    3  A    between atoms: C_21  and  N_22 
ROOT
HETATM    1  C   UNL     1      -9.541   0.253 -33.059  1.00  0.00     0.098 A 
HETATM    2  N   UNL     1     -10.490  -0.662 -32.788  1.00  0.00    -0.172 NA
HETATM    3  N   UNL     1     -11.650  -0.049 -33.094  1.00  0.00    -0.256 N 
HETATM    4  H   UNL     1     -12.519  -0.558 -32.973  1.00  0.00     0.191 HD
HETATM    5  C   UNL     1     -11.475   1.220 -33.535  1.00  0.00     0.175 A 
HETATM    6  C   UNL     1     -10.130   1.471 -33.502  1.00  0.00     0.036 A 
HETATM    7  C   UNL     1      -9.595   2.835 -33.854  1.00  0.00     0.076 C 
HETATM    8  C   UNL     1     -10.756   3.663 -34.453  1.00  0.00     0.063 C 
HETATM    9  C   UNL     1     -10.381   4.965 -35.141  1.00  0.00     0.020 C 
HETATM   10  N   UNL     1     -10.069   6.045 -35.712  1.00  0.00    -0.096 N 
HETATM   11  C   UNL     1     -12.059   3.269 -34.443  1.00  0.00     0.139 C 
HETATM   12  O   UNL     1     -12.454   2.032 -33.909  1.00  0.00    -0.279 OA
ENDROOT
BRANCH   7  13
HETATM   13  C   UNL     1      -8.843   3.441 -32.610  1.00  0.00     0.003 C 
HETATM   14  C   UNL     1      -9.692   4.381 -31.733  1.00  0.00     0.032 C 
HETATM   15  C   UNL     1      -9.527   5.835 -32.040  1.00  0.00    -0.030 C 
HETATM   16  C   UNL     1      -8.491   6.332 -32.727  1.00  0.00    -0.031 C 
HETATM   17  C   UNL     1      -7.373   5.502 -33.270  1.00  0.00     0.027 C 
HETATM   18  C   UNL     1      -7.444   4.018 -32.912  1.00  0.00     0.009 C 
ENDBRANCH   7  13
BRANCH  11  19
HETATM   19  N   UNL     1     -13.114   3.985 -34.956  1.00  0.00    -0.282 NA
HETATM   20  H   UNL     1     -13.990   3.921 -34.444  1.00  0.00     0.126 HD
HETATM   21  H   UNL     1     -12.855   4.941 -35.188  1.00  0.00     0.126 HD
ENDBRANCH  11  19
BRANCH   1  22
HETATM   22  C   UNL     1      -8.128  -0.039 -32.840  1.00  0.00    -0.005 A 
HETATM   23  C   UNL     1      -7.529   0.207 -31.598  1.00  0.00     0.014 A 
HETATM   24  C   UNL     1      -6.189  -0.126 -31.382  1.00  0.00     0.001 A 
HETATM   25  C   UNL     1      -5.441  -0.706 -32.405  1.00  0.00     0.000 A 
HETATM   26  C   UNL     1      -6.026  -0.946 -33.649  1.00  0.00     0.001 A 
HETATM   27  C   UNL     1      -7.363  -0.608 -33.867  1.00  0.00     0.014 A 
ENDBRANCH   1  22
TORSDOF 3
ENDMDL
MODEL 8
REMARK VINA RESULT:      -7.7     15.489     16.924
REMARK  3 active torsions:
REMARK  status: ('A' for Active; 'I' for Inactive)
REMARK    1  A    between atoms: C_4  and  C_5 
REMARK    2  A    between atoms: C_11  and  C_12 
REMARK    3  A    between atoms: C_21  and  N_22 
ROOT
HETATM    1  C   UNL     1      -6.979 -13.640 -37.704  1.00  0.00     0.098 A 
HETATM    2  N   UNL     1      -7.990 -12.917 -38.222  1.00  0.00    -0.172 NA
HETATM    3  N   UNL     1      -7.584 -12.610 -39.469  1.00  0.00    -0.256 N 
HETATM    4  H   UNL     1      -8.197 -12.064 -40.063  1.00  0.00     0.191 HD
HETATM    5  C   UNL     1      -6.352 -13.098 -39.757  1.00  0.00     0.175 A 
HETATM    6  C   UNL     1      -5.909 -13.747 -38.636  1.00  0.00     0.036 A 
HETATM    7  C   UNL     1      -4.525 -14.340 -38.589  1.00  0.00     0.076 C 
HETATM    8  C   UNL     1      -3.936 -14.289 -40.019  1.00  0.00     0.063 C 
HETATM    9  C   UNL     1      -2.668 -15.092 -40.263  1.00  0.00     0.020 C 
HETATM   10  N   UNL     1      -1.617 -15.758 -40.466  1.00  0.00    -0.096 N 
HETATM   11  C   UNL     1      -4.509 -13.623 -41.058  1.00  0.00     0.139 C 
HETATM   12  O   UNL     1      -5.731 -12.944 -40.918  1.00  0.00    -0.279 OA
ENDROOT
BRANCH   7  13
HETATM   13  C   UNL     1      -3.695 -13.648 -37.443  1.00  0.00     0.003 C 
HETATM   14  C   UNL     1      -2.844 -12.445 -37.893  1.00  0.00     0.032 C 
HETATM   15  C   UNL     1      -1.414 -12.772 -38.185  1.00  0.00    -0.030 C 
HETATM   16  C   UNL     1      -0.808 -13.885 -37.756  1.00  0.00    -0.031 C 
HETATM   17  C   UNL     1      -1.477 -14.937 -36.932  1.00  0.00     0.027 C 
HETATM   18  C   UNL     1      -2.916 -14.615 -36.528  1.00  0.00     0.009 C 
ENDBRANCH   7  13
BRANCH  11  19
HETATM   19  N   UNL     1      -4.007 -13.550 -42.336  1.00  0.00    -0.282 NA
HETATM   20  H   UNL     1      -4.690 -13.427 -43.079  1.00  0.00     0.126 HD
HETATM   21  H   UNL     1      -3.221 -12.909 -42.404  1.00  0.00     0.126 HD
ENDBRANCH  11  19
BRANCH   1  22
HETATM   22  C   UNL     1      -7.043 -14.154 -36.339  1.00  0.00    -0.005 A 
HETATM   23  C   UNL     1      -7.064 -15.533 -36.093  1.00  0.00     0.014 A 
HETATM   24  C   UNL     1      -7.070 -16.015 -34.781  1.00  0.00     0.001 A 
HETATM   25  C   UNL     1      -7.056 -15.124 -33.710  1.00  0.00     0.000 A 
HETATM   26  C   UNL     1      -7.046 -13.749 -33.945  1.00  0.00     0.001 A 
HETATM   27  C   UNL     1      -7.044 -13.266 -35.255  1.00  0.00     0.014 A 
ENDBRANCH   1  22
TORSDOF 3
ENDMDL
MODEL 9
REMARK VINA RESULT:      -7.6      3.019      5.742
REMARK  3 active torsions:
REMARK  status: ('A' for Active; 'I' for Inactive)
REMARK    1  A    between atoms: C_4  and  C_5 
REMARK    2  A    between atoms: C_11  and  C_12 
REMARK    3  A    between atoms: C_21  and  N_22 
ROOT
HETATM    1  C   UNL     1      -7.219   2.881 -33.741  1.00  0.00     0.098 A 
HETATM    2  N   UNL     1      -6.239   3.755 -34.036  1.00  0.00    -0.172 NA
HETATM    3  N   UNL     1      -6.799   4.967 -33.859  1.00  0.00    -0.256 N 
HETATM    4  H   UNL     1      -6.236   5.794 -34.020  1.00  0.00     0.191 HD
HETATM    5  C   UNL     1      -8.097   4.896 -33.477  1.00  0.00     0.175 A 
HETATM    6  C   UNL     1      -8.423   3.568 -33.415  1.00  0.00     0.036 A 
HETATM    7  C   UNL     1      -9.831   3.137 -33.098  1.00  0.00     0.076 C 
HETATM    8  C   UNL     1     -10.621   4.387 -32.641  1.00  0.00     0.063 C 
HETATM    9  C   UNL     1     -11.976   4.139 -32.000  1.00  0.00     0.020 C 
HETATM   10  N   UNL     1     -13.100   3.934 -31.466  1.00  0.00    -0.096 N 
HETATM   11  C   UNL     1     -10.153   5.661 -32.734  1.00  0.00     0.139 C 
HETATM   12  O   UNL     1      -8.869   5.945 -33.229  1.00  0.00    -0.279 OA
ENDROOT
BRANCH   7  13
HETATM   13  C   UNL     1     -10.415   2.317 -34.309  1.00  0.00     0.003 C 
HETATM   14  C   UNL     1     -11.258   3.139 -35.303  1.00  0.00     0.032 C 
HETATM   15  C   UNL     1     -12.733   3.077 -35.066  1.00  0.00    -0.030 C 
HETATM   16  C   UNL     1     -13.323   2.131 -34.326  1.00  0.00    -0.031 C 
HETATM   17  C   UNL     1     -12.588   1.019 -33.649  1.00  0.00     0.027 C 
HETATM   18  C   UNL     1     -11.086   0.981 -33.928  1.00  0.00     0.009 C 
ENDBRANCH   7  13
BRANCH  11  19
HETATM   19  N   UNL     1     -10.833   6.792 -32.348  1.00  0.00    -0.282 NA
HETATM   20  H   UNL     1     -10.347   7.408 -31.702  1.00  0.00     0.126 HD
HETATM   21  H   UNL     1     -11.243   7.284 -33.139  1.00  0.00     0.126 HD
ENDBRANCH  11  19
BRANCH   1  22
HETATM   22  C   UNL     1      -6.997   1.441 -33.828  1.00  0.00    -0.005 A 
HETATM   23  C   UNL     1      -6.614   0.705 -32.699  1.00  0.00     0.014 A 
HETATM   24  C   UNL     1      -6.457  -0.681 -32.781  1.00  0.00     0.001 A 
HETATM   25  C   UNL     1      -6.680  -1.339 -33.988  1.00  0.00     0.000 A 
HETATM   26  C   UNL     1      -7.051  -0.614 -35.121  1.00  0.00     0.001 A 
HETATM   27  C   UNL     1      -7.204   0.772 -35.042  1.00  0.00     0.014 A 
ENDBRANCH   1  22
TORSDOF 3
ENDMDL
MODEL 10
REMARK VINA RESULT:      -7.5      1.611      2.172
REMARK  3 active torsions:
REMARK  status: ('A' for Active; 'I' for Inactive)
REMARK    1  A    between atoms: C_4  and  C_5 
REMARK    2  A    between atoms: C_11  and  C_12 
REMARK    3  A    between atoms: C_21  and  N_22 
ROOT
HETATM    1  C   UNL     1      -8.372   0.365 -32.963  1.00  0.00     0.098 A 
HETATM    2  N   UNL     1      -9.589  -0.194 -32.831  1.00  0.00    -0.172 NA
HETATM    3  N   UNL     1     -10.402   0.831 -32.513  1.00  0.00    -0.256 N 
HETATM    4  H   UNL     1     -11.389   0.647 -32.368  1.00  0.00     0.191 HD
HETATM    5  C   UNL     1      -9.748   2.015 -32.425  1.00  0.00     0.175 A 
HETATM    6  C   UNL     1      -8.427   1.759 -32.680  1.00  0.00     0.036 A 
HETATM    7  C   UNL     1      -7.400   2.856 -32.579  1.00  0.00     0.076 C 
HETATM    8  C   UNL     1      -8.151   4.200 -32.426  1.00  0.00     0.063 C 
HETATM    9  C   UNL     1      -7.326   5.466 -32.595  1.00  0.00     0.020 C 
HETATM   10  N   UNL     1      -6.642   6.515 -32.737  1.00  0.00    -0.096 N 
HETATM   11  C   UNL     1      -9.490   4.305 -32.205  1.00  0.00     0.139 C 
HETATM   12  O   UNL     1     -10.320   3.175 -32.136  1.00  0.00    -0.279 OA
ENDROOT
BRANCH   7  13
HETATM   13  C   UNL     1      -6.345   2.489 -31.468  1.00  0.00     0.003 C 
HETATM   14  C   UNL     1      -6.715   2.946 -30.044  1.00  0.00     0.032 C 
HETATM   15  C   UNL     1      -6.105   4.247 -29.632  1.00  0.00    -0.030 C 
HETATM   16  C   UNL     1      -5.051   4.797 -30.248  1.00  0.00    -0.031 C 
HETATM   17  C   UNL     1      -4.353   4.184 -31.419  1.00  0.00     0.027 C 
HETATM   18  C   UNL     1      -4.880   2.810 -31.830  1.00  0.00     0.009 C 
ENDBRANCH   7  13
BRANCH  11  19
HETATM   19  N   UNL     1     -10.185   5.482 -32.053  1.00  0.00    -0.282 NA
HETATM   20  H   UNL     1     -10.951   5.467 -31.385  1.00  0.00     0.126 HD
HETATM   21  H   UNL     1      -9.568   6.282 -31.937  1.00  0.00     0.126 HD
ENDBRANCH  11  19
BRANCH   1  22
HETATM   22  C   UNL     1      -7.203  -0.442 -33.299  1.00  0.00    -0.005 A 
HETATM   23  C   UNL     1      -6.163  -0.614 -32.377  1.00  0.00     0.014 A 
HETATM   24  C   UNL     1      -5.074  -1.433 -32.688  1.00  0.00     0.001 A 
HETATM   25  C   UNL     1      -5.018  -2.083 -33.919  1.00  0.00     0.000 A 
HETATM   26  C   UNL     1      -6.044  -1.909 -34.848  1.00  0.00     0.001 A 
HETATM   27  C   UNL     1      -7.130  -1.087 -34.541  1.00  0.00     0.014 A 
ENDBRANCH   1  22
TORSDOF 3
ENDMDL
