MODEL 1
REMARK VINA RESULT:      -8.5      0.000      0.000
REMARK  8 active torsions:
REMARK  status: ('A' for Active; 'I' for Inactive)
REMARK    1  A    between atoms: N_2  and  C_5 
REMARK    2  A    between atoms: C_5  and  C_6 
REMARK    3  A    between atoms: C_6  and  S_7 
REMARK    4  A    between atoms: S_7  and  C_8 
REMARK    5  A    between atoms: C_10  and  C_25 
REMARK    6  A    between atoms: C_13  and  N_14 
REMARK       I    between atoms: N_14  and  C_15 
REMARK       I    between atoms: C_15  and  N_17 
REMARK    7  A    between atoms: N_17  and  C_18 
REMARK    8  A    between atoms: C_18  and  C_19 
ROOT
HETATM    1  C   UNL     1      -5.759   0.592 -33.513  1.00  0.00     0.028 A 
HETATM    2  C   UNL     1      -6.118  -0.675 -33.991  1.00  0.00     0.033 A 
HETATM    3  C   UNL     1      -5.254  -1.769 -33.843  1.00  0.00    -0.022 A 
HETATM    4  C   UNL     1      -4.026  -1.570 -33.201  1.00  0.00     0.014 A 
HETATM    5  C   UNL     1      -3.654  -0.303 -32.736  1.00  0.00     0.032 A 
HETATM    6  C   UNL     1      -4.505   0.790 -32.908  1.00  0.00     0.053 A 
ENDROOT
BRANCH   6   7
HETATM    7  N   UNL     1      -4.126   2.100 -32.535  1.00  0.00    -0.308 N 
HETATM    8  C   UNL     1      -4.081   2.585 -31.260  1.00  0.00     0.321 C 
HETATM    9  O   UNL     1      -4.658   2.072 -30.307  1.00  0.00    -0.247 OA
HETATM   10  N   UNL     1      -3.424   3.761 -31.090  1.00  0.00    -0.339 N 
HETATM   11  H   UNL     1      -3.310   3.996 -30.109  1.00  0.00     0.164 HD
HETATM   12  H   UNL     1      -3.979   2.748 -33.296  1.00  0.00     0.170 HD
BRANCH  10  13
HETATM   13  C   UNL     1      -2.496   4.390 -32.010  1.00  0.00     0.162 C 
BRANCH  13  14
HETATM   14  C   UNL     1      -1.589   5.363 -31.308  1.00  0.00    -0.040 A 
HETATM   15  C   UNL     1      -2.124   6.338 -30.454  1.00  0.00     0.009 A 
HETATM   16  C   UNL     1      -1.287   7.239 -29.795  1.00  0.00     0.001 A 
HETATM   17  C   UNL     1       0.092   7.176 -29.980  1.00  0.00     0.000 A 
HETATM   18  C   UNL     1       0.638   6.210 -30.822  1.00  0.00     0.001 A 
HETATM   19  C   UNL     1      -0.197   5.303 -31.478  1.00  0.00     0.009 A 
ENDBRANCH  13  14
ENDBRANCH  10  13
ENDBRANCH   6   7
BRANCH   1  20
HETATM   20  S   UNL     1      -6.973   1.919 -33.521  1.00  0.00    -0.126 SA
BRANCH  20  21
HETATM   21  C   UNL     1      -7.979   1.423 -32.064  1.00  0.00     0.107 C 
BRANCH  21  22
HETATM   22  C   UNL     1      -9.354   2.108 -31.979  1.00  0.00     0.244 C 
BRANCH  22  23
HETATM   23  N   UNL     1     -10.470   1.246 -32.540  1.00  0.00    -0.078 N 
HETATM   24  C   UNL     1     -11.096   1.806 -33.784  1.00  0.00     0.269 C 
HETATM   25  H   UNL     1     -11.197   1.209 -31.811  1.00  0.00     0.279 HD
HETATM   26  C   UNL     1     -10.033  -0.184 -32.737  1.00  0.00     0.269 C 
ENDBRANCH  22  23
ENDBRANCH  21  22
ENDBRANCH  20  21
ENDBRANCH   1  20
BRANCH   3  27
HETATM   27  C   UNL     1      -5.646  -3.077 -34.344  1.00  0.00     0.010 A 
HETATM   28  C   UNL     1      -4.901  -4.274 -34.485  1.00  0.00     0.152 A 
HETATM   29  N   UNL     1      -5.612  -5.268 -35.020  1.00  0.00    -0.187 NA
HETATM   30  N   UNL     1      -6.828  -4.728 -35.197  1.00  0.00    -0.289 N 
HETATM   31  H   UNL     1      -7.562  -5.313 -35.584  1.00  0.00     0.188 HD
HETATM   32  C   UNL     1      -6.895  -3.415 -34.823  1.00  0.00     0.123 A 
ENDBRANCH   3  27
TORSDOF 8
ENDMDL
MODEL 2
REMARK VINA RESULT:      -8.1     15.454     17.097
REMARK  8 active torsions:
REMARK  status: ('A' for Active; 'I' for Inactive)
REMARK    1  A    between atoms: N_2  and  C_5 
REMARK    2  A    between atoms: C_5  and  C_6 
REMARK    3  A    between atoms: C_6  and  S_7 
REMARK    4  A    between atoms: S_7  and  C_8 
REMARK    5  A    between atoms: C_10  and  C_25 
REMARK    6  A    between atoms: C_13  and  N_14 
REMARK       I    between atoms: N_14  and  C_15 
REMARK       I    between atoms: C_15  and  N_17 
REMARK    7  A    between atoms: N_17  and  C_18 
REMARK    8  A    between atoms: C_18  and  C_19 
ROOT
HETATM    1  C   UNL     1      -5.785 -13.997 -39.320  1.00  0.00     0.028 A 
HETATM    2  C   UNL     1      -7.168 -14.142 -39.490  1.00  0.00     0.033 A 
HETATM    3  C   UNL     1      -7.912 -13.177 -40.182  1.00  0.00    -0.022 A 
HETATM    4  C   UNL     1      -7.242 -12.064 -40.706  1.00  0.00     0.014 A 
HETATM    5  C   UNL     1      -5.863 -11.904 -40.524  1.00  0.00     0.032 A 
HETATM    6  C   UNL     1      -5.129 -12.855 -39.813  1.00  0.00     0.053 A 
ENDROOT
BRANCH   6   7
HETATM    7  N   UNL     1      -3.755 -12.683 -39.532  1.00  0.00    -0.308 N 
HETATM    8  C   UNL     1      -3.219 -12.398 -38.309  1.00  0.00     0.321 C 
HETATM    9  O   UNL     1      -3.858 -11.938 -37.368  1.00  0.00    -0.247 OA
HETATM   10  N   UNL     1      -1.876 -12.555 -38.192  1.00  0.00    -0.339 N 
HETATM   11  H   UNL     1      -1.563 -12.458 -37.232  1.00  0.00     0.164 HD
HETATM   12  H   UNL     1      -3.140 -12.673 -40.334  1.00  0.00     0.170 HD
BRANCH  10  13
HETATM   13  C   UNL     1      -0.997 -13.292 -39.080  1.00  0.00     0.162 C 
BRANCH  13  14
HETATM   14  C   UNL     1      -0.141 -14.273 -38.328  1.00  0.00    -0.040 A 
HETATM   15  C   UNL     1       1.176 -14.523 -38.739  1.00  0.00     0.009 A 
HETATM   16  C   UNL     1       1.977 -15.427 -38.042  1.00  0.00     0.001 A 
HETATM   17  C   UNL     1       1.473 -16.091 -36.925  1.00  0.00     0.000 A 
HETATM   18  C   UNL     1       0.169 -15.848 -36.501  1.00  0.00     0.001 A 
HETATM   19  C   UNL     1      -0.633 -14.940 -37.195  1.00  0.00     0.009 A 
ENDBRANCH  13  14
ENDBRANCH  10  13
ENDBRANCH   6   7
BRANCH   1  20
HETATM   20  S   UNL     1      -4.830 -15.352 -38.624  1.00  0.00    -0.126 SA
BRANCH  20  21
HETATM   21  C   UNL     1      -5.702 -15.548 -37.017  1.00  0.00     0.107 C 
BRANCH  21  22
HETATM   22  C   UNL     1      -5.042 -14.804 -35.842  1.00  0.00     0.244 C 
BRANCH  22  23
HETATM   23  N   UNL     1      -5.730 -13.490 -35.525  1.00  0.00    -0.078 N 
HETATM   24  C   UNL     1      -7.208 -13.504 -35.790  1.00  0.00     0.269 C 
HETATM   25  H   UNL     1      -5.306 -12.787 -36.147  1.00  0.00     0.279 HD
HETATM   26  C   UNL     1      -5.426 -13.017 -34.125  1.00  0.00     0.269 C 
ENDBRANCH  22  23
ENDBRANCH  21  22
ENDBRANCH  20  21
ENDBRANCH   1  20
BRANCH   3  27
HETATM   27  C   UNL     1      -9.347 -13.347 -40.349  1.00  0.00     0.010 A 
HETATM   28  C   UNL     1     -10.121 -14.515 -40.555  1.00  0.00     0.152 A 
HETATM   29  N   UNL     1     -11.423 -14.256 -40.695  1.00  0.00    -0.187 NA
HETATM   30  N   UNL     1     -11.499 -12.925 -40.547  1.00  0.00    -0.289 N 
HETATM   31  H   UNL     1     -12.414 -12.487 -40.597  1.00  0.00     0.188 HD
HETATM   32  C   UNL     1     -10.282 -12.333 -40.355  1.00  0.00     0.123 A 
ENDBRANCH   3  27
TORSDOF 8
ENDMDL
MODEL 3
REMARK VINA RESULT:      -8.1      2.445      7.985
REMARK  8 active torsions:
REMARK  status: ('A' for Active; 'I' for Inactive)
REMARK    1  A    between atoms: N_2  and  C_5 
REMARK    2  A    between atoms: C_5  and  C_6 
REMARK    3  A    between atoms: C_6  and  S_7 
REMARK    4  A    between atoms: S_7  and  C_8 
REMARK    5  A    between atoms: C_10  and  C_25 
REMARK    6  A    between atoms: C_13  and  N_14 
REMARK       I    between atoms: N_14  and  C_15 
REMARK       I    between atoms: C_15  and  N_17 
REMARK    7  A    between atoms: N_17  and  C_18 
REMARK    8  A    between atoms: C_18  and  C_19 
ROOT
HETATM    1  C   UNL     1      -8.026   2.092 -33.435  1.00  0.00     0.028 A 
HETATM    2  C   UNL     1      -9.346   2.535 -33.590  1.00  0.00     0.033 A 
HETATM    3  C   UNL     1     -10.423   1.656 -33.417  1.00  0.00    -0.022 A 
HETATM    4  C   UNL     1     -10.153   0.324 -33.079  1.00  0.00     0.014 A 
HETATM    5  C   UNL     1      -8.835  -0.130 -32.940  1.00  0.00     0.032 A 
HETATM    6  C   UNL     1      -7.764   0.742 -33.138  1.00  0.00     0.053 A 
ENDROOT
BRANCH   6   7
HETATM    7  N   UNL     1      -6.422   0.301 -33.095  1.00  0.00    -0.308 N 
HETATM    8  C   UNL     1      -5.811  -0.295 -32.030  1.00  0.00     0.321 C 
HETATM    9  O   UNL     1      -6.228  -0.240 -30.877  1.00  0.00    -0.247 OA
HETATM   10  N   UNL     1      -4.621  -0.899 -32.283  1.00  0.00    -0.339 N 
HETATM   11  H   UNL     1      -4.288  -1.434 -31.487  1.00  0.00     0.164 HD
HETATM   12  H   UNL     1      -5.853   0.547 -33.893  1.00  0.00     0.170 HD
BRANCH  10  13
HETATM   13  C   UNL     1      -4.084  -1.275 -33.576  1.00  0.00     0.162 C 
BRANCH  13  14
HETATM   14  C   UNL     1      -4.589  -2.620 -34.019  1.00  0.00    -0.040 A 
HETATM   15  C   UNL     1      -5.740  -2.717 -34.813  1.00  0.00     0.009 A 
HETATM   16  C   UNL     1      -6.209  -3.963 -35.232  1.00  0.00     0.001 A 
HETATM   17  C   UNL     1      -5.534  -5.125 -34.863  1.00  0.00     0.000 A 
HETATM   18  C   UNL     1      -4.386  -5.043 -34.079  1.00  0.00     0.001 A 
HETATM   19  C   UNL     1      -3.912  -3.798 -33.663  1.00  0.00     0.009 A 
ENDBRANCH  13  14
ENDBRANCH  10  13
ENDBRANCH   6   7
BRANCH   1  20
HETATM   20  S   UNL     1      -6.682   3.287 -33.447  1.00  0.00    -0.126 SA
BRANCH  20  21
HETATM   21  C   UNL     1      -6.352   3.394 -31.640  1.00  0.00     0.107 C 
BRANCH  21  22
HETATM   22  C   UNL     1      -5.427   4.554 -31.232  1.00  0.00     0.244 C 
BRANCH  22  23
HETATM   23  N   UNL     1      -4.029   4.086 -30.873  1.00  0.00    -0.078 N 
HETATM   24  C   UNL     1      -3.789   2.631 -31.156  1.00  0.00     0.269 C 
HETATM   25  H   UNL     1      -3.931   4.229 -29.857  1.00  0.00     0.279 HD
HETATM   26  C   UNL     1      -2.965   4.952 -31.499  1.00  0.00     0.269 C 
ENDBRANCH  22  23
ENDBRANCH  21  22
ENDBRANCH  20  21
ENDBRANCH   1  20
BRANCH   3  27
HETATM   27  C   UNL     1     -11.787   2.136 -33.581  1.00  0.00     0.010 A 
HETATM   28  C   UNL     1     -12.475   3.198 -32.945  1.00  0.00     0.152 A 
HETATM   29  N   UNL     1     -13.743   3.308 -33.346  1.00  0.00    -0.187 NA
HETATM   30  N   UNL     1     -13.869   2.340 -34.267  1.00  0.00    -0.289 N 
HETATM   31  H   UNL     1     -14.763   2.237 -34.737  1.00  0.00     0.188 HD
HETATM   32  C   UNL     1     -12.732   1.600 -34.431  1.00  0.00     0.123 A 
ENDBRANCH   3  27
TORSDOF 8
ENDMDL
MODEL 4
REMARK VINA RESULT:      -7.9      3.399      8.077
REMARK  8 active torsions:
REMARK  status: ('A' for Active; 'I' for Inactive)
REMARK    1  A    between atoms: N_2  and  C_5 
REMARK    2  A    between atoms: C_5  and  C_6 
REMARK    3  A    between atoms: C_6  and  S_7 
REMARK    4  A    between atoms: S_7  and  C_8 
REMARK    5  A    between atoms: C_10  and  C_25 
REMARK    6  A    between atoms: C_13  and  N_14 
REMARK       I    between atoms: N_14  and  C_15 
REMARK       I    between atoms: C_15  and  N_17 
REMARK    7  A    between atoms: N_17  and  C_18 
REMARK    8  A    between atoms: C_18  and  C_19 
ROOT
HETATM    1  C   UNL     1      -8.261   0.591 -32.894  1.00  0.00     0.028 A 
HETATM    2  C   UNL     1      -7.165  -0.257 -32.687  1.00  0.00     0.033 A 
HETATM    3  C   UNL     1      -6.478  -0.819 -33.772  1.00  0.00    -0.022 A 
HETATM    4  C   UNL     1      -6.907  -0.510 -35.069  1.00  0.00     0.014 A 
HETATM    5  C   UNL     1      -8.013   0.322 -35.281  1.00  0.00     0.032 A 
HETATM    6  C   UNL     1      -8.711   0.860 -34.199  1.00  0.00     0.053 A 
ENDROOT
BRANCH   6   7
HETATM    7  N   UNL     1      -9.884   1.628 -34.371  1.00  0.00    -0.308 N 
HETATM    8  C   UNL     1      -9.930   2.968 -34.628  1.00  0.00     0.321 C 
HETATM    9  O   UNL     1      -8.998   3.741 -34.427  1.00  0.00    -0.247 OA
HETATM   10  N   UNL     1     -11.127   3.458 -35.042  1.00  0.00    -0.339 N 
HETATM   11  H   UNL     1     -11.060   4.425 -35.343  1.00  0.00     0.164 HD
HETATM   12  H   UNL     1     -10.754   1.150 -34.185  1.00  0.00     0.170 HD
BRANCH  10  13
HETATM   13  C   UNL     1     -12.254   2.704 -35.558  1.00  0.00     0.162 C 
BRANCH  13  14
HETATM   14  C   UNL     1     -13.273   2.425 -34.488  1.00  0.00    -0.040 A 
HETATM   15  C   UNL     1     -13.436   3.315 -33.417  1.00  0.00     0.009 A 
HETATM   16  C   UNL     1     -14.385   3.064 -32.426  1.00  0.00     0.001 A 
HETATM   17  C   UNL     1     -15.182   1.924 -32.492  1.00  0.00     0.000 A 
HETATM   18  C   UNL     1     -15.035   1.033 -33.553  1.00  0.00     0.001 A 
HETATM   19  C   UNL     1     -14.089   1.284 -34.550  1.00  0.00     0.009 A 
ENDBRANCH  13  14
ENDBRANCH  10  13
ENDBRANCH   6   7
BRANCH   1  20
HETATM   20  S   UNL     1      -8.981   1.466 -31.497  1.00  0.00    -0.126 SA
BRANCH  20  21
HETATM   21  C   UNL     1      -7.678   2.737 -31.228  1.00  0.00     0.107 C 
BRANCH  21  22
HETATM   22  C   UNL     1      -7.140   2.800 -29.788  1.00  0.00     0.244 C 
BRANCH  22  23
HETATM   23  N   UNL     1      -5.756   2.194 -29.656  1.00  0.00    -0.078 N 
HETATM   24  C   UNL     1      -5.760   0.696 -29.566  1.00  0.00     0.269 C 
HETATM   25  H   UNL     1      -5.365   2.561 -28.775  1.00  0.00     0.279 HD
HETATM   26  C   UNL     1      -4.822   2.680 -30.736  1.00  0.00     0.269 C 
ENDBRANCH  22  23
ENDBRANCH  21  22
ENDBRANCH  20  21
ENDBRANCH   1  20
BRANCH   3  27
HETATM   27  C   UNL     1      -5.340  -1.695 -33.537  1.00  0.00     0.010 A 
HETATM   28  C   UNL     1      -4.316  -1.638 -32.560  1.00  0.00     0.152 A 
HETATM   29  N   UNL     1      -3.420  -2.617 -32.690  1.00  0.00    -0.187 NA
HETATM   30  N   UNL     1      -3.879  -3.331 -33.730  1.00  0.00    -0.289 N 
HETATM   31  H   UNL     1      -3.361  -4.157 -34.013  1.00  0.00     0.188 HD
HETATM   32  C   UNL     1      -5.016  -2.809 -34.282  1.00  0.00     0.123 A 
ENDBRANCH   3  27
TORSDOF 8
ENDMDL
MODEL 5
REMARK VINA RESULT:      -7.9      2.127      6.822
REMARK  8 active torsions:
REMARK  status: ('A' for Active; 'I' for Inactive)
REMARK    1  A    between atoms: N_2  and  C_5 
REMARK    2  A    between atoms: C_5  and  C_6 
REMARK    3  A    between atoms: C_6  and  S_7 
REMARK    4  A    between atoms: S_7  and  C_8 
REMARK    5  A    between atoms: C_10  and  C_25 
REMARK    6  A    between atoms: C_13  and  N_14 
REMARK       I    between atoms: N_14  and  C_15 
REMARK       I    between atoms: C_15  and  N_17 
REMARK    7  A    between atoms: N_17  and  C_18 
REMARK    8  A    between atoms: C_18  and  C_19 
ROOT
HETATM    1  C   UNL     1      -6.060   0.002 -32.537  1.00  0.00     0.028 A 
HETATM    2  C   UNL     1      -5.603  -1.292 -32.819  1.00  0.00     0.033 A 
HETATM    3  C   UNL     1      -5.919  -1.915 -34.034  1.00  0.00    -0.022 A 
HETATM    4  C   UNL     1      -6.697  -1.214 -34.964  1.00  0.00     0.014 A 
HETATM    5  C   UNL     1      -7.172   0.073 -34.680  1.00  0.00     0.032 A 
HETATM    6  C   UNL     1      -6.877   0.681 -33.459  1.00  0.00     0.053 A 
ENDROOT
BRANCH   6   7
HETATM    7  N   UNL     1      -7.412   1.938 -33.101  1.00  0.00    -0.308 N 
HETATM    8  C   UNL     1      -7.142   3.126 -33.717  1.00  0.00     0.321 C 
HETATM    9  O   UNL     1      -6.172   3.321 -34.441  1.00  0.00    -0.247 OA
HETATM   10  N   UNL     1      -7.967   4.160 -33.411  1.00  0.00    -0.339 N 
HETATM   11  H   UNL     1      -7.797   4.970 -33.999  1.00  0.00     0.164 HD
HETATM   12  H   UNL     1      -7.959   1.957 -32.251  1.00  0.00     0.170 HD
BRANCH  10  13
HETATM   13  C   UNL     1      -9.274   4.087 -32.786  1.00  0.00     0.162 C 
BRANCH  13  14
HETATM   14  C   UNL     1     -10.312   3.542 -33.727  1.00  0.00    -0.040 A 
HETATM   15  C   UNL     1     -10.709   4.285 -34.848  1.00  0.00     0.009 A 
HETATM   16  C   UNL     1     -11.667   3.781 -35.728  1.00  0.00     0.001 A 
HETATM   17  C   UNL     1     -12.239   2.531 -35.500  1.00  0.00     0.000 A 
HETATM   18  C   UNL     1     -11.851   1.780 -34.393  1.00  0.00     0.001 A 
HETATM   19  C   UNL     1     -10.888   2.280 -33.513  1.00  0.00     0.009 A 
ENDBRANCH  13  14
ENDBRANCH  10  13
ENDBRANCH   6   7
BRANCH   1  20
HETATM   20  S   UNL     1      -5.459   0.855 -31.071  1.00  0.00    -0.126 SA
BRANCH  20  21
HETATM   21  C   UNL     1      -3.733   1.200 -31.605  1.00  0.00     0.107 C 
BRANCH  21  22
HETATM   22  C   UNL     1      -3.534   2.582 -32.253  1.00  0.00     0.244 C 
BRANCH  22  23
HETATM   23  N   UNL     1      -3.282   3.674 -31.230  1.00  0.00    -0.078 N 
HETATM   24  C   UNL     1      -2.078   4.518 -31.533  1.00  0.00     0.269 C 
HETATM   25  H   UNL     1      -3.113   3.194 -30.334  1.00  0.00     0.279 HD
HETATM   26  C   UNL     1      -4.507   4.524 -30.999  1.00  0.00     0.269 C 
ENDBRANCH  22  23
ENDBRANCH  21  22
ENDBRANCH  20  21
ENDBRANCH   1  20
BRANCH   3  27
HETATM   27  C   UNL     1      -5.433  -3.258 -34.310  1.00  0.00     0.010 A 
HETATM   28  C   UNL     1      -6.080  -4.372 -34.900  1.00  0.00     0.152 A 
HETATM   29  N   UNL     1      -5.302  -5.455 -34.953  1.00  0.00    -0.187 NA
HETATM   30  N   UNL     1      -4.140  -5.036 -34.430  1.00  0.00    -0.289 N 
HETATM   31  H   UNL     1      -3.369  -5.696 -34.380  1.00  0.00     0.188 HD
HETATM   32  C   UNL     1      -4.173  -3.734 -34.014  1.00  0.00     0.123 A 
ENDBRANCH   3  27
TORSDOF 8
ENDMDL
MODEL 6
REMARK VINA RESULT:      -7.6      3.531      8.093
REMARK  8 active torsions:
REMARK  status: ('A' for Active; 'I' for Inactive)
REMARK    1  A    between atoms: N_2  and  C_5 
REMARK    2  A    between atoms: C_5  and  C_6 
REMARK    3  A    between atoms: C_6  and  S_7 
REMARK    4  A    between atoms: S_7  and  C_8 
REMARK    5  A    between atoms: C_10  and  C_25 
REMARK    6  A    between atoms: C_13  and  N_14 
REMARK       I    between atoms: N_14  and  C_15 
REMARK       I    between atoms: C_15  and  N_17 
REMARK    7  A    between atoms: N_17  and  C_18 
REMARK    8  A    between atoms: C_18  and  C_19 
ROOT
HETATM    1  C   UNL     1      -8.294   2.294 -32.548  1.00  0.00     0.028 A 
HETATM    2  C   UNL     1      -9.584   2.830 -32.656  1.00  0.00     0.033 A 
HETATM    3  C   UNL     1     -10.668   2.023 -33.030  1.00  0.00    -0.022 A 
HETATM    4  C   UNL     1     -10.435   0.667 -33.288  1.00  0.00     0.014 A 
HETATM    5  C   UNL     1      -9.145   0.129 -33.198  1.00  0.00     0.032 A 
HETATM    6  C   UNL     1      -8.064   0.940 -32.850  1.00  0.00     0.053 A 
ENDROOT
BRANCH   6   7
HETATM    7  N   UNL     1      -6.737   0.455 -32.838  1.00  0.00    -0.308 N 
HETATM    8  C   UNL     1      -6.155  -0.255 -31.827  1.00  0.00     0.321 C 
HETATM    9  O   UNL     1      -6.582  -0.292 -30.678  1.00  0.00    -0.247 OA
HETATM   10  N   UNL     1      -4.982  -0.870 -32.125  1.00  0.00    -0.339 N 
HETATM   11  H   UNL     1      -4.674  -1.486 -31.379  1.00  0.00     0.164 HD
HETATM   12  H   UNL     1      -6.152   0.754 -33.605  1.00  0.00     0.170 HD
BRANCH  10  13
HETATM   13  C   UNL     1      -4.444  -1.144 -33.443  1.00  0.00     0.162 C 
BRANCH  13  14
HETATM   14  C   UNL     1      -4.901  -2.478 -33.966  1.00  0.00    -0.040 A 
HETATM   15  C   UNL     1      -4.086  -3.610 -33.823  1.00  0.00     0.009 A 
HETATM   16  C   UNL     1      -4.508  -4.851 -34.300  1.00  0.00     0.001 A 
HETATM   17  C   UNL     1      -5.747  -4.977 -34.923  1.00  0.00     0.000 A 
HETATM   18  C   UNL     1      -6.570  -3.862 -35.068  1.00  0.00     0.001 A 
HETATM   19  C   UNL     1      -6.152  -2.619 -34.587  1.00  0.00     0.009 A 
ENDBRANCH  13  14
ENDBRANCH  10  13
ENDBRANCH   6   7
BRANCH   1  20
HETATM   20  S   UNL     1      -6.972   3.298 -31.856  1.00  0.00    -0.126 SA
BRANCH  20  21
HETATM   21  C   UNL     1      -7.452   3.256 -30.081  1.00  0.00     0.107 C 
BRANCH  21  22
HETATM   22  C   UNL     1      -7.644   4.644 -29.443  1.00  0.00     0.244 C 
BRANCH  22  23
HETATM   23  N   UNL     1      -7.245   5.773 -30.373  1.00  0.00    -0.078 N 
HETATM   24  C   UNL     1      -8.364   6.724 -30.683  1.00  0.00     0.269 C 
HETATM   25  H   UNL     1      -6.957   5.328 -31.257  1.00  0.00     0.279 HD
HETATM   26  C   UNL     1      -6.021   6.504 -29.881  1.00  0.00     0.269 C 
ENDBRANCH  22  23
ENDBRANCH  21  22
ENDBRANCH  20  21
ENDBRANCH   1  20
BRANCH   3  27
HETATM   27  C   UNL     1     -12.000   2.598 -33.135  1.00  0.00     0.010 A 
HETATM   28  C   UNL     1     -12.501   3.853 -32.709  1.00  0.00     0.152 A 
HETATM   29  N   UNL     1     -13.803   4.003 -32.960  1.00  0.00    -0.187 NA
HETATM   30  N   UNL     1     -14.141   2.861 -33.578  1.00  0.00    -0.289 N 
HETATM   31  H   UNL     1     -15.101   2.747 -33.889  1.00  0.00     0.188 HD
HETATM   32  C   UNL     1     -13.101   1.981 -33.692  1.00  0.00     0.123 A 
ENDBRANCH   3  27
TORSDOF 8
ENDMDL
MODEL 7
REMARK VINA RESULT:      -7.6     15.847     17.978
REMARK  8 active torsions:
REMARK  status: ('A' for Active; 'I' for Inactive)
REMARK    1  A    between atoms: N_2  and  C_5 
REMARK    2  A    between atoms: C_5  and  C_6 
REMARK    3  A    between atoms: C_6  and  S_7 
REMARK    4  A    between atoms: S_7  and  C_8 
REMARK    5  A    between atoms: C_10  and  C_25 
REMARK    6  A    between atoms: C_13  and  N_14 
REMARK       I    between atoms: N_14  and  C_15 
REMARK       I    between atoms: C_15  and  N_17 
REMARK    7  A    between atoms: N_17  and  C_18 
REMARK    8  A    between atoms: C_18  and  C_19 
ROOT
HETATM    1  C   UNL     1      -5.693 -14.119 -39.494  1.00  0.00     0.028 A 
HETATM    2  C   UNL     1      -7.076 -14.273 -39.659  1.00  0.00     0.033 A 
HETATM    3  C   UNL     1      -7.850 -13.252 -40.227  1.00  0.00    -0.022 A 
HETATM    4  C   UNL     1      -7.210 -12.074 -40.632  1.00  0.00     0.014 A 
HETATM    5  C   UNL     1      -5.831 -11.906 -40.454  1.00  0.00     0.032 A 
HETATM    6  C   UNL     1      -5.067 -12.916 -39.865  1.00  0.00     0.053 A 
ENDROOT
BRANCH   6   7
HETATM    7  N   UNL     1      -3.692 -12.748 -39.586  1.00  0.00    -0.308 N 
HETATM    8  C   UNL     1      -3.157 -12.430 -38.371  1.00  0.00     0.321 C 
HETATM    9  O   UNL     1      -3.794 -11.936 -37.445  1.00  0.00    -0.247 OA
HETATM   10  N   UNL     1      -1.815 -12.596 -38.246  1.00  0.00    -0.339 N 
HETATM   11  H   UNL     1      -1.503 -12.473 -37.288  1.00  0.00     0.164 HD
HETATM   12  H   UNL     1      -3.076 -12.767 -40.386  1.00  0.00     0.170 HD
BRANCH  10  13
HETATM   13  C   UNL     1      -0.941 -13.367 -39.108  1.00  0.00     0.162 C 
BRANCH  13  14
HETATM   14  C   UNL     1      -0.091 -14.328 -38.324  1.00  0.00    -0.040 A 
HETATM   15  C   UNL     1       1.222 -14.606 -38.731  1.00  0.00     0.009 A 
HETATM   16  C   UNL     1       2.017 -15.492 -38.003  1.00  0.00     0.001 A 
HETATM   17  C   UNL     1       1.511 -16.110 -36.861  1.00  0.00     0.000 A 
HETATM   18  C   UNL     1       0.210 -15.840 -36.442  1.00  0.00     0.001 A 
HETATM   19  C   UNL     1      -0.586 -14.949 -37.166  1.00  0.00     0.009 A 
ENDBRANCH  13  14
ENDBRANCH  10  13
ENDBRANCH   6   7
BRANCH   1  20
HETATM   20  S   UNL     1      -4.701 -15.524 -38.969  1.00  0.00    -0.126 SA
BRANCH  20  21
HETATM   21  C   UNL     1      -5.169 -16.734 -40.272  1.00  0.00     0.107 C 
BRANCH  21  22
HETATM   22  C   UNL     1      -4.211 -16.773 -41.476  1.00  0.00     0.244 C 
BRANCH  22  23
HETATM   23  N   UNL     1      -3.005 -15.872 -41.289  1.00  0.00    -0.078 N 
HETATM   24  C   UNL     1      -1.712 -16.620 -41.136  1.00  0.00     0.269 C 
HETATM   25  H   UNL     1      -3.170 -15.349 -40.417  1.00  0.00     0.279 HD
HETATM   26  C   UNL     1      -2.910 -14.823 -42.369  1.00  0.00     0.269 C 
ENDBRANCH  22  23
ENDBRANCH  21  22
ENDBRANCH  20  21
ENDBRANCH   1  20
BRANCH   3  27
HETATM   27  C   UNL     1      -9.284 -13.432 -40.392  1.00  0.00     0.010 A 
HETATM   28  C   UNL     1     -10.049 -14.605 -40.605  1.00  0.00     0.152 A 
HETATM   29  N   UNL     1     -11.353 -14.355 -40.740  1.00  0.00    -0.187 NA
HETATM   30  N   UNL     1     -11.440 -13.026 -40.582  1.00  0.00    -0.289 N 
HETATM   31  H   UNL     1     -12.357 -12.594 -40.626  1.00  0.00     0.188 HD
HETATM   32  C   UNL     1     -10.227 -12.425 -40.388  1.00  0.00     0.123 A 
ENDBRANCH   3  27
TORSDOF 8
ENDMDL
MODEL 8
REMARK VINA RESULT:      -7.5      3.204      8.125
REMARK  8 active torsions:
REMARK  status: ('A' for Active; 'I' for Inactive)
REMARK    1  A    between atoms: N_2  and  C_5 
REMARK    2  A    between atoms: C_5  and  C_6 
REMARK    3  A    between atoms: C_6  and  S_7 
REMARK    4  A    between atoms: S_7  and  C_8 
REMARK    5  A    between atoms: C_10  and  C_25 
REMARK    6  A    between atoms: C_13  and  N_14 
REMARK       I    between atoms: N_14  and  C_15 
REMARK       I    between atoms: C_15  and  N_17 
REMARK    7  A    between atoms: N_17  and  C_18 
REMARK    8  A    between atoms: C_18  and  C_19 
ROOT
HETATM    1  C   UNL     1      -6.912   2.418 -31.639  1.00  0.00     0.028 A 
HETATM    2  C   UNL     1      -7.670   3.378 -30.956  1.00  0.00     0.033 A 
HETATM    3  C   UNL     1      -7.064   4.265 -30.057  1.00  0.00    -0.022 A 
HETATM    4  C   UNL     1      -5.680   4.177 -29.859  1.00  0.00     0.014 A 
HETATM    5  C   UNL     1      -4.919   3.208 -30.525  1.00  0.00     0.032 A 
HETATM    6  C   UNL     1      -5.530   2.310 -31.401  1.00  0.00     0.053 A 
ENDROOT
BRANCH   6   7
HETATM    7  N   UNL     1      -4.811   1.263 -32.021  1.00  0.00    -0.308 N 
HETATM    8  C   UNL     1      -4.439   0.090 -31.430  1.00  0.00     0.321 C 
HETATM    9  O   UNL     1      -4.389  -0.084 -30.216  1.00  0.00    -0.247 OA
HETATM   10  N   UNL     1      -4.014  -0.893 -32.264  1.00  0.00    -0.339 N 
HETATM   11  H   UNL     1      -3.882  -1.775 -31.779  1.00  0.00     0.164 HD
HETATM   12  H   UNL     1      -4.463   1.458 -32.949  1.00  0.00     0.170 HD
BRANCH  10  13
HETATM   13  C   UNL     1      -4.214  -0.976 -33.698  1.00  0.00     0.162 C 
BRANCH  13  14
HETATM   14  C   UNL     1      -4.908  -2.251 -34.090  1.00  0.00    -0.040 A 
HETATM   15  C   UNL     1      -4.208  -3.466 -34.091  1.00  0.00     0.009 A 
HETATM   16  C   UNL     1      -4.848  -4.653 -34.447  1.00  0.00     0.001 A 
HETATM   17  C   UNL     1      -6.194  -4.641 -34.807  1.00  0.00     0.000 A 
HETATM   18  C   UNL     1      -6.904  -3.443 -34.806  1.00  0.00     0.001 A 
HETATM   19  C   UNL     1      -6.267  -2.254 -34.444  1.00  0.00     0.009 A 
ENDBRANCH  13  14
ENDBRANCH  10  13
ENDBRANCH   6   7
BRANCH   1  20
HETATM   20  S   UNL     1      -7.678   1.446 -32.944  1.00  0.00    -0.126 SA
BRANCH  20  21
HETATM   21  C   UNL     1      -8.948   2.648 -33.516  1.00  0.00     0.107 C 
BRANCH  21  22
HETATM   22  C   UNL     1     -10.302   2.014 -33.881  1.00  0.00     0.244 C 
BRANCH  22  23
HETATM   23  N   UNL     1     -11.371   2.284 -32.839  1.00  0.00    -0.078 N 
HETATM   24  C   UNL     1     -11.253   3.633 -32.189  1.00  0.00     0.269 C 
HETATM   25  H   UNL     1     -11.245   1.570 -32.107  1.00  0.00     0.279 HD
HETATM   26  C   UNL     1     -12.760   2.055 -33.382  1.00  0.00     0.269 C 
ENDBRANCH  22  23
ENDBRANCH  21  22
ENDBRANCH  20  21
ENDBRANCH   1  20
BRANCH   3  27
HETATM   27  C   UNL     1      -7.869   5.256 -29.359  1.00  0.00     0.010 A 
HETATM   28  C   UNL     1      -7.610   5.989 -28.174  1.00  0.00     0.152 A 
HETATM   29  N   UNL     1      -8.619   6.790 -27.830  1.00  0.00    -0.187 NA
HETATM   30  N   UNL     1      -9.520   6.604 -28.806  1.00  0.00    -0.289 N 
HETATM   31  H   UNL     1     -10.385   7.133 -28.770  1.00  0.00     0.188 HD
HETATM   32  C   UNL     1      -9.125   5.683 -29.736  1.00  0.00     0.123 A 
ENDBRANCH   3  27
TORSDOF 8
ENDMDL
MODEL 9
REMARK VINA RESULT:      -7.4      2.400      8.168
REMARK  8 active torsions:
REMARK  status: ('A' for Active; 'I' for Inactive)
REMARK    1  A    between atoms: N_2  and  C_5 
REMARK    2  A    between atoms: C_5  and  C_6 
REMARK    3  A    between atoms: C_6  and  S_7 
REMARK    4  A    between atoms: S_7  and  C_8 
REMARK    5  A    between atoms: C_10  and  C_25 
REMARK    6  A    between atoms: C_13  and  N_14 
REMARK       I    between atoms: N_14  and  C_15 
REMARK       I    between atoms: C_15  and  N_17 
REMARK    7  A    between atoms: N_17  and  C_18 
REMARK    8  A    between atoms: C_18  and  C_19 
ROOT
HETATM    1  C   UNL     1      -5.284   3.033 -32.628  1.00  0.00     0.028 A 
HETATM    2  C   UNL     1      -5.646   4.364 -32.382  1.00  0.00     0.033 A 
HETATM    3  C   UNL     1      -4.751   5.249 -31.766  1.00  0.00    -0.022 A 
HETATM    4  C   UNL     1      -3.483   4.776 -31.406  1.00  0.00     0.014 A 
HETATM    5  C   UNL     1      -3.121   3.442 -31.633  1.00  0.00     0.032 A 
HETATM    6  C   UNL     1      -4.024   2.557 -32.224  1.00  0.00     0.053 A 
ENDROOT
BRANCH   6   7
HETATM    7  N   UNL     1      -3.729   1.184 -32.387  1.00  0.00    -0.308 N 
HETATM    8  C   UNL     1      -4.194   0.169 -31.601  1.00  0.00     0.321 C 
HETATM    9  O   UNL     1      -4.657   0.326 -30.476  1.00  0.00    -0.247 OA
HETATM   10  N   UNL     1      -4.031  -1.088 -32.088  1.00  0.00    -0.339 N 
HETATM   11  H   UNL     1      -4.514  -1.781 -31.525  1.00  0.00     0.164 HD
HETATM   12  H   UNL     1      -3.033   0.964 -33.085  1.00  0.00     0.170 HD
BRANCH  10  13
HETATM   13  C   UNL     1      -3.736  -1.469 -33.456  1.00  0.00     0.162 C 
BRANCH  13  14
HETATM   14  C   UNL     1      -4.686  -2.521 -33.958  1.00  0.00    -0.040 A 
HETATM   15  C   UNL     1      -4.259  -3.849 -34.098  1.00  0.00     0.009 A 
HETATM   16  C   UNL     1      -5.138  -4.831 -34.557  1.00  0.00     0.001 A 
HETATM   17  C   UNL     1      -6.451  -4.498 -34.881  1.00  0.00     0.000 A 
HETATM   18  C   UNL     1      -6.890  -3.183 -34.743  1.00  0.00     0.001 A 
HETATM   19  C   UNL     1      -6.014  -2.200 -34.279  1.00  0.00     0.009 A 
ENDBRANCH  13  14
ENDBRANCH  10  13
ENDBRANCH   6   7
BRANCH   1  20
HETATM   20  S   UNL     1      -6.367   1.987 -33.613  1.00  0.00    -0.126 SA
BRANCH  20  21
HETATM   21  C   UNL     1      -7.567   1.480 -32.314  1.00  0.00     0.107 C 
BRANCH  21  22
HETATM   22  C   UNL     1      -8.864   2.307 -32.292  1.00  0.00     0.244 C 
BRANCH  22  23
HETATM   23  N   UNL     1     -10.106   1.445 -32.419  1.00  0.00    -0.078 N 
HETATM   24  C   UNL     1     -11.101   1.964 -33.416  1.00  0.00     0.269 C 
HETATM   25  H   UNL     1     -10.557   1.452 -31.492  1.00  0.00     0.279 HD
HETATM   26  C   UNL     1      -9.766  -0.001 -32.682  1.00  0.00     0.269 C 
ENDBRANCH  22  23
ENDBRANCH  21  22
ENDBRANCH  20  21
ENDBRANCH   1  20
BRANCH   3  27
HETATM   27  C   UNL     1      -5.145   6.627 -31.521  1.00  0.00     0.010 A 
HETATM   28  C   UNL     1      -6.415   7.252 -31.587  1.00  0.00     0.152 A 
HETATM   29  N   UNL     1      -6.365   8.558 -31.320  1.00  0.00    -0.187 NA
HETATM   30  N   UNL     1      -5.070   8.776 -31.047  1.00  0.00    -0.289 N 
HETATM   31  H   UNL     1      -4.784   9.716 -30.791  1.00  0.00     0.188 HD
HETATM   32  C   UNL     1      -4.296   7.656 -31.170  1.00  0.00     0.123 A 
ENDBRANCH   3  27
TORSDOF 8
ENDMDL
MODEL 10
REMARK VINA RESULT:      -7.4      4.163      7.122
REMARK  8 active torsions:
REMARK  status: ('A' for Active; 'I' for Inactive)
REMARK    1  A    between atoms: N_2  and  C_5 
REMARK    2  A    between atoms: C_5  and  C_6 
REMARK    3  A    between atoms: C_6  and  S_7 
REMARK    4  A    between atoms: S_7  and  C_8 
REMARK    5  A    between atoms: C_10  and  C_25 
REMARK    6  A    between atoms: C_13  and  N_14 
REMARK       I    between atoms: N_14  and  C_15 
REMARK       I    between atoms: C_15  and  N_17 
REMARK    7  A    between atoms: N_17  and  C_18 
REMARK    8  A    between atoms: C_18  and  C_19 
ROOT
HETATM    1  C   UNL     1      -7.825   2.397 -32.986  1.00  0.00     0.028 A 
HETATM    2  C   UNL     1      -9.098   2.694 -33.491  1.00  0.00     0.033 A 
HETATM    3  C   UNL     1     -10.034   1.676 -33.722  1.00  0.00    -0.022 A 
HETATM    4  C   UNL     1      -9.672   0.355 -33.430  1.00  0.00     0.014 A 
HETATM    5  C   UNL     1      -8.395   0.050 -32.942  1.00  0.00     0.032 A 
HETATM    6  C   UNL     1      -7.457   1.063 -32.737  1.00  0.00     0.053 A 
ENDROOT
BRANCH   6   7
HETATM    7  N   UNL     1      -6.132   0.785 -32.333  1.00  0.00    -0.308 N 
HETATM    8  C   UNL     1      -5.762   0.206 -31.153  1.00  0.00     0.321 C 
HETATM    9  O   UNL     1      -6.481   0.144 -30.161  1.00  0.00    -0.247 OA
HETATM   10  N   UNL     1      -4.479  -0.233 -31.078  1.00  0.00    -0.339 N 
HETATM   11  H   UNL     1      -4.309  -0.769 -30.233  1.00  0.00     0.164 HD
HETATM   12  H   UNL     1      -5.404   1.144 -32.934  1.00  0.00     0.170 HD
BRANCH  10  13
HETATM   13  C   UNL     1      -3.564  -0.466 -32.179  1.00  0.00     0.162 C 
BRANCH  13  14
HETATM   14  C   UNL     1      -3.729  -1.844 -32.758  1.00  0.00    -0.040 A 
HETATM   15  C   UNL     1      -4.449  -2.030 -33.947  1.00  0.00     0.009 A 
HETATM   16  C   UNL     1      -4.600  -3.305 -34.492  1.00  0.00     0.001 A 
HETATM   17  C   UNL     1      -4.034  -4.409 -33.857  1.00  0.00     0.000 A 
HETATM   18  C   UNL     1      -3.312  -4.239 -32.678  1.00  0.00     0.001 A 
HETATM   19  C   UNL     1      -3.155  -2.962 -32.133  1.00  0.00     0.009 A 
ENDBRANCH  13  14
ENDBRANCH  10  13
ENDBRANCH   6   7
BRANCH   1  20
HETATM   20  S   UNL     1      -6.731   3.738 -32.496  1.00  0.00    -0.126 SA
BRANCH  20  21
HETATM   21  C   UNL     1      -7.476   4.162 -30.868  1.00  0.00     0.107 C 
BRANCH  21  22
HETATM   22  C   UNL     1      -8.022   5.597 -30.774  1.00  0.00     0.244 C 
BRANCH  22  23
HETATM   23  N   UNL     1      -9.365   5.664 -30.071  1.00  0.00    -0.078 N 
HETATM   24  C   UNL     1      -9.621   6.974 -29.385  1.00  0.00     0.269 C 
HETATM   25  H   UNL     1      -9.347   4.929 -29.349  1.00  0.00     0.279 HD
HETATM   26  C   UNL     1     -10.502   5.291 -30.989  1.00  0.00     0.269 C 
ENDBRANCH  22  23
ENDBRANCH  21  22
ENDBRANCH  20  21
ENDBRANCH   1  20
BRANCH   3  27
HETATM   27  C   UNL     1     -11.351   2.005 -34.245  1.00  0.00     0.010 A 
HETATM   28  C   UNL     1     -12.385   1.170 -34.735  1.00  0.00     0.152 A 
HETATM   29  N   UNL     1     -13.447   1.856 -35.162  1.00  0.00    -0.187 NA
HETATM   30  N   UNL     1     -13.118   3.133 -34.918  1.00  0.00    -0.289 N 
HETATM   31  H   UNL     1     -13.792   3.857 -35.147  1.00  0.00     0.188 HD
HETATM   32  C   UNL     1     -11.867   3.276 -34.385  1.00  0.00     0.123 A 
ENDBRANCH   3  27
TORSDOF 8
ENDMDL
