MODEL 1
REMARK VINA RESULT:      -7.6      0.000      0.000
REMARK  4 active torsions:
REMARK  status: ('A' for Active; 'I' for Inactive)
REMARK    1  A    between atoms: C_2  and  N_3 
REMARK    2  A    between atoms: C_2  and  C_13 
REMARK       I    between atoms: N_3  and  C_4 
REMARK    3  A    between atoms: C_4  and  C_5 
REMARK    4  A    between atoms: C_6  and  C_7 
ROOT
HETATM    1  C   UNL     1      -7.504   3.156 -32.098  1.00  0.00     0.040 C 
HETATM    2  C   UNL     1      -6.976   3.087 -33.530  1.00  0.00     0.150 C 
ENDROOT
BRANCH   2   3
HETATM    3  N   UNL     1      -6.817   1.715 -33.967  1.00  0.00    -0.346 N 
HETATM    4  C   UNL     1      -7.858   0.986 -34.469  1.00  0.00     0.241 C 
HETATM    5  O   UNL     1      -8.987   1.430 -34.633  1.00  0.00    -0.269 OA
HETATM    6  H   UNL     1      -5.901   1.306 -33.811  1.00  0.00     0.163 HD
BRANCH   4   7
HETATM    7  C   UNL     1      -7.486  -0.412 -34.791  1.00  0.00     0.075 C 
HETATM    8  C   UNL     1      -6.479  -1.002 -34.126  1.00  0.00     0.017 C 
BRANCH   8   9
HETATM    9  C   UNL     1      -6.003  -2.338 -34.331  1.00  0.00    -0.029 A 
HETATM   10  C   UNL     1      -4.703  -2.695 -34.029  1.00  0.00     0.061 A 
HETATM   11  S   UNL     1      -4.379  -4.342 -34.365  1.00  0.00    -0.113 SA
HETATM   12  C   UNL     1      -5.978  -4.597 -34.912  1.00  0.00     0.050 A 
HETATM   13  C   UNL     1      -6.740  -3.450 -34.842  1.00  0.00     0.019 A 
ENDBRANCH   8   9
ENDBRANCH   4   7
ENDBRANCH   2   3
BRANCH   2  14
HETATM   14  C   UNL     1      -5.627   3.736 -33.625  1.00  0.00     0.127 A 
HETATM   15  N   UNL     1      -5.191   4.513 -34.601  1.00  0.00    -0.231 NA
HETATM   16  C   UNL     1      -3.904   4.849 -34.255  1.00  0.00     0.085 A 
HETATM   17  C   UNL     1      -3.550   4.276 -33.040  1.00  0.00     0.062 A 
HETATM   18  C   UNL     1      -2.971   5.646 -34.935  1.00  0.00     0.034 A 
HETATM   19  N   UNL     1      -4.667   3.580 -32.655  1.00  0.00    -0.341 N 
HETATM   20  C   UNL     1      -2.297   4.447 -32.447  1.00  0.00     0.032 A 
HETATM   21  H   UNL     1      -4.763   3.041 -31.807  1.00  0.00     0.167 HD
HETATM   22  C   UNL     1      -1.377   5.243 -33.142  1.00  0.00     0.002 A 
HETATM   23  C   UNL     1      -1.706   5.833 -34.365  1.00  0.00     0.002 A 
ENDBRANCH   2  14
TORSDOF 4
ENDMDL
MODEL 2
REMARK VINA RESULT:      -7.4      4.240      7.382
REMARK  4 active torsions:
REMARK  status: ('A' for Active; 'I' for Inactive)
REMARK    1  A    between atoms: C_2  and  N_3 
REMARK    2  A    between atoms: C_2  and  C_13 
REMARK       I    between atoms: N_3  and  C_4 
REMARK    3  A    between atoms: C_4  and  C_5 
REMARK    4  A    between atoms: C_6  and  C_7 
ROOT
HETATM    1  C   UNL     1      -5.838   1.501 -32.658  1.00  0.00     0.040 C 
HETATM    2  C   UNL     1      -6.673   0.913 -33.794  1.00  0.00     0.150 C 
ENDROOT
BRANCH   2   3
HETATM    3  N   UNL     1      -8.087   0.945 -33.480  1.00  0.00    -0.346 N 
HETATM    4  C   UNL     1      -8.846   2.068 -33.654  1.00  0.00     0.241 C 
HETATM    5  O   UNL     1      -8.420   3.115 -34.123  1.00  0.00    -0.269 OA
HETATM    6  H   UNL     1      -8.463   0.103 -33.055  1.00  0.00     0.163 HD
BRANCH   4   7
HETATM    7  C   UNL     1     -10.249   1.895 -33.207  1.00  0.00     0.075 C 
HETATM    8  C   UNL     1     -11.217   1.702 -34.118  1.00  0.00     0.017 C 
BRANCH   8   9
HETATM    9  C   UNL     1     -12.612   1.527 -33.840  1.00  0.00    -0.029 A 
HETATM   10  C   UNL     1     -13.296   2.388 -33.004  1.00  0.00     0.061 A 
HETATM   11  S   UNL     1     -14.945   1.966 -32.832  1.00  0.00    -0.113 SA
HETATM   12  C   UNL     1     -14.765   0.628 -33.880  1.00  0.00     0.050 A 
HETATM   13  C   UNL     1     -13.474   0.505 -34.348  1.00  0.00     0.019 A 
ENDBRANCH   8   9
ENDBRANCH   4   7
ENDBRANCH   2   3
BRANCH   2  14
HETATM   14  C   UNL     1      -6.309  -0.523 -34.028  1.00  0.00     0.127 A 
HETATM   15  N   UNL     1      -7.078  -1.457 -34.561  1.00  0.00    -0.231 NA
HETATM   16  C   UNL     1      -6.321  -2.603 -34.553  1.00  0.00     0.085 A 
HETATM   17  C   UNL     1      -5.062  -2.365 -34.014  1.00  0.00     0.062 A 
HETATM   18  C   UNL     1      -6.645  -3.896 -34.991  1.00  0.00     0.034 A 
HETATM   19  N   UNL     1      -5.076  -1.031 -33.697  1.00  0.00    -0.341 N 
HETATM   20  C   UNL     1      -4.085  -3.354 -33.880  1.00  0.00     0.032 A 
HETATM   21  H   UNL     1      -4.314  -0.514 -33.284  1.00  0.00     0.167 HD
HETATM   22  C   UNL     1      -4.428  -4.639 -34.320  1.00  0.00     0.002 A 
HETATM   23  C   UNL     1      -5.685  -4.908 -34.866  1.00  0.00     0.002 A 
ENDBRANCH   2  14
TORSDOF 4
ENDMDL
MODEL 3
REMARK VINA RESULT:      -7.4      4.082      7.124
REMARK  4 active torsions:
REMARK  status: ('A' for Active; 'I' for Inactive)
REMARK    1  A    between atoms: C_2  and  N_3 
REMARK    2  A    between atoms: C_2  and  C_13 
REMARK       I    between atoms: N_3  and  C_4 
REMARK    3  A    between atoms: C_4  and  C_5 
REMARK    4  A    between atoms: C_6  and  C_7 
ROOT
HETATM    1  C   UNL     1      -9.055   3.785 -33.987  1.00  0.00     0.040 C 
HETATM    2  C   UNL     1      -9.456   2.755 -32.933  1.00  0.00     0.150 C 
ENDROOT
BRANCH   2   3
HETATM    3  N   UNL     1      -8.622   1.573 -33.008  1.00  0.00    -0.346 N 
HETATM    4  C   UNL     1      -7.797   1.198 -31.985  1.00  0.00     0.241 C 
HETATM    5  O   UNL     1      -7.722   1.789 -30.916  1.00  0.00    -0.269 OA
HETATM    6  H   UNL     1      -8.634   1.080 -33.895  1.00  0.00     0.163 HD
BRANCH   4   7
HETATM    7  C   UNL     1      -6.989  -0.003 -32.302  1.00  0.00     0.075 C 
HETATM    8  C   UNL     1      -7.088  -0.570 -33.515  1.00  0.00     0.017 C 
BRANCH   8   9
HETATM    9  C   UNL     1      -6.379  -1.732 -33.963  1.00  0.00    -0.029 A 
HETATM   10  C   UNL     1      -5.014  -1.858 -33.788  1.00  0.00     0.061 A 
HETATM   11  S   UNL     1      -4.405  -3.331 -34.410  1.00  0.00    -0.113 SA
HETATM   12  C   UNL     1      -5.962  -3.821 -34.915  1.00  0.00     0.050 A 
HETATM   13  C   UNL     1      -6.925  -2.879 -34.619  1.00  0.00     0.019 A 
ENDBRANCH   8   9
ENDBRANCH   4   7
ENDBRANCH   2   3
BRANCH   2  14
HETATM   14  C   UNL     1     -10.871   2.307 -33.146  1.00  0.00     0.127 A 
HETATM   15  N   UNL     1     -11.283   1.357 -33.968  1.00  0.00    -0.231 NA
HETATM   16  C   UNL     1     -12.650   1.320 -33.829  1.00  0.00     0.085 A 
HETATM   17  C   UNL     1     -13.081   2.257 -32.897  1.00  0.00     0.062 A 
HETATM   18  C   UNL     1     -13.596   0.507 -34.472  1.00  0.00     0.034 A 
HETATM   19  N   UNL     1     -11.928   2.864 -32.470  1.00  0.00    -0.341 N 
HETATM   20  C   UNL     1     -14.423   2.440 -32.558  1.00  0.00     0.032 A 
HETATM   21  H   UNL     1     -11.869   3.601 -31.782  1.00  0.00     0.167 HD
HETATM   22  C   UNL     1     -15.353   1.622 -33.212  1.00  0.00     0.002 A 
HETATM   23  C   UNL     1     -14.949   0.672 -34.152  1.00  0.00     0.002 A 
ENDBRANCH   2  14
TORSDOF 4
ENDMDL
MODEL 4
REMARK VINA RESULT:      -7.4      2.986      7.548
REMARK  4 active torsions:
REMARK  status: ('A' for Active; 'I' for Inactive)
REMARK    1  A    between atoms: C_2  and  N_3 
REMARK    2  A    between atoms: C_2  and  C_13 
REMARK       I    between atoms: N_3  and  C_4 
REMARK    3  A    between atoms: C_4  and  C_5 
REMARK    4  A    between atoms: C_6  and  C_7 
ROOT
HETATM    1  C   UNL     1      -7.349   0.969 -35.050  1.00  0.00     0.040 C 
HETATM    2  C   UNL     1      -6.787   0.421 -33.740  1.00  0.00     0.150 C 
ENDROOT
BRANCH   2   3
HETATM    3  N   UNL     1      -5.686   1.231 -33.260  1.00  0.00    -0.346 N 
HETATM    4  C   UNL     1      -5.730   1.879 -32.058  1.00  0.00     0.241 C 
HETATM    5  O   UNL     1      -6.667   1.800 -31.273  1.00  0.00    -0.269 OA
HETATM    6  H   UNL     1      -4.909   1.346 -33.903  1.00  0.00     0.163 HD
BRANCH   4   7
HETATM    7  C   UNL     1      -4.525   2.701 -31.797  1.00  0.00     0.075 C 
HETATM    8  C   UNL     1      -3.959   3.388 -32.802  1.00  0.00     0.017 C 
BRANCH   8   9
HETATM    9  C   UNL     1      -2.793   4.216 -32.706  1.00  0.00    -0.029 A 
HETATM   10  C   UNL     1      -2.196   4.483 -31.489  1.00  0.00     0.061 A 
HETATM   11  S   UNL     1      -0.825   5.496 -31.639  1.00  0.00    -0.113 SA
HETATM   12  C   UNL     1      -1.011   5.584 -33.335  1.00  0.00     0.050 A 
HETATM   13  C   UNL     1      -2.097   4.858 -33.776  1.00  0.00     0.019 A 
ENDBRANCH   8   9
ENDBRANCH   4   7
ENDBRANCH   2   3
BRANCH   2  14
HETATM   14  C   UNL     1      -6.255  -0.968 -33.936  1.00  0.00     0.127 A 
HETATM   15  N   UNL     1      -6.864  -1.967 -34.551  1.00  0.00    -0.231 NA
HETATM   16  C   UNL     1      -5.999  -3.032 -34.463  1.00  0.00     0.085 A 
HETATM   17  C   UNL     1      -4.836  -2.675 -33.792  1.00  0.00     0.062 A 
HETATM   18  C   UNL     1      -6.142  -4.345 -34.937  1.00  0.00     0.034 A 
HETATM   19  N   UNL     1      -5.020  -1.353 -33.476  1.00  0.00    -0.341 N 
HETATM   20  C   UNL     1      -3.784  -3.562 -33.556  1.00  0.00     0.032 A 
HETATM   21  H   UNL     1      -4.362  -0.767 -32.983  1.00  0.00     0.167 HD
HETATM   22  C   UNL     1      -3.945  -4.869 -34.033  1.00  0.00     0.002 A 
HETATM   23  C   UNL     1      -5.103  -5.256 -34.712  1.00  0.00     0.002 A 
ENDBRANCH   2  14
TORSDOF 4
ENDMDL
MODEL 5
REMARK VINA RESULT:      -7.3      3.100      7.751
REMARK  4 active torsions:
REMARK  status: ('A' for Active; 'I' for Inactive)
REMARK    1  A    between atoms: C_2  and  N_3 
REMARK    2  A    between atoms: C_2  and  C_13 
REMARK       I    between atoms: N_3  and  C_4 
REMARK    3  A    between atoms: C_4  and  C_5 
REMARK    4  A    between atoms: C_6  and  C_7 
ROOT
HETATM    1  C   UNL     1      -7.572   0.890 -35.004  1.00  0.00     0.040 C 
HETATM    2  C   UNL     1      -6.796   0.530 -33.739  1.00  0.00     0.150 C 
ENDROOT
BRANCH   2   3
HETATM    3  N   UNL     1      -5.706   1.456 -33.508  1.00  0.00    -0.346 N 
HETATM    4  C   UNL     1      -5.889   2.649 -32.868  1.00  0.00     0.241 C 
HETATM    5  O   UNL     1      -6.959   3.019 -32.402  1.00  0.00    -0.269 OA
HETATM    6  H   UNL     1      -4.813   1.196 -33.913  1.00  0.00     0.163 HD
BRANCH   4   7
HETATM    7  C   UNL     1      -4.654   3.466 -32.799  1.00  0.00     0.075 C 
HETATM    8  C   UNL     1      -4.411   4.384 -33.748  1.00  0.00     0.017 C 
BRANCH   8   9
HETATM    9  C   UNL     1      -3.263   5.239 -33.819  1.00  0.00    -0.029 A 
HETATM   10  C   UNL     1      -3.191   6.414 -33.095  1.00  0.00     0.061 A 
HETATM   11  S   UNL     1      -1.724   7.256 -33.353  1.00  0.00    -0.113 SA
HETATM   12  C   UNL     1      -1.164   6.055 -34.432  1.00  0.00     0.050 A 
HETATM   13  C   UNL     1      -2.079   5.035 -34.594  1.00  0.00     0.019 A 
ENDBRANCH   8   9
ENDBRANCH   4   7
ENDBRANCH   2   3
BRANCH   2  14
HETATM   14  C   UNL     1      -6.190  -0.837 -33.863  1.00  0.00     0.127 A 
HETATM   15  N   UNL     1      -5.006  -1.220 -33.417  1.00  0.00    -0.231 NA
HETATM   16  C   UNL     1      -4.888  -2.541 -33.778  1.00  0.00     0.085 A 
HETATM   17  C   UNL     1      -6.025  -2.976 -34.448  1.00  0.00     0.062 A 
HETATM   18  C   UNL     1      -3.831  -3.437 -33.567  1.00  0.00     0.034 A 
HETATM   19  N   UNL     1      -6.842  -1.876 -34.480  1.00  0.00    -0.341 N 
HETATM   20  C   UNL     1      -6.178  -4.277 -34.933  1.00  0.00     0.032 A 
HETATM   21  H   UNL     1      -7.763  -1.836 -34.894  1.00  0.00     0.167 HD
HETATM   22  C   UNL     1      -5.111  -5.158 -34.716  1.00  0.00     0.002 A 
HETATM   23  C   UNL     1      -3.957  -4.748 -34.045  1.00  0.00     0.002 A 
ENDBRANCH   2  14
TORSDOF 4
ENDMDL
MODEL 6
REMARK VINA RESULT:      -7.3      1.313      1.448
REMARK  4 active torsions:
REMARK  status: ('A' for Active; 'I' for Inactive)
REMARK    1  A    between atoms: C_2  and  N_3 
REMARK    2  A    between atoms: C_2  and  C_13 
REMARK       I    between atoms: N_3  and  C_4 
REMARK    3  A    between atoms: C_4  and  C_5 
REMARK    4  A    between atoms: C_6  and  C_7 
ROOT
HETATM    1  C   UNL     1      -5.815   3.080 -29.885  1.00  0.00     0.040 C 
HETATM    2  C   UNL     1      -5.947   2.861 -31.391  1.00  0.00     0.150 C 
ENDROOT
BRANCH   2   3
HETATM    3  N   UNL     1      -5.846   1.457 -31.730  1.00  0.00    -0.346 N 
HETATM    4  C   UNL     1      -6.670   0.869 -32.649  1.00  0.00     0.241 C 
HETATM    5  O   UNL     1      -7.522   1.473 -33.288  1.00  0.00    -0.269 OA
HETATM    6  H   UNL     1      -5.174   0.920 -31.192  1.00  0.00     0.163 HD
BRANCH   4   7
HETATM    7  C   UNL     1      -6.435  -0.587 -32.792  1.00  0.00     0.075 C 
HETATM    8  C   UNL     1      -6.065  -1.086 -33.982  1.00  0.00     0.017 C 
BRANCH   8   9
HETATM    9  C   UNL     1      -5.810  -2.466 -34.275  1.00  0.00    -0.029 A 
HETATM   10  C   UNL     1      -4.574  -3.037 -34.042  1.00  0.00     0.061 A 
HETATM   11  S   UNL     1      -4.522  -4.691 -34.476  1.00  0.00    -0.113 SA
HETATM   12  C   UNL     1      -6.156  -4.664 -34.975  1.00  0.00     0.050 A 
HETATM   13  C   UNL     1      -6.727  -3.419 -34.817  1.00  0.00     0.019 A 
ENDBRANCH   8   9
ENDBRANCH   4   7
ENDBRANCH   2   3
BRANCH   2  14
HETATM   14  C   UNL     1      -4.846   3.569 -32.124  1.00  0.00     0.127 A 
HETATM   15  N   UNL     1      -4.899   4.052 -33.353  1.00  0.00    -0.231 NA
HETATM   16  C   UNL     1      -3.656   4.590 -33.589  1.00  0.00     0.085 A 
HETATM   17  C   UNL     1      -2.832   4.443 -32.480  1.00  0.00     0.062 A 
HETATM   18  C   UNL     1      -3.157   5.225 -34.736  1.00  0.00     0.034 A 
HETATM   19  N   UNL     1      -3.616   3.799 -31.558  1.00  0.00    -0.341 N 
HETATM   20  C   UNL     1      -1.511   4.895 -32.441  1.00  0.00     0.032 A 
HETATM   21  H   UNL     1      -3.334   3.533 -30.626  1.00  0.00     0.167 HD
HETATM   22  C   UNL     1      -1.028   5.523 -33.595  1.00  0.00     0.002 A 
HETATM   23  C   UNL     1      -1.834   5.687 -34.724  1.00  0.00     0.002 A 
ENDBRANCH   2  14
TORSDOF 4
ENDMDL
MODEL 7
REMARK VINA RESULT:      -7.3      3.926      7.144
REMARK  4 active torsions:
REMARK  status: ('A' for Active; 'I' for Inactive)
REMARK    1  A    between atoms: C_2  and  N_3 
REMARK    2  A    between atoms: C_2  and  C_13 
REMARK       I    between atoms: N_3  and  C_4 
REMARK    3  A    between atoms: C_4  and  C_5 
REMARK    4  A    between atoms: C_6  and  C_7 
ROOT
HETATM    1  C   UNL     1      -5.070   1.020 -31.648  1.00  0.00     0.040 C 
HETATM    2  C   UNL     1      -5.504   0.838 -33.101  1.00  0.00     0.150 C 
ENDROOT
BRANCH   2   3
HETATM    3  N   UNL     1      -6.877   1.254 -33.296  1.00  0.00    -0.346 N 
HETATM    4  C   UNL     1      -7.201   2.475 -33.820  1.00  0.00     0.241 C 
HETATM    5  O   UNL     1      -6.376   3.294 -34.204  1.00  0.00    -0.269 OA
HETATM    6  H   UNL     1      -7.586   0.613 -32.955  1.00  0.00     0.163 HD
BRANCH   4   7
HETATM    7  C   UNL     1      -8.662   2.716 -33.870  1.00  0.00     0.075 C 
HETATM    8  C   UNL     1      -9.490   1.711 -34.198  1.00  0.00     0.017 C 
BRANCH   8   9
HETATM    9  C   UNL     1     -10.918   1.793 -34.294  1.00  0.00    -0.029 A 
HETATM   10  C   UNL     1     -11.738   0.877 -33.665  1.00  0.00     0.061 A 
HETATM   11  S   UNL     1     -13.400   1.189 -33.934  1.00  0.00    -0.113 SA
HETATM   12  C   UNL     1     -13.040   2.558 -34.892  1.00  0.00     0.050 A 
HETATM   13  C   UNL     1     -11.682   2.770 -35.006  1.00  0.00     0.019 A 
ENDBRANCH   8   9
ENDBRANCH   4   7
ENDBRANCH   2   3
BRANCH   2  14
HETATM   14  C   UNL     1      -5.423  -0.605 -33.498  1.00  0.00     0.127 A 
HETATM   15  N   UNL     1      -4.387  -1.412 -33.340  1.00  0.00    -0.231 NA
HETATM   16  C   UNL     1      -4.779  -2.619 -33.866  1.00  0.00     0.085 A 
HETATM   17  C   UNL     1      -6.082  -2.554 -34.344  1.00  0.00     0.062 A 
HETATM   18  C   UNL     1      -4.069  -3.825 -33.971  1.00  0.00     0.034 A 
HETATM   19  N   UNL     1      -6.473  -1.265 -34.089  1.00  0.00    -0.341 N 
HETATM   20  C   UNL     1      -6.737  -3.637 -34.935  1.00  0.00     0.032 A 
HETATM   21  H   UNL     1      -7.375  -0.868 -34.306  1.00  0.00     0.167 HD
HETATM   22  C   UNL     1      -6.013  -4.831 -35.034  1.00  0.00     0.002 A 
HETATM   23  C   UNL     1      -4.702  -4.926 -34.561  1.00  0.00     0.002 A 
ENDBRANCH   2  14
TORSDOF 4
ENDMDL
MODEL 8
REMARK VINA RESULT:      -7.1      2.320      3.061
REMARK  4 active torsions:
REMARK  status: ('A' for Active; 'I' for Inactive)
REMARK    1  A    between atoms: C_2  and  N_3 
REMARK    2  A    between atoms: C_2  and  C_13 
REMARK       I    between atoms: N_3  and  C_4 
REMARK    3  A    between atoms: C_4  and  C_5 
REMARK    4  A    between atoms: C_6  and  C_7 
ROOT
HETATM    1  C   UNL     1      -5.762   4.346 -29.983  1.00  0.00     0.040 C 
HETATM    2  C   UNL     1      -5.007   4.230 -31.306  1.00  0.00     0.150 C 
ENDROOT
BRANCH   2   3
HETATM    3  N   UNL     1      -4.832   2.845 -31.692  1.00  0.00    -0.346 N 
HETATM    4  C   UNL     1      -5.595   2.258 -32.662  1.00  0.00     0.241 C 
HETATM    5  O   UNL     1      -6.450   2.849 -33.310  1.00  0.00    -0.269 OA
HETATM    6  H   UNL     1      -4.156   2.318 -31.149  1.00  0.00     0.163 HD
BRANCH   4   7
HETATM    7  C   UNL     1      -5.291   0.820 -32.849  1.00  0.00     0.075 C 
HETATM    8  C   UNL     1      -5.908   0.132 -33.823  1.00  0.00     0.017 C 
BRANCH   8   9
HETATM    9  C   UNL     1      -5.723  -1.258 -34.120  1.00  0.00    -0.029 A 
HETATM   10  C   UNL     1      -4.501  -1.878 -33.946  1.00  0.00     0.061 A 
HETATM   11  S   UNL     1      -4.537  -3.535 -34.372  1.00  0.00    -0.113 SA
HETATM   12  C   UNL     1      -6.192  -3.444 -34.789  1.00  0.00     0.050 A 
HETATM   13  C   UNL     1      -6.703  -2.176 -34.610  1.00  0.00     0.019 A 
ENDBRANCH   8   9
ENDBRANCH   4   7
ENDBRANCH   2   3
BRANCH   2  14
HETATM   14  C   UNL     1      -3.636   4.827 -31.184  1.00  0.00     0.127 A 
HETATM   15  N   UNL     1      -2.541   4.423 -31.804  1.00  0.00    -0.231 NA
HETATM   16  C   UNL     1      -1.542   5.260 -31.366  1.00  0.00     0.085 A 
HETATM   17  C   UNL     1      -2.038   6.199 -30.469  1.00  0.00     0.062 A 
HETATM   18  C   UNL     1      -0.178   5.277 -31.693  1.00  0.00     0.034 A 
HETATM   19  N   UNL     1      -3.374   5.908 -30.378  1.00  0.00    -0.341 N 
HETATM   20  C   UNL     1      -1.243   7.174 -29.862  1.00  0.00     0.032 A 
HETATM   21  H   UNL     1      -4.049   6.400 -29.810  1.00  0.00     0.167 HD
HETATM   22  C   UNL     1       0.117   7.174 -30.197  1.00  0.00     0.002 A 
HETATM   23  C   UNL     1       0.643   6.243 -31.097  1.00  0.00     0.002 A 
ENDBRANCH   2  14
TORSDOF 4
ENDMDL
MODEL 9
REMARK VINA RESULT:      -6.8      2.966      5.474
REMARK  4 active torsions:
REMARK  status: ('A' for Active; 'I' for Inactive)
REMARK    1  A    between atoms: C_2  and  N_3 
REMARK    2  A    between atoms: C_2  and  C_13 
REMARK       I    between atoms: N_3  and  C_4 
REMARK    3  A    between atoms: C_4  and  C_5 
REMARK    4  A    between atoms: C_6  and  C_7 
ROOT
HETATM    1  C   UNL     1      -6.137   3.615 -34.074  1.00  0.00     0.040 C 
HETATM    2  C   UNL     1      -7.181   2.888 -33.228  1.00  0.00     0.150 C 
ENDROOT
BRANCH   2   3
HETATM    3  N   UNL     1      -6.962   1.456 -33.236  1.00  0.00    -0.346 N 
HETATM    4  C   UNL     1      -6.129   0.842 -32.343  1.00  0.00     0.241 C 
HETATM    5  O   UNL     1      -5.539   1.428 -31.445  1.00  0.00    -0.269 OA
HETATM    6  H   UNL     1      -7.408   0.946 -33.992  1.00  0.00     0.163 HD
BRANCH   4   7
HETATM    7  C   UNL     1      -6.003  -0.616 -32.575  1.00  0.00     0.075 C 
HETATM    8  C   UNL     1      -5.802  -1.075 -33.821  1.00  0.00     0.017 C 
BRANCH   8   9
HETATM    9  C   UNL     1      -5.668  -2.451 -34.200  1.00  0.00    -0.029 A 
HETATM   10  C   UNL     1      -4.510  -3.161 -33.945  1.00  0.00     0.061 A 
HETATM   11  S   UNL     1      -4.597  -4.779 -34.496  1.00  0.00    -0.113 SA
HETATM   12  C   UNL     1      -6.188  -4.550 -35.077  1.00  0.00     0.050 A 
HETATM   13  C   UNL     1      -6.641  -3.266 -34.858  1.00  0.00     0.019 A 
ENDBRANCH   8   9
ENDBRANCH   4   7
ENDBRANCH   2   3
BRANCH   2  14
HETATM   14  C   UNL     1      -8.558   3.123 -33.774  1.00  0.00     0.127 A 
HETATM   15  N   UNL     1      -9.068   4.280 -34.160  1.00  0.00    -0.231 NA
HETATM   16  C   UNL     1     -10.350   3.998 -34.566  1.00  0.00     0.085 A 
HETATM   17  C   UNL     1     -10.626   2.643 -34.435  1.00  0.00     0.062 A 
HETATM   18  C   UNL     1     -11.344   4.856 -35.060  1.00  0.00     0.034 A 
HETATM   19  N   UNL     1      -9.466   2.106 -33.939  1.00  0.00    -0.341 N 
HETATM   20  C   UNL     1     -11.857   2.075 -34.771  1.00  0.00     0.032 A 
HETATM   21  H   UNL     1      -9.310   1.132 -33.725  1.00  0.00     0.167 HD
HETATM   22  C   UNL     1     -12.839   2.947 -35.260  1.00  0.00     0.002 A 
HETATM   23  C   UNL     1     -12.589   4.314 -35.402  1.00  0.00     0.002 A 
ENDBRANCH   2  14
TORSDOF 4
ENDMDL
MODEL 10
REMARK VINA RESULT:      -6.6      3.781      5.613
REMARK  4 active torsions:
REMARK  status: ('A' for Active; 'I' for Inactive)
REMARK    1  A    between atoms: C_2  and  N_3 
REMARK    2  A    between atoms: C_2  and  C_13 
REMARK       I    between atoms: N_3  and  C_4 
REMARK    3  A    between atoms: C_4  and  C_5 
REMARK    4  A    between atoms: C_6  and  C_7 
ROOT
HETATM    1  C   UNL     1      -1.664   5.371 -34.581  1.00  0.00     0.040 C 
HETATM    2  C   UNL     1      -1.861   4.485 -33.353  1.00  0.00     0.150 C 
ENDROOT
BRANCH   2   3
HETATM    3  N   UNL     1      -3.267   4.239 -33.101  1.00  0.00    -0.346 N 
HETATM    4  C   UNL     1      -3.704   3.120 -32.450  1.00  0.00     0.241 C 
HETATM    5  O   UNL     1      -2.962   2.262 -31.990  1.00  0.00    -0.269 OA
HETATM    6  H   UNL     1      -3.911   4.913 -33.501  1.00  0.00     0.163 HD
BRANCH   4   7
HETATM    7  C   UNL     1      -5.182   3.042 -32.360  1.00  0.00     0.075 C 
HETATM    8  C   UNL     1      -5.788   1.845 -32.422  1.00  0.00     0.017 C 
BRANCH   8   9
HETATM    9  C   UNL     1      -7.201   1.612 -32.357  1.00  0.00    -0.029 A 
HETATM   10  C   UNL     1      -8.111   2.634 -32.541  1.00  0.00     0.061 A 
HETATM   11  S   UNL     1      -9.732   2.102 -32.412  1.00  0.00    -0.113 SA
HETATM   12  C   UNL     1      -9.235   0.495 -32.113  1.00  0.00     0.050 A 
HETATM   13  C   UNL     1      -7.862   0.369 -32.109  1.00  0.00     0.019 A 
ENDBRANCH   8   9
ENDBRANCH   4   7
ENDBRANCH   2   3
BRANCH   2  14
HETATM   14  C   UNL     1      -1.307   5.150 -32.129  1.00  0.00     0.127 A 
HETATM   15  N   UNL     1      -0.457   4.628 -31.262  1.00  0.00    -0.231 NA
HETATM   16  C   UNL     1      -0.258   5.602 -30.312  1.00  0.00     0.085 A 
HETATM   17  C   UNL     1      -0.993   6.743 -30.608  1.00  0.00     0.062 A 
HETATM   18  C   UNL     1       0.541   5.580 -29.159  1.00  0.00     0.034 A 
HETATM   19  N   UNL     1      -1.644   6.434 -31.774  1.00  0.00    -0.341 N 
HETATM   20  C   UNL     1      -0.984   7.890 -29.810  1.00  0.00     0.032 A 
HETATM   21  H   UNL     1      -2.270   7.044 -32.281  1.00  0.00     0.167 HD
HETATM   22  C   UNL     1      -0.183   7.849 -28.662  1.00  0.00     0.002 A 
HETATM   23  C   UNL     1       0.567   6.716 -28.339  1.00  0.00     0.002 A 
ENDBRANCH   2  14
TORSDOF 4
ENDMDL
