MODEL 1
REMARK VINA RESULT:      -8.3      0.000      0.000
REMARK  9 active torsions:
REMARK  status: ('A' for Active; 'I' for Inactive)
REMARK    1  A    between atoms: C_4  and  C_5 
REMARK    2  A    between atoms: C_6  and  N_7 
REMARK    3  A    between atoms: N_7  and  S_8 
REMARK    4  A    between atoms: C_17  and  C_18 
REMARK    5  A    between atoms: C_18  and  N_19 
REMARK    6  A    between atoms: N_19  and  C_21 
REMARK    7  A    between atoms: C_21  and  C_22 
REMARK    8  A    between atoms: C_24  and  C_25 
REMARK    9  A    between atoms: C_25  and  N_26 
ROOT
HETATM    1  C   UNL     1     -11.003   0.751 -33.452  1.00  0.00     0.079 C 
HETATM    2  C   UNL     1      -9.561   0.859 -33.165  1.00  0.00     0.078 A 
HETATM    3  O   UNL     1      -8.749  -0.126 -33.661  1.00  0.00    -0.294 OA
HETATM    4  C   UNL     1      -7.488   0.201 -33.226  1.00  0.00     0.182 A 
HETATM    5  N   UNL     1      -7.456   1.329 -32.548  1.00  0.00    -0.224 NA
HETATM    6  C   UNL     1      -8.767   1.729 -32.454  1.00  0.00     0.092 A 
ENDROOT
BRANCH   6   7
HETATM    7  C   UNL     1      -9.093   2.907 -31.611  1.00  0.00     0.296 C 
BRANCH   7   8
HETATM    8  N   UNL     1      -7.852   3.718 -31.285  1.00  0.00    -0.065 N 
HETATM    9  H   UNL     1      -7.092   3.128 -31.680  1.00  0.00     0.280 HD
HETATM   10  C   UNL     1      -7.590   3.841 -29.826  1.00  0.00     0.270 C 
BRANCH   8  11
HETATM   11  C   UNL     1      -7.684   5.006 -32.055  1.00  0.00     0.280 C 
BRANCH  11  12
HETATM   12  C   UNL     1      -6.456   5.121 -32.918  1.00  0.00     0.009 A 
HETATM   13  S   UNL     1      -5.186   6.198 -32.513  1.00  0.00    -0.096 SA
HETATM   14  C   UNL     1      -4.185   5.623 -33.784  1.00  0.00     0.009 A 
HETATM   15  C   UNL     1      -4.840   4.675 -34.544  1.00  0.00     0.017 A 
HETATM   16  C   UNL     1      -6.137   4.373 -34.036  1.00  0.00     0.017 A 
BRANCH  14  17
HETATM   17  C   UNL     1      -2.787   6.143 -33.956  1.00  0.00     0.280 C 
BRANCH  17  18
HETATM   18  N   UNL     1      -1.992   6.162 -32.665  1.00  0.00    -0.067 N 
HETATM   19  H   UNL     1      -2.624   6.553 -31.955  1.00  0.00     0.280 HD
HETATM   20  C   UNL     1      -1.583   4.782 -32.197  1.00  0.00     0.235 C 
HETATM   21  C   UNL     1      -0.930   4.891 -30.826  1.00  0.00     0.028 C 
HETATM   22  C   UNL     1       0.258   5.846 -30.842  1.00  0.00     0.003 C 
HETATM   23  C   UNL     1      -0.136   7.208 -31.402  1.00  0.00     0.028 C 
HETATM   24  C   UNL     1      -0.800   7.089 -32.766  1.00  0.00     0.235 C 
ENDBRANCH  17  18
ENDBRANCH  14  17
ENDBRANCH  11  12
ENDBRANCH   8  11
ENDBRANCH   7   8
ENDBRANCH   6   7
BRANCH   4  25
HETATM   25  C   UNL     1      -6.403  -0.727 -33.542  1.00  0.00     0.044 A 
HETATM   26  C   UNL     1      -5.044  -0.413 -33.315  1.00  0.00     0.057 A 
HETATM   27  C   UNL     1      -4.040  -1.333 -33.657  1.00  0.00     0.031 A 
HETATM   28  C   UNL     1      -4.370  -2.566 -34.216  1.00  0.00     0.002 A 
HETATM   29  C   UNL     1      -5.703  -2.890 -34.441  1.00  0.00     0.001 A 
HETATM   30  C   UNL     1      -6.709  -1.979 -34.109  1.00  0.00     0.018 A 
BRANCH  26  31
HETATM   31  N   UNL     1      -4.615   0.846 -32.773  1.00  0.00    -0.284 N 
HETATM   32  H   UNL     1      -4.075   1.423 -33.419  1.00  0.00     0.178 HD
BRANCH  31  33
HETATM   33  S   UNL     1      -4.016   0.910 -31.199  1.00  0.00     0.227 S 
HETATM   34  C   UNL     1      -4.021   2.656 -30.834  1.00  0.00     0.186 C 
HETATM   35  O   UNL     1      -5.038   0.274 -30.386  1.00  0.00    -0.206 OA
HETATM   36  O   UNL     1      -2.664   0.405 -31.132  1.00  0.00    -0.206 OA
ENDBRANCH  31  33
ENDBRANCH  26  31
ENDBRANCH   4  25
TORSDOF 9
ENDMDL
MODEL 2
REMARK VINA RESULT:      -8.2      1.524      2.073
REMARK  9 active torsions:
REMARK  status: ('A' for Active; 'I' for Inactive)
REMARK    1  A    between atoms: C_4  and  C_5 
REMARK    2  A    between atoms: C_6  and  N_7 
REMARK    3  A    between atoms: N_7  and  S_8 
REMARK    4  A    between atoms: C_17  and  C_18 
REMARK    5  A    between atoms: C_18  and  N_19 
REMARK    6  A    between atoms: N_19  and  C_21 
REMARK    7  A    between atoms: C_21  and  C_22 
REMARK    8  A    between atoms: C_24  and  C_25 
REMARK    9  A    between atoms: C_25  and  N_26 
ROOT
HETATM    1  C   UNL     1      -9.859   0.902 -32.794  1.00  0.00     0.079 C 
HETATM    2  C   UNL     1      -8.522   0.630 -33.353  1.00  0.00     0.078 A 
HETATM    3  O   UNL     1      -8.172  -0.683 -33.524  1.00  0.00    -0.294 OA
HETATM    4  C   UNL     1      -6.891  -0.647 -34.020  1.00  0.00     0.182 A 
HETATM    5  N   UNL     1      -6.450   0.579 -34.211  1.00  0.00    -0.224 NA
HETATM    6  C   UNL     1      -7.450   1.397 -33.743  1.00  0.00     0.092 A 
ENDROOT
BRANCH   6   7
HETATM    7  C   UNL     1      -7.199   2.859 -33.680  1.00  0.00     0.296 C 
BRANCH   7   8
HETATM    8  N   UNL     1      -6.238   3.211 -32.559  1.00  0.00    -0.065 N 
HETATM    9  H   UNL     1      -5.341   2.815 -32.905  1.00  0.00     0.280 HD
HETATM   10  C   UNL     1      -6.548   2.525 -31.276  1.00  0.00     0.270 C 
BRANCH   8  11
HETATM   11  C   UNL     1      -5.901   4.676 -32.413  1.00  0.00     0.280 C 
BRANCH  11  12
HETATM   12  C   UNL     1      -4.517   5.094 -32.832  1.00  0.00     0.009 A 
HETATM   13  S   UNL     1      -3.822   6.554 -32.263  1.00  0.00    -0.096 SA
HETATM   14  C   UNL     1      -2.307   6.210 -32.995  1.00  0.00     0.009 A 
HETATM   15  C   UNL     1      -2.357   5.035 -33.717  1.00  0.00     0.017 A 
HETATM   16  C   UNL     1      -3.621   4.385 -33.609  1.00  0.00     0.017 A 
BRANCH  14  17
HETATM   17  C   UNL     1      -1.135   7.130 -32.803  1.00  0.00     0.280 C 
BRANCH  17  18
HETATM   18  N   UNL     1      -0.288   6.778 -31.596  1.00  0.00    -0.067 N 
HETATM   19  H   UNL     1       0.669   7.070 -31.834  1.00  0.00     0.280 HD
HETATM   20  C   UNL     1      -0.693   7.527 -30.346  1.00  0.00     0.235 C 
HETATM   21  C   UNL     1       0.305   7.225 -29.235  1.00  0.00     0.028 C 
HETATM   22  C   UNL     1       0.420   5.729 -28.973  1.00  0.00     0.003 C 
HETATM   23  C   UNL     1       0.737   4.966 -30.255  1.00  0.00     0.028 C 
HETATM   24  C   UNL     1      -0.257   5.283 -31.363  1.00  0.00     0.235 C 
ENDBRANCH  17  18
ENDBRANCH  14  17
ENDBRANCH  11  12
ENDBRANCH   8  11
ENDBRANCH   7   8
ENDBRANCH   6   7
BRANCH   4  25
HETATM   25  C   UNL     1      -6.213  -1.925 -34.233  1.00  0.00     0.044 A 
HETATM   26  C   UNL     1      -4.817  -2.080 -34.080  1.00  0.00     0.057 A 
HETATM   27  C   UNL     1      -4.214  -3.325 -34.317  1.00  0.00     0.031 A 
HETATM   28  C   UNL     1      -4.983  -4.423 -34.698  1.00  0.00     0.002 A 
HETATM   29  C   UNL     1      -6.359  -4.286 -34.848  1.00  0.00     0.001 A 
HETATM   30  C   UNL     1      -6.967  -3.050 -34.619  1.00  0.00     0.018 A 
BRANCH  26  31
HETATM   31  N   UNL     1      -3.947  -0.995 -33.721  1.00  0.00    -0.284 N 
HETATM   32  H   UNL     1      -3.134  -0.885 -34.328  1.00  0.00     0.178 HD
BRANCH  31  33
HETATM   33  S   UNL     1      -3.579  -0.728 -32.098  1.00  0.00     0.227 S 
HETATM   34  C   UNL     1      -3.346   1.038 -32.019  1.00  0.00     0.186 C 
HETATM   35  O   UNL     1      -4.798  -1.058 -31.381  1.00  0.00    -0.206 OA
HETATM   36  O   UNL     1      -2.353  -1.396 -31.723  1.00  0.00    -0.206 OA
ENDBRANCH  31  33
ENDBRANCH  26  31
ENDBRANCH   4  25
TORSDOF 9
ENDMDL
MODEL 3
REMARK VINA RESULT:      -8.2      2.722      7.313
REMARK  9 active torsions:
REMARK  status: ('A' for Active; 'I' for Inactive)
REMARK    1  A    between atoms: C_4  and  C_5 
REMARK    2  A    between atoms: C_6  and  N_7 
REMARK    3  A    between atoms: N_7  and  S_8 
REMARK    4  A    between atoms: C_17  and  C_18 
REMARK    5  A    between atoms: C_18  and  N_19 
REMARK    6  A    between atoms: N_19  and  C_21 
REMARK    7  A    between atoms: C_21  and  C_22 
REMARK    8  A    between atoms: C_24  and  C_25 
REMARK    9  A    between atoms: C_25  and  N_26 
ROOT
HETATM    1  C   UNL     1      -3.466   0.123 -31.202  1.00  0.00     0.079 C 
HETATM    2  C   UNL     1      -3.764   1.562 -31.319  1.00  0.00     0.078 A 
HETATM    3  O   UNL     1      -2.841   2.340 -31.965  1.00  0.00    -0.294 OA
HETATM    4  C   UNL     1      -3.346   3.616 -31.902  1.00  0.00     0.182 A 
HETATM    5  N   UNL     1      -4.524   3.672 -31.316  1.00  0.00    -0.224 NA
HETATM    6  C   UNL     1      -4.777   2.389 -30.893  1.00  0.00     0.092 A 
ENDROOT
BRANCH   6   7
HETATM    7  C   UNL     1      -5.976   2.140 -30.054  1.00  0.00     0.296 C 
BRANCH   7   8
HETATM    8  N   UNL     1      -7.210   2.807 -30.636  1.00  0.00    -0.065 N 
HETATM    9  H   UNL     1      -6.805   3.410 -31.380  1.00  0.00     0.280 HD
HETATM   10  C   UNL     1      -7.904   3.708 -29.678  1.00  0.00     0.270 C 
BRANCH   8  11
HETATM   11  C   UNL     1      -8.135   1.910 -31.425  1.00  0.00     0.280 C 
BRANCH  11  12
HETATM   12  C   UNL     1      -7.549   1.237 -32.636  1.00  0.00     0.009 A 
HETATM   13  S   UNL     1      -7.439  -0.471 -32.735  1.00  0.00    -0.096 SA
HETATM   14  C   UNL     1      -6.886  -0.421 -34.360  1.00  0.00     0.009 A 
HETATM   15  C   UNL     1      -6.724   0.879 -34.792  1.00  0.00     0.017 A 
HETATM   16  C   UNL     1      -7.122   1.831 -33.808  1.00  0.00     0.017 A 
BRANCH  14  17
HETATM   17  C   UNL     1      -6.650  -1.689 -35.129  1.00  0.00     0.280 C 
BRANCH  17  18
HETATM   18  N   UNL     1      -5.808  -2.700 -34.376  1.00  0.00    -0.067 N 
HETATM   19  H   UNL     1      -6.310  -2.880 -33.496  1.00  0.00     0.280 HD
HETATM   20  C   UNL     1      -5.675  -4.022 -35.100  1.00  0.00     0.235 C 
HETATM   21  C   UNL     1      -4.949  -5.015 -34.202  1.00  0.00     0.028 C 
HETATM   22  C   UNL     1      -3.590  -4.485 -33.759  1.00  0.00     0.003 C 
HETATM   23  C   UNL     1      -3.716  -3.110 -33.114  1.00  0.00     0.028 C 
HETATM   24  C   UNL     1      -4.455  -2.128 -34.012  1.00  0.00     0.235 C 
ENDBRANCH  17  18
ENDBRANCH  14  17
ENDBRANCH  11  12
ENDBRANCH   8  11
ENDBRANCH   7   8
ENDBRANCH   6   7
BRANCH   4  25
HETATM   25  C   UNL     1      -2.526   4.695 -32.451  1.00  0.00     0.044 A 
HETATM   26  C   UNL     1      -2.174   5.840 -31.701  1.00  0.00     0.057 A 
HETATM   27  C   UNL     1      -1.402   6.856 -32.284  1.00  0.00     0.031 A 
HETATM   28  C   UNL     1      -0.968   6.747 -33.603  1.00  0.00     0.002 A 
HETATM   29  C   UNL     1      -1.303   5.625 -34.352  1.00  0.00     0.001 A 
HETATM   30  C   UNL     1      -2.075   4.611 -33.783  1.00  0.00     0.018 A 
BRANCH  26  31
HETATM   31  N   UNL     1      -2.606   6.047 -30.347  1.00  0.00    -0.284 N 
HETATM   32  H   UNL     1      -2.664   5.196 -29.786  1.00  0.00     0.178 HD
BRANCH  31  33
HETATM   33  S   UNL     1      -3.874   7.113 -30.034  1.00  0.00     0.227 S 
HETATM   34  C   UNL     1      -4.763   6.308 -28.714  1.00  0.00     0.186 C 
HETATM   35  O   UNL     1      -3.236   8.301 -29.493  1.00  0.00    -0.206 OA
HETATM   36  O   UNL     1      -4.736   7.252 -31.185  1.00  0.00    -0.206 OA
ENDBRANCH  31  33
ENDBRANCH  26  31
ENDBRANCH   4  25
TORSDOF 9
ENDMDL
MODEL 4
REMARK VINA RESULT:      -8.1      3.755      7.686
REMARK  9 active torsions:
REMARK  status: ('A' for Active; 'I' for Inactive)
REMARK    1  A    between atoms: C_4  and  C_5 
REMARK    2  A    between atoms: C_6  and  N_7 
REMARK    3  A    between atoms: N_7  and  S_8 
REMARK    4  A    between atoms: C_17  and  C_18 
REMARK    5  A    between atoms: C_18  and  N_19 
REMARK    6  A    between atoms: N_19  and  C_21 
REMARK    7  A    between atoms: C_21  and  C_22 
REMARK    8  A    between atoms: C_24  and  C_25 
REMARK    9  A    between atoms: C_25  and  N_26 
ROOT
HETATM    1  C   UNL     1      -7.089   1.156 -34.886  1.00  0.00     0.079 C 
HETATM    2  C   UNL     1      -8.267   1.676 -34.169  1.00  0.00     0.078 A 
HETATM    3  O   UNL     1      -9.455   1.023 -34.364  1.00  0.00    -0.294 OA
HETATM    4  C   UNL     1     -10.372   1.724 -33.618  1.00  0.00     0.182 A 
HETATM    5  N   UNL     1      -9.831   2.719 -32.946  1.00  0.00    -0.224 NA
HETATM    6  C   UNL     1      -8.511   2.736 -33.327  1.00  0.00     0.092 A 
ENDROOT
BRANCH   6   7
HETATM    7  C   UNL     1      -7.648   3.848 -32.855  1.00  0.00     0.296 C 
BRANCH   7   8
HETATM    8  N   UNL     1      -7.323   3.710 -31.378  1.00  0.00    -0.065 N 
HETATM    9  H   UNL     1      -7.981   2.964 -31.075  1.00  0.00     0.280 HD
HETATM   10  C   UNL     1      -7.649   4.925 -30.584  1.00  0.00     0.270 C 
BRANCH   8  11
HETATM   11  C   UNL     1      -5.980   3.100 -31.052  1.00  0.00     0.280 C 
BRANCH  11  12
HETATM   12  C   UNL     1      -5.791   1.653 -31.420  1.00  0.00     0.009 A 
HETATM   13  S   UNL     1      -4.560   1.169 -32.511  1.00  0.00    -0.096 SA
HETATM   14  C   UNL     1      -4.880  -0.499 -32.257  1.00  0.00     0.009 A 
HETATM   15  C   UNL     1      -5.953  -0.677 -31.408  1.00  0.00     0.017 A 
HETATM   16  C   UNL     1      -6.465   0.557 -30.913  1.00  0.00     0.017 A 
BRANCH  14  17
HETATM   17  C   UNL     1      -4.033  -1.551 -32.914  1.00  0.00     0.280 C 
BRANCH  17  18
HETATM   18  N   UNL     1      -4.837  -2.722 -33.445  1.00  0.00    -0.067 N 
HETATM   19  H   UNL     1      -5.344  -3.102 -32.635  1.00  0.00     0.280 HD
HETATM   20  C   UNL     1      -5.869  -2.316 -34.475  1.00  0.00     0.235 C 
HETATM   21  C   UNL     1      -6.723  -3.525 -34.832  1.00  0.00     0.028 C 
HETATM   22  C   UNL     1      -5.873  -4.689 -35.327  1.00  0.00     0.003 C 
HETATM   23  C   UNL     1      -4.774  -5.035 -34.329  1.00  0.00     0.028 C 
HETATM   24  C   UNL     1      -3.934  -3.818 -33.967  1.00  0.00     0.235 C 
ENDBRANCH  17  18
ENDBRANCH  14  17
ENDBRANCH  11  12
ENDBRANCH   8  11
ENDBRANCH   7   8
ENDBRANCH   6   7
BRANCH   4  25
HETATM   25  C   UNL     1     -11.769   1.299 -33.691  1.00  0.00     0.044 A 
HETATM   26  C   UNL     1     -12.826   2.202 -33.945  1.00  0.00     0.057 A 
HETATM   27  C   UNL     1     -14.152   1.744 -33.984  1.00  0.00     0.031 A 
HETATM   28  C   UNL     1     -14.441   0.396 -33.781  1.00  0.00     0.002 A 
HETATM   29  C   UNL     1     -13.411  -0.504 -33.534  1.00  0.00     0.001 A 
HETATM   30  C   UNL     1     -12.089  -0.057 -33.488  1.00  0.00     0.018 A 
BRANCH  26  31
HETATM   31  N   UNL     1     -12.619   3.611 -34.134  1.00  0.00    -0.284 N 
HETATM   32  H   UNL     1     -13.313   4.206 -33.680  1.00  0.00     0.178 HD
BRANCH  31  33
HETATM   33  S   UNL     1     -12.174   4.187 -35.654  1.00  0.00     0.227 S 
HETATM   34  C   UNL     1     -13.167   5.657 -35.838  1.00  0.00     0.186 C 
HETATM   35  O   UNL     1     -10.786   4.592 -35.507  1.00  0.00    -0.206 OA
HETATM   36  O   UNL     1     -12.512   3.240 -36.692  1.00  0.00    -0.206 OA
ENDBRANCH  31  33
ENDBRANCH  26  31
ENDBRANCH   4  25
TORSDOF 9
ENDMDL
MODEL 5
REMARK VINA RESULT:      -8.0      2.948      8.017
REMARK  9 active torsions:
REMARK  status: ('A' for Active; 'I' for Inactive)
REMARK    1  A    between atoms: C_4  and  C_5 
REMARK    2  A    between atoms: C_6  and  N_7 
REMARK    3  A    between atoms: N_7  and  S_8 
REMARK    4  A    between atoms: C_17  and  C_18 
REMARK    5  A    between atoms: C_18  and  N_19 
REMARK    6  A    between atoms: N_19  and  C_21 
REMARK    7  A    between atoms: C_21  and  C_22 
REMARK    8  A    between atoms: C_24  and  C_25 
REMARK    9  A    between atoms: C_25  and  N_26 
ROOT
HETATM    1  C   UNL     1      -6.852   7.678 -32.085  1.00  0.00     0.079 C 
HETATM    2  C   UNL     1      -5.783   6.748 -31.674  1.00  0.00     0.078 A 
HETATM    3  O   UNL     1      -4.543   7.283 -31.450  1.00  0.00    -0.294 OA
HETATM    4  C   UNL     1      -3.749   6.211 -31.119  1.00  0.00     0.182 A 
HETATM    5  N   UNL     1      -4.415   5.076 -31.074  1.00  0.00    -0.224 NA
HETATM    6  C   UNL     1      -5.691   5.391 -31.476  1.00  0.00     0.092 A 
ENDROOT
BRANCH   6   7
HETATM    7  C   UNL     1      -6.665   4.289 -31.677  1.00  0.00     0.296 C 
BRANCH   7   8
HETATM    8  N   UNL     1      -7.098   3.681 -30.356  1.00  0.00    -0.065 N 
HETATM    9  H   UNL     1      -8.094   3.443 -30.537  1.00  0.00     0.280 HD
HETATM   10  C   UNL     1      -7.083   4.648 -29.226  1.00  0.00     0.270 C 
BRANCH   8  11
HETATM   11  C   UNL     1      -6.506   2.331 -30.024  1.00  0.00     0.280 C 
BRANCH  11  12
HETATM   12  C   UNL     1      -6.383   1.352 -31.161  1.00  0.00     0.009 A 
HETATM   13  S   UNL     1      -4.854   0.955 -31.827  1.00  0.00    -0.096 SA
HETATM   14  C   UNL     1      -5.524  -0.254 -32.845  1.00  0.00     0.009 A 
HETATM   15  C   UNL     1      -6.897  -0.303 -32.726  1.00  0.00     0.017 A 
HETATM   16  C   UNL     1      -7.390   0.607 -31.745  1.00  0.00     0.017 A 
BRANCH  14  17
HETATM   17  C   UNL     1      -4.639  -1.106 -33.710  1.00  0.00     0.280 C 
BRANCH  17  18
HETATM   18  N   UNL     1      -5.150  -2.523 -33.880  1.00  0.00    -0.067 N 
HETATM   19  H   UNL     1      -5.585  -2.771 -32.982  1.00  0.00     0.280 HD
HETATM   20  C   UNL     1      -6.215  -2.647 -34.948  1.00  0.00     0.235 C 
HETATM   21  C   UNL     1      -6.772  -4.064 -34.938  1.00  0.00     0.028 C 
HETATM   22  C   UNL     1      -5.673  -5.103 -35.126  1.00  0.00     0.003 C 
HETATM   23  C   UNL     1      -4.555  -4.916 -34.107  1.00  0.00     0.028 C 
HETATM   24  C   UNL     1      -4.014  -3.494 -34.114  1.00  0.00     0.235 C 
ENDBRANCH  17  18
ENDBRANCH  14  17
ENDBRANCH  11  12
ENDBRANCH   8  11
ENDBRANCH   7   8
ENDBRANCH   6   7
BRANCH   4  25
HETATM   25  C   UNL     1      -2.327   6.468 -30.896  1.00  0.00     0.044 A 
HETATM   26  C   UNL     1      -1.321   5.957 -31.747  1.00  0.00     0.057 A 
HETATM   27  C   UNL     1       0.032   6.216 -31.475  1.00  0.00     0.031 A 
HETATM   28  C   UNL     1       0.397   6.984 -30.371  1.00  0.00     0.002 A 
HETATM   29  C   UNL     1      -0.582   7.496 -29.528  1.00  0.00     0.001 A 
HETATM   30  C   UNL     1      -1.930   7.239 -29.787  1.00  0.00     0.018 A 
BRANCH  26  31
HETATM   31  N   UNL     1      -1.608   5.132 -32.887  1.00  0.00    -0.284 N 
HETATM   32  H   UNL     1      -1.046   4.282 -32.947  1.00  0.00     0.178 HD
BRANCH  31  33
HETATM   33  S   UNL     1      -1.850   5.852 -34.392  1.00  0.00     0.227 S 
HETATM   34  C   UNL     1      -3.522   5.386 -34.800  1.00  0.00     0.186 C 
HETATM   35  O   UNL     1      -1.828   7.280 -34.129  1.00  0.00    -0.206 OA
HETATM   36  O   UNL     1      -0.942   5.316 -35.380  1.00  0.00    -0.206 OA
ENDBRANCH  31  33
ENDBRANCH  26  31
ENDBRANCH   4  25
TORSDOF 9
ENDMDL
MODEL 6
REMARK VINA RESULT:      -7.9      1.739      2.538
REMARK  9 active torsions:
REMARK  status: ('A' for Active; 'I' for Inactive)
REMARK    1  A    between atoms: C_4  and  C_5 
REMARK    2  A    between atoms: C_6  and  N_7 
REMARK    3  A    between atoms: N_7  and  S_8 
REMARK    4  A    between atoms: C_17  and  C_18 
REMARK    5  A    between atoms: C_18  and  N_19 
REMARK    6  A    between atoms: N_19  and  C_21 
REMARK    7  A    between atoms: C_21  and  C_22 
REMARK    8  A    between atoms: C_24  and  C_25 
REMARK    9  A    between atoms: C_25  and  N_26 
ROOT
HETATM    1  C   UNL     1      -9.243   2.639 -30.896  1.00  0.00     0.079 C 
HETATM    2  C   UNL     1      -8.952   1.874 -32.123  1.00  0.00     0.078 A 
HETATM    3  O   UNL     1      -7.897   1.001 -32.079  1.00  0.00    -0.294 OA
HETATM    4  C   UNL     1      -7.834   0.459 -33.340  1.00  0.00     0.182 A 
HETATM    5  N   UNL     1      -8.793   0.892 -34.132  1.00  0.00    -0.224 NA
HETATM    6  C   UNL     1      -9.474   1.828 -33.394  1.00  0.00     0.092 A 
ENDROOT
BRANCH   6   7
HETATM    7  C   UNL     1     -10.538   2.622 -34.060  1.00  0.00     0.296 C 
BRANCH   7   8
HETATM    8  N   UNL     1     -10.430   4.096 -33.715  1.00  0.00    -0.065 N 
HETATM    9  H   UNL     1     -10.137   4.070 -32.718  1.00  0.00     0.280 HD
HETATM   10  C   UNL     1     -11.733   4.812 -33.764  1.00  0.00     0.270 C 
BRANCH   8  11
HETATM   11  C   UNL     1      -9.288   4.844 -34.361  1.00  0.00     0.280 C 
BRANCH  11  12
HETATM   12  C   UNL     1      -8.222   5.372 -33.438  1.00  0.00     0.009 A 
HETATM   13  S   UNL     1      -6.694   4.603 -33.317  1.00  0.00    -0.096 SA
HETATM   14  C   UNL     1      -6.068   5.832 -32.295  1.00  0.00     0.009 A 
HETATM   15  C   UNL     1      -7.033   6.773 -31.998  1.00  0.00     0.017 A 
HETATM   16  C   UNL     1      -8.264   6.519 -32.669  1.00  0.00     0.017 A 
BRANCH  14  17
HETATM   17  C   UNL     1      -4.636   5.800 -31.845  1.00  0.00     0.280 C 
BRANCH  17  18
HETATM   18  N   UNL     1      -3.647   6.002 -32.977  1.00  0.00    -0.067 N 
HETATM   19  H   UNL     1      -4.202   6.340 -33.774  1.00  0.00     0.280 HD
HETATM   20  C   UNL     1      -2.602   7.053 -32.674  1.00  0.00     0.235 C 
HETATM   21  C   UNL     1      -1.757   7.292 -33.918  1.00  0.00     0.028 C 
HETATM   22  C   UNL     1      -1.118   6.004 -34.422  1.00  0.00     0.003 C 
HETATM   23  C   UNL     1      -2.165   4.916 -34.637  1.00  0.00     0.028 C 
HETATM   24  C   UNL     1      -3.014   4.693 -33.394  1.00  0.00     0.235 C 
ENDBRANCH  17  18
ENDBRANCH  14  17
ENDBRANCH  11  12
ENDBRANCH   8  11
ENDBRANCH   7   8
ENDBRANCH   6   7
BRANCH   4  25
HETATM   25  C   UNL     1      -6.739  -0.468 -33.621  1.00  0.00     0.044 A 
HETATM   26  C   UNL     1      -5.390  -0.162 -33.328  1.00  0.00     0.057 A 
HETATM   27  C   UNL     1      -4.375  -1.080 -33.638  1.00  0.00     0.031 A 
HETATM   28  C   UNL     1      -4.683  -2.303 -34.231  1.00  0.00     0.002 A 
HETATM   29  C   UNL     1      -6.005  -2.619 -34.521  1.00  0.00     0.001 A 
HETATM   30  C   UNL     1      -7.022  -1.710 -34.221  1.00  0.00     0.018 A 
BRANCH  26  31
HETATM   31  N   UNL     1      -4.982   1.086 -32.747  1.00  0.00    -0.284 N 
HETATM   32  H   UNL     1      -4.471   1.702 -33.381  1.00  0.00     0.178 HD
BRANCH  31  33
HETATM   33  S   UNL     1      -4.354   1.108 -31.183  1.00  0.00     0.227 S 
HETATM   34  C   UNL     1      -5.098   2.561 -30.467  1.00  0.00     0.186 C 
HETATM   35  O   UNL     1      -4.925  -0.061 -30.537  1.00  0.00    -0.206 OA
HETATM   36  O   UNL     1      -2.916   1.257 -31.200  1.00  0.00    -0.206 OA
ENDBRANCH  31  33
ENDBRANCH  26  31
ENDBRANCH   4  25
TORSDOF 9
ENDMDL
MODEL 7
REMARK VINA RESULT:      -7.8      3.144      8.605
REMARK  9 active torsions:
REMARK  status: ('A' for Active; 'I' for Inactive)
REMARK    1  A    between atoms: C_4  and  C_5 
REMARK    2  A    between atoms: C_6  and  N_7 
REMARK    3  A    between atoms: N_7  and  S_8 
REMARK    4  A    between atoms: C_17  and  C_18 
REMARK    5  A    between atoms: C_18  and  N_19 
REMARK    6  A    between atoms: N_19  and  C_21 
REMARK    7  A    between atoms: C_21  and  C_22 
REMARK    8  A    between atoms: C_24  and  C_25 
REMARK    9  A    between atoms: C_25  and  N_26 
ROOT
HETATM    1  C   UNL     1      -1.950   5.290 -34.825  1.00  0.00     0.079 C 
HETATM    2  C   UNL     1      -2.746   5.921 -33.755  1.00  0.00     0.078 A 
HETATM    3  O   UNL     1      -2.108   6.836 -32.960  1.00  0.00    -0.294 OA
HETATM    4  C   UNL     1      -3.055   7.233 -32.047  1.00  0.00     0.182 A 
HETATM    5  N   UNL     1      -4.229   6.674 -32.252  1.00  0.00    -0.224 NA
HETATM    6  C   UNL     1      -4.035   5.801 -33.294  1.00  0.00     0.092 A 
ENDROOT
BRANCH   6   7
HETATM    7  C   UNL     1      -5.147   4.894 -33.678  1.00  0.00     0.296 C 
BRANCH   7   8
HETATM    8  N   UNL     1      -5.558   3.999 -32.523  1.00  0.00    -0.065 N 
HETATM    9  H   UNL     1      -5.669   4.679 -31.745  1.00  0.00     0.280 HD
HETATM   10  C   UNL     1      -4.500   3.038 -32.113  1.00  0.00     0.270 C 
BRANCH   8  11
HETATM   11  C   UNL     1      -6.940   3.396 -32.615  1.00  0.00     0.280 C 
BRANCH  11  12
HETATM   12  C   UNL     1      -7.014   1.921 -32.905  1.00  0.00     0.009 A 
HETATM   13  S   UNL     1      -6.721   1.312 -34.481  1.00  0.00    -0.096 SA
HETATM   14  C   UNL     1      -6.808  -0.319 -33.952  1.00  0.00     0.009 A 
HETATM   15  C   UNL     1      -7.124  -0.393 -32.611  1.00  0.00     0.017 A 
HETATM   16  C   UNL     1      -7.225   0.894 -32.006  1.00  0.00     0.017 A 
BRANCH  14  17
HETATM   17  C   UNL     1      -6.546  -1.450 -34.905  1.00  0.00     0.280 C 
BRANCH  17  18
HETATM   18  N   UNL     1      -5.770  -2.593 -34.281  1.00  0.00    -0.067 N 
HETATM   19  H   UNL     1      -6.272  -2.830 -33.415  1.00  0.00     0.280 HD
HETATM   20  C   UNL     1      -5.742  -3.835 -35.144  1.00  0.00     0.235 C 
HETATM   21  C   UNL     1      -5.078  -4.967 -34.371  1.00  0.00     0.028 C 
HETATM   22  C   UNL     1      -3.679  -4.585 -33.904  1.00  0.00     0.003 C 
HETATM   23  C   UNL     1      -3.697  -3.282 -33.113  1.00  0.00     0.028 C 
HETATM   24  C   UNL     1      -4.374  -2.160 -33.887  1.00  0.00     0.235 C 
ENDBRANCH  17  18
ENDBRANCH  14  17
ENDBRANCH  11  12
ENDBRANCH   8  11
ENDBRANCH   7   8
ENDBRANCH   6   7
BRANCH   4  25
HETATM   25  C   UNL     1      -2.635   8.165 -31.001  1.00  0.00     0.044 A 
HETATM   26  C   UNL     1      -1.928   7.749 -29.851  1.00  0.00     0.057 A 
HETATM   27  C   UNL     1      -1.568   8.683 -28.867  1.00  0.00     0.031 A 
HETATM   28  C   UNL     1      -1.895  10.029 -29.016  1.00  0.00     0.002 A 
HETATM   29  C   UNL     1      -2.586  10.454 -30.144  1.00  0.00     0.001 A 
HETATM   30  C   UNL     1      -2.954   9.531 -31.126  1.00  0.00     0.018 A 
BRANCH  26  31
HETATM   31  N   UNL     1      -1.580   6.378 -29.604  1.00  0.00    -0.284 N 
HETATM   32  H   UNL     1      -1.806   6.045 -28.666  1.00  0.00     0.178 HD
BRANCH  31  33
HETATM   33  S   UNL     1      -0.102   5.784 -30.158  1.00  0.00     0.227 S 
HETATM   34  C   UNL     1       0.793   5.454 -28.652  1.00  0.00     0.186 C 
HETATM   35  O   UNL     1      -0.423   4.513 -30.784  1.00  0.00    -0.206 OA
HETATM   36  O   UNL     1       0.603   6.780 -30.934  1.00  0.00    -0.206 OA
ENDBRANCH  31  33
ENDBRANCH  26  31
ENDBRANCH   4  25
TORSDOF 9
ENDMDL
MODEL 8
REMARK VINA RESULT:      -7.7      1.842      3.017
REMARK  9 active torsions:
REMARK  status: ('A' for Active; 'I' for Inactive)
REMARK    1  A    between atoms: C_4  and  C_5 
REMARK    2  A    between atoms: C_6  and  N_7 
REMARK    3  A    between atoms: N_7  and  S_8 
REMARK    4  A    between atoms: C_17  and  C_18 
REMARK    5  A    between atoms: C_18  and  N_19 
REMARK    6  A    between atoms: N_19  and  C_21 
REMARK    7  A    between atoms: C_21  and  C_22 
REMARK    8  A    between atoms: C_24  and  C_25 
REMARK    9  A    between atoms: C_25  and  N_26 
ROOT
HETATM    1  C   UNL     1      -8.523   3.216 -31.280  1.00  0.00     0.079 C 
HETATM    2  C   UNL     1      -7.737   2.690 -32.411  1.00  0.00     0.078 A 
HETATM    3  O   UNL     1      -7.502   1.341 -32.435  1.00  0.00    -0.294 OA
HETATM    4  C   UNL     1      -6.735   1.134 -33.556  1.00  0.00     0.182 A 
HETATM    5  N   UNL     1      -6.526   2.238 -34.243  1.00  0.00    -0.224 NA
HETATM    6  C   UNL     1      -7.106   3.239 -33.503  1.00  0.00     0.092 A 
ENDROOT
BRANCH   6   7
HETATM    7  C   UNL     1      -6.915   4.646 -33.936  1.00  0.00     0.296 C 
BRANCH   7   8
HETATM    8  N   UNL     1      -5.669   5.254 -33.318  1.00  0.00    -0.065 N 
HETATM    9  H   UNL     1      -5.415   4.551 -32.595  1.00  0.00     0.280 HD
HETATM   10  C   UNL     1      -5.925   6.534 -32.606  1.00  0.00     0.270 C 
BRANCH   8  11
HETATM   11  C   UNL     1      -4.437   5.266 -34.192  1.00  0.00     0.280 C 
BRANCH  11  12
HETATM   12  C   UNL     1      -3.145   5.662 -33.529  1.00  0.00     0.009 A 
HETATM   13  S   UNL     1      -2.565   4.829 -32.148  1.00  0.00    -0.096 SA
HETATM   14  C   UNL     1      -1.087   5.703 -32.143  1.00  0.00     0.009 A 
HETATM   15  C   UNL     1      -1.070   6.660 -33.137  1.00  0.00     0.017 A 
HETATM   16  C   UNL     1      -2.244   6.625 -33.945  1.00  0.00     0.017 A 
BRANCH  14  17
HETATM   17  C   UNL     1      -0.009   5.381 -31.148  1.00  0.00     0.280 C 
BRANCH  17  18
HETATM   18  N   UNL     1       0.130   6.425 -30.057  1.00  0.00    -0.067 N 
HETATM   19  H   UNL     1       0.842   7.086 -30.393  1.00  0.00     0.280 HD
HETATM   20  C   UNL     1      -1.141   7.210 -29.819  1.00  0.00     0.235 C 
HETATM   21  C   UNL     1      -0.861   8.327 -28.823  1.00  0.00     0.028 C 
HETATM   22  C   UNL     1      -0.290   7.788 -27.517  1.00  0.00     0.003 C 
HETATM   23  C   UNL     1       0.938   6.919 -27.768  1.00  0.00     0.028 C 
HETATM   24  C   UNL     1       0.653   5.814 -28.775  1.00  0.00     0.235 C 
ENDBRANCH  17  18
ENDBRANCH  14  17
ENDBRANCH  11  12
ENDBRANCH   8  11
ENDBRANCH   7   8
ENDBRANCH   6   7
BRANCH   4  25
HETATM   25  C   UNL     1      -6.257  -0.225 -33.806  1.00  0.00     0.044 A 
HETATM   26  C   UNL     1      -4.918  -0.613 -33.576  1.00  0.00     0.057 A 
HETATM   27  C   UNL     1      -4.507  -1.926 -33.853  1.00  0.00     0.031 A 
HETATM   28  C   UNL     1      -5.412  -2.862 -34.349  1.00  0.00     0.002 A 
HETATM   29  C   UNL     1      -6.734  -2.495 -34.575  1.00  0.00     0.001 A 
HETATM   30  C   UNL     1      -7.151  -1.190 -34.308  1.00  0.00     0.018 A 
BRANCH  26  31
HETATM   31  N   UNL     1      -3.914   0.295 -33.097  1.00  0.00    -0.284 N 
HETATM   32  H   UNL     1      -3.146   0.460 -33.749  1.00  0.00     0.178 HD
BRANCH  31  33
HETATM   33  S   UNL     1      -3.388   0.183 -31.499  1.00  0.00     0.227 S 
HETATM   34  C   UNL     1      -4.906  -0.024 -30.586  1.00  0.00     0.186 C 
HETATM   35  O   UNL     1      -2.648  -1.065 -31.438  1.00  0.00    -0.206 OA
HETATM   36  O   UNL     1      -2.731   1.399 -31.079  1.00  0.00    -0.206 OA
ENDBRANCH  31  33
ENDBRANCH  26  31
ENDBRANCH   4  25
TORSDOF 9
ENDMDL
MODEL 9
REMARK VINA RESULT:      -7.7      2.848      7.061
REMARK  9 active torsions:
REMARK  status: ('A' for Active; 'I' for Inactive)
REMARK    1  A    between atoms: C_4  and  C_5 
REMARK    2  A    between atoms: C_6  and  N_7 
REMARK    3  A    between atoms: N_7  and  S_8 
REMARK    4  A    between atoms: C_17  and  C_18 
REMARK    5  A    between atoms: C_18  and  N_19 
REMARK    6  A    between atoms: N_19  and  C_21 
REMARK    7  A    between atoms: C_21  and  C_22 
REMARK    8  A    between atoms: C_24  and  C_25 
REMARK    9  A    between atoms: C_25  and  N_26 
ROOT
HETATM    1  C   UNL     1      -4.798   5.710 -33.231  1.00  0.00     0.079 C 
HETATM    2  C   UNL     1      -5.215   4.412 -32.670  1.00  0.00     0.078 A 
HETATM    3  O   UNL     1      -5.419   3.386 -33.554  1.00  0.00    -0.294 OA
HETATM    4  C   UNL     1      -5.824   2.326 -32.779  1.00  0.00     0.182 A 
HETATM    5  N   UNL     1      -5.835   2.606 -31.493  1.00  0.00    -0.224 NA
HETATM    6  C   UNL     1      -5.505   3.938 -31.412  1.00  0.00     0.092 A 
ENDROOT
BRANCH   6   7
HETATM    7  C   UNL     1      -5.576   4.609 -30.090  1.00  0.00     0.296 C 
BRANCH   7   8
HETATM    8  N   UNL     1      -6.664   5.667 -30.060  1.00  0.00    -0.065 N 
HETATM    9  H   UNL     1      -6.945   5.724 -31.060  1.00  0.00     0.280 HD
HETATM   10  C   UNL     1      -6.169   7.014 -29.672  1.00  0.00     0.270 C 
BRANCH   8  11
HETATM   11  C   UNL     1      -7.957   5.266 -29.391  1.00  0.00     0.280 C 
BRANCH  11  12
HETATM   12  C   UNL     1      -8.931   4.478 -30.225  1.00  0.00     0.009 A 
HETATM   13  S   UNL     1     -10.068   5.264 -31.240  1.00  0.00    -0.096 SA
HETATM   14  C   UNL     1     -10.609   3.781 -31.916  1.00  0.00     0.009 A 
HETATM   15  C   UNL     1      -9.980   2.705 -31.325  1.00  0.00     0.017 A 
HETATM   16  C   UNL     1      -9.004   3.105 -30.367  1.00  0.00     0.017 A 
BRANCH  14  17
HETATM   17  C   UNL     1     -11.633   3.767 -33.014  1.00  0.00     0.280 C 
BRANCH  17  18
HETATM   18  N   UNL     1     -12.569   2.576 -32.947  1.00  0.00    -0.067 N 
HETATM   19  H   UNL     1     -12.375   2.121 -32.045  1.00  0.00     0.280 HD
HETATM   20  C   UNL     1     -14.031   2.966 -32.952  1.00  0.00     0.235 C 
HETATM   21  C   UNL     1     -14.882   1.723 -32.727  1.00  0.00     0.028 C 
HETATM   22  C   UNL     1     -14.591   0.646 -33.765  1.00  0.00     0.003 C 
HETATM   23  C   UNL     1     -13.102   0.322 -33.823  1.00  0.00     0.028 C 
HETATM   24  C   UNL     1     -12.259   1.571 -34.034  1.00  0.00     0.235 C 
ENDBRANCH  17  18
ENDBRANCH  14  17
ENDBRANCH  11  12
ENDBRANCH   8  11
ENDBRANCH   7   8
ENDBRANCH   6   7
BRANCH   4  25
HETATM   25  C   UNL     1      -6.195   1.090 -33.467  1.00  0.00     0.044 A 
HETATM   26  C   UNL     1      -5.795  -0.185 -33.007  1.00  0.00     0.057 A 
HETATM   27  C   UNL     1      -6.161  -1.339 -33.718  1.00  0.00     0.031 A 
HETATM   28  C   UNL     1      -6.928  -1.242 -34.878  1.00  0.00     0.002 A 
HETATM   29  C   UNL     1      -7.332   0.005 -35.339  1.00  0.00     0.001 A 
HETATM   30  C   UNL     1      -6.968   1.159 -34.642  1.00  0.00     0.018 A 
BRANCH  26  31
HETATM   31  N   UNL     1      -4.978  -0.373 -31.841  1.00  0.00    -0.284 N 
HETATM   32  H   UNL     1      -5.248   0.199 -31.039  1.00  0.00     0.178 HD
BRANCH  31  33
HETATM   33  S   UNL     1      -3.306  -0.497 -32.009  1.00  0.00     0.227 S 
HETATM   34  C   UNL     1      -3.008  -2.246 -31.830  1.00  0.00     0.186 C 
HETATM   35  O   UNL     1      -3.043  -0.130 -33.390  1.00  0.00    -0.206 OA
HETATM   36  O   UNL     1      -2.620   0.222 -30.960  1.00  0.00    -0.206 OA
ENDBRANCH  31  33
ENDBRANCH  26  31
ENDBRANCH   4  25
TORSDOF 9
ENDMDL
MODEL 10
REMARK VINA RESULT:      -7.6      1.659      2.502
REMARK  9 active torsions:
REMARK  status: ('A' for Active; 'I' for Inactive)
REMARK    1  A    between atoms: C_4  and  C_5 
REMARK    2  A    between atoms: C_6  and  N_7 
REMARK    3  A    between atoms: N_7  and  S_8 
REMARK    4  A    between atoms: C_17  and  C_18 
REMARK    5  A    between atoms: C_18  and  N_19 
REMARK    6  A    between atoms: N_19  and  C_21 
REMARK    7  A    between atoms: C_21  and  C_22 
REMARK    8  A    between atoms: C_24  and  C_25 
REMARK    9  A    between atoms: C_25  and  N_26 
ROOT
HETATM    1  C   UNL     1      -6.190   4.498 -34.076  1.00  0.00     0.079 C 
HETATM    2  C   UNL     1      -6.736   3.181 -33.697  1.00  0.00     0.078 A 
HETATM    3  O   UNL     1      -5.970   2.082 -33.984  1.00  0.00    -0.294 OA
HETATM    4  C   UNL     1      -6.719   1.010 -33.562  1.00  0.00     0.182 A 
HETATM    5  N   UNL     1      -7.853   1.367 -32.997  1.00  0.00    -0.224 NA
HETATM    6  C   UNL     1      -7.903   2.734 -33.124  1.00  0.00     0.092 A 
ENDROOT
BRANCH   6   7
HETATM    7  C   UNL     1      -9.143   3.441 -32.714  1.00  0.00     0.296 C 
BRANCH   7   8
HETATM    8  N   UNL     1      -9.005   4.046 -31.328  1.00  0.00    -0.065 N 
HETATM    9  H   UNL     1      -8.187   3.532 -30.943  1.00  0.00     0.280 HD
HETATM   10  C   UNL     1     -10.159   3.753 -30.437  1.00  0.00     0.270 C 
BRANCH   8  11
HETATM   11  C   UNL     1      -8.531   5.479 -31.278  1.00  0.00     0.280 C 
BRANCH  11  12
HETATM   12  C   UNL     1      -7.125   5.707 -30.791  1.00  0.00     0.009 A 
HETATM   13  S   UNL     1      -6.234   7.090 -31.271  1.00  0.00    -0.096 SA
HETATM   14  C   UNL     1      -4.930   6.713 -30.220  1.00  0.00     0.009 A 
HETATM   15  C   UNL     1      -5.145   5.516 -29.568  1.00  0.00     0.017 A 
HETATM   16  C   UNL     1      -6.413   4.947 -29.882  1.00  0.00     0.017 A 
BRANCH  14  17
HETATM   17  C   UNL     1      -3.756   7.641 -30.090  1.00  0.00     0.280 C 
BRANCH  17  18
HETATM   18  N   UNL     1      -2.458   7.039 -30.591  1.00  0.00    -0.067 N 
HETATM   19  H   UNL     1      -2.701   6.101 -30.934  1.00  0.00     0.280 HD
HETATM   20  C   UNL     1      -1.856   7.804 -31.749  1.00  0.00     0.235 C 
HETATM   21  C   UNL     1      -0.648   7.042 -32.279  1.00  0.00     0.028 C 
HETATM   22  C   UNL     1       0.382   6.789 -31.186  1.00  0.00     0.003 C 
HETATM   23  C   UNL     1      -0.249   6.102 -29.980  1.00  0.00     0.028 C 
HETATM   24  C   UNL     1      -1.463   6.862 -29.466  1.00  0.00     0.235 C 
ENDBRANCH  17  18
ENDBRANCH  14  17
ENDBRANCH  11  12
ENDBRANCH   8  11
ENDBRANCH   7   8
ENDBRANCH   6   7
BRANCH   4  25
HETATM   25  C   UNL     1      -6.182  -0.327 -33.812  1.00  0.00     0.044 A 
HETATM   26  C   UNL     1      -4.833  -0.664 -33.560  1.00  0.00     0.057 A 
HETATM   27  C   UNL     1      -4.364  -1.958 -33.838  1.00  0.00     0.031 A 
HETATM   28  C   UNL     1      -5.222  -2.925 -34.357  1.00  0.00     0.002 A 
HETATM   29  C   UNL     1      -6.553  -2.609 -34.606  1.00  0.00     0.001 A 
HETATM   30  C   UNL     1      -7.027  -1.324 -34.338  1.00  0.00     0.018 A 
BRANCH  26  31
HETATM   31  N   UNL     1      -3.875   0.279 -33.055  1.00  0.00    -0.284 N 
HETATM   32  H   UNL     1      -2.980   0.279 -33.547  1.00  0.00     0.178 HD
BRANCH  31  33
HETATM   33  S   UNL     1      -3.694   0.469 -31.390  1.00  0.00     0.227 S 
HETATM   34  C   UNL     1      -3.847   2.231 -31.163  1.00  0.00     0.186 C 
HETATM   35  O   UNL     1      -4.867  -0.166 -30.814  1.00  0.00    -0.206 OA
HETATM   36  O   UNL     1      -2.387   0.035 -30.953  1.00  0.00    -0.206 OA
ENDBRANCH  31  33
ENDBRANCH  26  31
ENDBRANCH   4  25
TORSDOF 9
ENDMDL
