MODEL 1
REMARK VINA RESULT:      -7.9      0.000      0.000
REMARK  6 active torsions:
REMARK  status: ('A' for Active; 'I' for Inactive)
REMARK    1  A    between atoms: O_2  and  C_3 
REMARK    2  A    between atoms: C_6  and  S_7 
REMARK    3  A    between atoms: S_7  and  C_8 
REMARK    4  A    between atoms: C_11  and  N_12 
REMARK       I    between atoms: N_12  and  C_13 
REMARK    5  A    between atoms: C_13  and  C_14 
REMARK    6  A    between atoms: C_14  and  C_15 
ROOT
HETATM    1  C   UNL     1      -5.235   2.246 -32.289  1.00  0.00     0.005 A 
HETATM    2  C   UNL     1      -5.067   3.320 -33.165  1.00  0.00     0.021 A 
HETATM    3  C   UNL     1      -3.927   4.130 -33.093  1.00  0.00     0.031 A 
HETATM    4  C   UNL     1      -2.945   3.887 -32.132  1.00  0.00     0.034 A 
HETATM    5  C   UNL     1      -3.111   2.803 -31.259  1.00  0.00     0.031 A 
HETATM    6  C   UNL     1      -4.247   1.987 -31.337  1.00  0.00     0.021 A 
ENDROOT
BRANCH   4   7
HETATM    7  N   UNL     1      -1.808   4.702 -31.945  1.00  0.00    -0.327 N 
HETATM    8  C   UNL     1      -1.708   5.837 -31.159  1.00  0.00     0.227 C 
HETATM    9  O   UNL     1      -2.641   6.428 -30.614  1.00  0.00    -0.273 OA
HETATM   10  H   UNL     1      -0.979   4.428 -32.458  1.00  0.00     0.169 HD
BRANCH   8  11
HETATM   11  C   UNL     1      -0.275   6.344 -31.009  1.00  0.00     0.159 C 
BRANCH  11  12
HETATM   12  C   UNL     1       0.070   6.622 -29.581  1.00  0.00     0.017 A 
HETATM   13  N   UNL     1      -0.280   5.763 -28.562  1.00  0.00    -0.369 N 
HETATM   14  H   UNL     1      -0.814   4.907 -28.684  1.00  0.00     0.165 HD
HETATM   15  C   UNL     1       0.186   6.252 -27.370  1.00  0.00     0.088 A 
HETATM   16  C   UNL     1       0.857   7.426 -27.623  1.00  0.00     0.019 A 
HETATM   17  C   UNL     1       0.785   7.661 -29.017  1.00  0.00     0.027 A 
ENDBRANCH  11  12
ENDBRANCH   8  11
ENDBRANCH   4   7
BRANCH   1  18
HETATM   18  S   UNL     1      -6.738   1.299 -32.323  1.00  0.00    -0.091 SA
BRANCH  18  19
HETATM   19  C   UNL     1      -6.283  -0.215 -33.149  1.00  0.00     0.005 A 
HETATM   20  C   UNL     1      -7.270  -0.883 -33.881  1.00  0.00     0.021 A 
HETATM   21  C   UNL     1      -6.961  -2.035 -34.611  1.00  0.00     0.038 A 
HETATM   22  C   UNL     1      -5.657  -2.531 -34.632  1.00  0.00     0.068 A 
HETATM   23  C   UNL     1      -4.670  -1.879 -33.895  1.00  0.00     0.038 A 
HETATM   24  C   UNL     1      -4.981  -0.725 -33.163  1.00  0.00     0.021 A 
BRANCH  22  25
HETATM   25  O   UNL     1      -5.482  -3.647 -35.402  1.00  0.00    -0.356 OA
HETATM   26  C   UNL     1      -6.514  -4.624 -35.355  1.00  0.00     0.210 C 
ENDBRANCH  22  25
ENDBRANCH  18  19
ENDBRANCH   1  18
TORSDOF 6
ENDMDL
MODEL 2
REMARK VINA RESULT:      -7.9      1.283      1.683
REMARK  6 active torsions:
REMARK  status: ('A' for Active; 'I' for Inactive)
REMARK    1  A    between atoms: O_2  and  C_3 
REMARK    2  A    between atoms: C_6  and  S_7 
REMARK    3  A    between atoms: S_7  and  C_8 
REMARK    4  A    between atoms: C_11  and  N_12 
REMARK       I    between atoms: N_12  and  C_13 
REMARK    5  A    between atoms: C_13  and  C_14 
REMARK    6  A    between atoms: C_14  and  C_15 
ROOT
HETATM    1  C   UNL     1      -6.153   1.931 -32.148  1.00  0.00     0.005 A 
HETATM    2  C   UNL     1      -5.668   2.720 -33.191  1.00  0.00     0.021 A 
HETATM    3  C   UNL     1      -4.779   3.772 -32.938  1.00  0.00     0.031 A 
HETATM    4  C   UNL     1      -4.376   4.060 -31.634  1.00  0.00     0.034 A 
HETATM    5  C   UNL     1      -4.858   3.261 -30.589  1.00  0.00     0.031 A 
HETATM    6  C   UNL     1      -5.739   2.203 -30.842  1.00  0.00     0.021 A 
ENDROOT
BRANCH   4   7
HETATM    7  N   UNL     1      -3.547   5.149 -31.289  1.00  0.00    -0.327 N 
HETATM    8  C   UNL     1      -2.163   5.184 -31.286  1.00  0.00     0.227 C 
HETATM    9  O   UNL     1      -1.412   4.219 -31.428  1.00  0.00    -0.273 OA
HETATM   10  H   UNL     1      -4.025   5.992 -30.996  1.00  0.00     0.169 HD
BRANCH   8  11
HETATM   11  C   UNL     1      -1.595   6.587 -31.077  1.00  0.00     0.159 C 
BRANCH  11  12
HETATM   12  C   UNL     1      -0.682   6.645 -29.894  1.00  0.00     0.017 A 
HETATM   13  N   UNL     1      -0.309   5.516 -29.198  1.00  0.00    -0.369 N 
HETATM   14  H   UNL     1      -0.636   4.576 -29.403  1.00  0.00     0.165 HD
HETATM   15  C   UNL     1       0.549   5.862 -28.188  1.00  0.00     0.088 A 
HETATM   16  C   UNL     1       0.745   7.223 -28.242  1.00  0.00     0.019 A 
HETATM   17  C   UNL     1      -0.030   7.718 -29.318  1.00  0.00     0.027 A 
ENDBRANCH  11  12
ENDBRANCH   8  11
ENDBRANCH   4   7
BRANCH   1  18
HETATM   18  S   UNL     1      -7.365   0.672 -32.476  1.00  0.00    -0.091 SA
BRANCH  18  19
HETATM   19  C   UNL     1      -6.430  -0.653 -33.219  1.00  0.00     0.005 A 
HETATM   20  C   UNL     1      -5.114  -0.846 -32.788  1.00  0.00     0.021 A 
HETATM   21  C   UNL     1      -4.352  -1.911 -33.278  1.00  0.00     0.038 A 
HETATM   22  C   UNL     1      -4.897  -2.810 -34.195  1.00  0.00     0.068 A 
HETATM   23  C   UNL     1      -6.205  -2.618 -34.639  1.00  0.00     0.038 A 
HETATM   24  C   UNL     1      -6.967  -1.549 -34.149  1.00  0.00     0.021 A 
BRANCH  22  25
HETATM   25  O   UNL     1      -4.058  -3.820 -34.575  1.00  0.00    -0.356 OA
HETATM   26  C   UNL     1      -3.515  -4.625 -33.536  1.00  0.00     0.210 C 
ENDBRANCH  22  25
ENDBRANCH  18  19
ENDBRANCH   1  18
TORSDOF 6
ENDMDL
MODEL 3
REMARK VINA RESULT:      -7.6      6.333      9.319
REMARK  6 active torsions:
REMARK  status: ('A' for Active; 'I' for Inactive)
REMARK    1  A    between atoms: O_2  and  C_3 
REMARK    2  A    between atoms: C_6  and  S_7 
REMARK    3  A    between atoms: S_7  and  C_8 
REMARK    4  A    between atoms: C_11  and  N_12 
REMARK       I    between atoms: N_12  and  C_13 
REMARK    5  A    between atoms: C_13  and  C_14 
REMARK    6  A    between atoms: C_14  and  C_15 
ROOT
HETATM    1  C   UNL     1      -6.696   1.228 -32.632  1.00  0.00     0.005 A 
HETATM    2  C   UNL     1      -7.308   1.687 -33.799  1.00  0.00     0.021 A 
HETATM    3  C   UNL     1      -8.695   1.586 -33.968  1.00  0.00     0.031 A 
HETATM    4  C   UNL     1      -9.488   1.007 -32.976  1.00  0.00     0.034 A 
HETATM    5  C   UNL     1      -8.873   0.555 -31.801  1.00  0.00     0.031 A 
HETATM    6  C   UNL     1      -7.487   0.665 -31.628  1.00  0.00     0.021 A 
ENDROOT
BRANCH   4   7
HETATM    7  N   UNL     1     -10.877   0.798 -33.102  1.00  0.00    -0.327 N 
HETATM    8  C   UNL     1     -11.744   1.418 -33.986  1.00  0.00     0.227 C 
HETATM    9  O   UNL     1     -11.480   2.381 -34.707  1.00  0.00    -0.273 OA
HETATM   10  H   UNL     1     -11.283   0.128 -32.460  1.00  0.00     0.169 HD
BRANCH   8  11
HETATM   11  C   UNL     1     -13.138   0.793 -34.005  1.00  0.00     0.159 C 
BRANCH  11  12
HETATM   12  C   UNL     1     -14.106   1.569 -33.171  1.00  0.00     0.017 A 
HETATM   13  N   UNL     1     -13.701   2.576 -32.322  1.00  0.00    -0.369 N 
HETATM   14  H   UNL     1     -12.734   2.850 -32.170  1.00  0.00     0.165 HD
HETATM   15  C   UNL     1     -14.795   3.127 -31.710  1.00  0.00     0.088 A 
HETATM   16  C   UNL     1     -15.916   2.484 -32.179  1.00  0.00     0.019 A 
HETATM   17  C   UNL     1     -15.484   1.501 -33.101  1.00  0.00     0.027 A 
ENDBRANCH  11  12
ENDBRANCH   8  11
ENDBRANCH   4   7
BRANCH   1  18
HETATM   18  S   UNL     1      -4.925   1.264 -32.483  1.00  0.00    -0.091 SA
BRANCH  18  19
HETATM   19  C   UNL     1      -4.439  -0.447 -32.609  1.00  0.00     0.005 A 
HETATM   20  C   UNL     1      -4.917  -1.184 -33.697  1.00  0.00     0.021 A 
HETATM   21  C   UNL     1      -4.515  -2.509 -33.894  1.00  0.00     0.038 A 
HETATM   22  C   UNL     1      -3.618  -3.115 -33.014  1.00  0.00     0.068 A 
HETATM   23  C   UNL     1      -3.147  -2.392 -31.919  1.00  0.00     0.038 A 
HETATM   24  C   UNL     1      -3.551  -1.064 -31.723  1.00  0.00     0.021 A 
BRANCH  22  25
HETATM   25  O   UNL     1      -3.287  -4.403 -33.330  1.00  0.00    -0.356 OA
HETATM   26  C   UNL     1      -4.273  -5.166 -34.014  1.00  0.00     0.210 C 
ENDBRANCH  22  25
ENDBRANCH  18  19
ENDBRANCH   1  18
TORSDOF 6
ENDMDL
MODEL 4
REMARK VINA RESULT:      -7.3      5.517     10.224
REMARK  6 active torsions:
REMARK  status: ('A' for Active; 'I' for Inactive)
REMARK    1  A    between atoms: O_2  and  C_3 
REMARK    2  A    between atoms: C_6  and  S_7 
REMARK    3  A    between atoms: S_7  and  C_8 
REMARK    4  A    between atoms: C_11  and  N_12 
REMARK       I    between atoms: N_12  and  C_13 
REMARK    5  A    between atoms: C_13  and  C_14 
REMARK    6  A    between atoms: C_14  and  C_15 
ROOT
HETATM    1  C   UNL     1      -6.646   1.247 -31.908  1.00  0.00     0.005 A 
HETATM    2  C   UNL     1      -6.958   0.402 -32.974  1.00  0.00     0.021 A 
HETATM    3  C   UNL     1      -8.290   0.180 -33.344  1.00  0.00     0.031 A 
HETATM    4  C   UNL     1      -9.331   0.789 -32.642  1.00  0.00     0.034 A 
HETATM    5  C   UNL     1      -9.015   1.644 -31.578  1.00  0.00     0.031 A 
HETATM    6  C   UNL     1      -7.682   1.874 -31.213  1.00  0.00     0.021 A 
ENDROOT
BRANCH   4   7
HETATM    7  N   UNL     1     -10.698   0.556 -32.903  1.00  0.00    -0.327 N 
HETATM    8  C   UNL     1     -11.535   1.291 -33.724  1.00  0.00     0.227 C 
HETATM    9  O   UNL     1     -11.271   2.376 -34.245  1.00  0.00    -0.273 OA
HETATM   10  H   UNL     1     -11.111  -0.232 -32.418  1.00  0.00     0.169 HD
BRANCH   8  11
HETATM   11  C   UNL     1     -12.893   0.630 -33.952  1.00  0.00     0.159 C 
BRANCH  11  12
HETATM   12  C   UNL     1     -13.994   1.369 -33.263  1.00  0.00     0.017 A 
HETATM   13  N   UNL     1     -13.746   2.332 -32.309  1.00  0.00    -0.369 N 
HETATM   14  H   UNL     1     -12.821   2.594 -31.978  1.00  0.00     0.165 HD
HETATM   15  C   UNL     1     -14.931   2.860 -31.870  1.00  0.00     0.088 A 
HETATM   16  C   UNL     1     -15.952   2.246 -32.559  1.00  0.00     0.019 A 
HETATM   17  C   UNL     1     -15.363   1.306 -33.438  1.00  0.00     0.027 A 
ENDBRANCH  11  12
ENDBRANCH   8  11
ENDBRANCH   4   7
BRANCH   1  18
HETATM   18  S   UNL     1      -4.957   1.429 -31.384  1.00  0.00    -0.091 SA
BRANCH  18  19
HETATM   19  C   UNL     1      -4.334   2.778 -32.371  1.00  0.00     0.005 A 
HETATM   20  C   UNL     1      -5.259   3.551 -33.079  1.00  0.00     0.021 A 
HETATM   21  C   UNL     1      -4.844   4.667 -33.813  1.00  0.00     0.038 A 
HETATM   22  C   UNL     1      -3.499   5.036 -33.839  1.00  0.00     0.068 A 
HETATM   23  C   UNL     1      -2.568   4.264 -33.147  1.00  0.00     0.038 A 
HETATM   24  C   UNL     1      -2.985   3.145 -32.412  1.00  0.00     0.021 A 
BRANCH  22  25
HETATM   25  O   UNL     1      -3.228   6.158 -34.572  1.00  0.00    -0.356 OA
HETATM   26  C   UNL     1      -2.185   6.997 -34.092  1.00  0.00     0.210 C 
ENDBRANCH  22  25
ENDBRANCH  18  19
ENDBRANCH   1  18
TORSDOF 6
ENDMDL
MODEL 5
REMARK VINA RESULT:      -7.2      2.925      9.791
REMARK  6 active torsions:
REMARK  status: ('A' for Active; 'I' for Inactive)
REMARK    1  A    between atoms: O_2  and  C_3 
REMARK    2  A    between atoms: C_6  and  S_7 
REMARK    3  A    between atoms: S_7  and  C_8 
REMARK    4  A    between atoms: C_11  and  N_12 
REMARK       I    between atoms: N_12  and  C_13 
REMARK    5  A    between atoms: C_13  and  C_14 
REMARK    6  A    between atoms: C_14  and  C_15 
ROOT
HETATM    1  C   UNL     1      -3.078   5.274 -33.064  1.00  0.00     0.005 A 
HETATM    2  C   UNL     1      -4.467   5.392 -33.133  1.00  0.00     0.021 A 
HETATM    3  C   UNL     1      -5.292   4.286 -32.889  1.00  0.00     0.031 A 
HETATM    4  C   UNL     1      -4.736   3.042 -32.589  1.00  0.00     0.034 A 
HETATM    5  C   UNL     1      -3.342   2.928 -32.511  1.00  0.00     0.031 A 
HETATM    6  C   UNL     1      -2.517   4.035 -32.746  1.00  0.00     0.021 A 
ENDROOT
BRANCH   4   7
HETATM    7  N   UNL     1      -5.494   1.865 -32.408  1.00  0.00    -0.327 N 
HETATM    8  C   UNL     1      -6.164   1.139 -33.378  1.00  0.00     0.227 C 
HETATM    9  O   UNL     1      -6.350   1.485 -34.545  1.00  0.00    -0.273 OA
HETATM   10  H   UNL     1      -5.565   1.528 -31.456  1.00  0.00     0.169 HD
BRANCH   8  11
HETATM   11  C   UNL     1      -6.695  -0.201 -32.872  1.00  0.00     0.159 C 
BRANCH  11  12
HETATM   12  C   UNL     1      -6.150  -1.348 -33.659  1.00  0.00     0.017 A 
HETATM   13  N   UNL     1      -4.810  -1.669 -33.656  1.00  0.00    -0.369 N 
HETATM   14  H   UNL     1      -4.092  -1.151 -33.158  1.00  0.00     0.165 HD
HETATM   15  C   UNL     1      -4.602  -2.775 -34.437  1.00  0.00     0.088 A 
HETATM   16  C   UNL     1      -5.818  -3.181 -34.935  1.00  0.00     0.019 A 
HETATM   17  C   UNL     1      -6.796  -2.283 -34.445  1.00  0.00     0.027 A 
ENDBRANCH  11  12
ENDBRANCH   8  11
ENDBRANCH   4   7
BRANCH   1  18
HETATM   18  S   UNL     1      -2.047   6.660 -33.484  1.00  0.00    -0.091 SA
BRANCH  18  19
HETATM   19  C   UNL     1      -1.310   7.144 -31.934  1.00  0.00     0.005 A 
HETATM   20  C   UNL     1      -2.058   7.964 -31.082  1.00  0.00     0.021 A 
HETATM   21  C   UNL     1      -1.568   8.319 -29.822  1.00  0.00     0.038 A 
HETATM   22  C   UNL     1      -0.329   7.850 -29.385  1.00  0.00     0.068 A 
HETATM   23  C   UNL     1       0.428   7.042 -30.232  1.00  0.00     0.038 A 
HETATM   24  C   UNL     1      -0.063   6.688 -31.496  1.00  0.00     0.021 A 
BRANCH  22  25
HETATM   25  O   UNL     1       0.023   8.249 -28.126  1.00  0.00    -0.356 OA
HETATM   26  C   UNL     1       1.411   8.434 -27.880  1.00  0.00     0.210 C 
ENDBRANCH  22  25
ENDBRANCH  18  19
ENDBRANCH   1  18
TORSDOF 6
ENDMDL
MODEL 6
REMARK VINA RESULT:      -7.1      5.764      8.829
REMARK  6 active torsions:
REMARK  status: ('A' for Active; 'I' for Inactive)
REMARK    1  A    between atoms: O_2  and  C_3 
REMARK    2  A    between atoms: C_6  and  S_7 
REMARK    3  A    between atoms: S_7  and  C_8 
REMARK    4  A    between atoms: C_11  and  N_12 
REMARK       I    between atoms: N_12  and  C_13 
REMARK    5  A    between atoms: C_13  and  C_14 
REMARK    6  A    between atoms: C_14  and  C_15 
ROOT
HETATM    1  C   UNL     1      -6.348   2.123 -32.512  1.00  0.00     0.005 A 
HETATM    2  C   UNL     1      -6.543   2.978 -33.599  1.00  0.00     0.021 A 
HETATM    3  C   UNL     1      -7.778   3.606 -33.803  1.00  0.00     0.031 A 
HETATM    4  C   UNL     1      -8.843   3.373 -32.931  1.00  0.00     0.034 A 
HETATM    5  C   UNL     1      -8.643   2.521 -31.836  1.00  0.00     0.031 A 
HETATM    6  C   UNL     1      -7.404   1.901 -31.627  1.00  0.00     0.021 A 
ENDROOT
BRANCH   4   7
HETATM    7  N   UNL     1     -10.138   3.904 -33.111  1.00  0.00    -0.327 N 
HETATM    8  C   UNL     1     -11.189   3.337 -33.811  1.00  0.00     0.227 C 
HETATM    9  O   UNL     1     -11.126   2.344 -34.537  1.00  0.00    -0.273 OA
HETATM   10  H   UNL     1     -10.306   4.810 -32.691  1.00  0.00     0.169 HD
BRANCH   8  11
HETATM   11  C   UNL     1     -12.513   4.074 -33.616  1.00  0.00     0.159 C 
BRANCH  11  12
HETATM   12  C   UNL     1     -13.610   3.146 -33.203  1.00  0.00     0.017 A 
HETATM   13  N   UNL     1     -14.084   2.154 -34.034  1.00  0.00    -0.369 N 
HETATM   14  H   UNL     1     -13.761   1.992 -34.984  1.00  0.00     0.165 HD
HETATM   15  C   UNL     1     -15.061   1.444 -33.389  1.00  0.00     0.088 A 
HETATM   16  C   UNL     1     -15.208   1.969 -32.126  1.00  0.00     0.019 A 
HETATM   17  C   UNL     1     -14.292   3.042 -32.007  1.00  0.00     0.027 A 
ENDBRANCH  11  12
ENDBRANCH   8  11
ENDBRANCH   4   7
BRANCH   1  18
HETATM   18  S   UNL     1      -4.809   1.252 -32.333  1.00  0.00    -0.091 SA
BRANCH  18  19
HETATM   19  C   UNL     1      -5.055  -0.263 -33.242  1.00  0.00     0.005 A 
HETATM   20  C   UNL     1      -4.049  -1.233 -33.181  1.00  0.00     0.021 A 
HETATM   21  C   UNL     1      -4.212  -2.470 -33.811  1.00  0.00     0.038 A 
HETATM   22  C   UNL     1      -5.389  -2.765 -34.500  1.00  0.00     0.068 A 
HETATM   23  C   UNL     1      -6.392  -1.800 -34.576  1.00  0.00     0.038 A 
HETATM   24  C   UNL     1      -6.227  -0.558 -33.946  1.00  0.00     0.021 A 
BRANCH  22  25
HETATM   25  O   UNL     1      -5.433  -4.016 -35.049  1.00  0.00    -0.356 OA
HETATM   26  C   UNL     1      -6.718  -4.514 -35.400  1.00  0.00     0.210 C 
ENDBRANCH  22  25
ENDBRANCH  18  19
ENDBRANCH   1  18
TORSDOF 6
ENDMDL
MODEL 7
REMARK VINA RESULT:      -7.1      6.008      9.454
REMARK  6 active torsions:
REMARK  status: ('A' for Active; 'I' for Inactive)
REMARK    1  A    between atoms: O_2  and  C_3 
REMARK    2  A    between atoms: C_6  and  S_7 
REMARK    3  A    between atoms: S_7  and  C_8 
REMARK    4  A    between atoms: C_11  and  N_12 
REMARK       I    between atoms: N_12  and  C_13 
REMARK    5  A    between atoms: C_13  and  C_14 
REMARK    6  A    between atoms: C_14  and  C_15 
ROOT
HETATM    1  C   UNL     1      -9.359   3.198 -34.018  1.00  0.00     0.005 A 
HETATM    2  C   UNL     1      -9.624   1.862 -34.323  1.00  0.00     0.021 A 
HETATM    3  C   UNL     1      -8.590   0.918 -34.358  1.00  0.00     0.031 A 
HETATM    4  C   UNL     1      -7.272   1.301 -34.105  1.00  0.00     0.034 A 
HETATM    5  C   UNL     1      -7.010   2.641 -33.791  1.00  0.00     0.031 A 
HETATM    6  C   UNL     1      -8.045   3.584 -33.746  1.00  0.00     0.021 A 
ENDROOT
BRANCH   4   7
HETATM    7  N   UNL     1      -6.168   0.428 -34.197  1.00  0.00    -0.327 N 
HETATM    8  C   UNL     1      -5.745  -0.496 -33.257  1.00  0.00     0.227 C 
HETATM    9  O   UNL     1      -6.165  -0.603 -32.105  1.00  0.00    -0.273 OA
HETATM   10  H   UNL     1      -5.616   0.502 -35.044  1.00  0.00     0.169 HD
BRANCH   8  11
HETATM   11  C   UNL     1      -4.652  -1.429 -33.775  1.00  0.00     0.159 C 
BRANCH  11  12
HETATM   12  C   UNL     1      -5.210  -2.734 -34.243  1.00  0.00     0.017 A 
HETATM   13  N   UNL     1      -4.486  -3.905 -34.189  1.00  0.00    -0.369 N 
HETATM   14  H   UNL     1      -3.526  -3.976 -33.864  1.00  0.00     0.165 HD
HETATM   15  C   UNL     1      -5.251  -4.940 -34.655  1.00  0.00     0.088 A 
HETATM   16  C   UNL     1      -6.486  -4.438 -34.997  1.00  0.00     0.019 A 
HETATM   17  C   UNL     1      -6.462  -3.047 -34.737  1.00  0.00     0.027 A 
ENDBRANCH  11  12
ENDBRANCH   8  11
ENDBRANCH   4   7
BRANCH   1  18
HETATM   18  S   UNL     1     -10.666   4.401 -34.087  1.00  0.00    -0.091 SA
BRANCH  18  19
HETATM   19  C   UNL     1     -12.118   3.499 -33.578  1.00  0.00     0.005 A 
HETATM   20  C   UNL     1     -12.645   3.769 -32.311  1.00  0.00     0.021 A 
HETATM   21  C   UNL     1     -13.823   3.151 -31.882  1.00  0.00     0.038 A 
HETATM   22  C   UNL     1     -14.502   2.262 -32.716  1.00  0.00     0.068 A 
HETATM   23  C   UNL     1     -13.977   1.978 -33.976  1.00  0.00     0.038 A 
HETATM   24  C   UNL     1     -12.795   2.598 -34.405  1.00  0.00     0.021 A 
BRANCH  22  25
HETATM   25  O   UNL     1     -15.652   1.745 -32.188  1.00  0.00    -0.356 OA
HETATM   26  C   UNL     1     -16.782   2.608 -32.151  1.00  0.00     0.210 C 
ENDBRANCH  22  25
ENDBRANCH  18  19
ENDBRANCH   1  18
TORSDOF 6
ENDMDL
MODEL 8
REMARK VINA RESULT:      -6.8      3.395      9.795
REMARK  6 active torsions:
REMARK  status: ('A' for Active; 'I' for Inactive)
REMARK    1  A    between atoms: O_2  and  C_3 
REMARK    2  A    between atoms: C_6  and  S_7 
REMARK    3  A    between atoms: S_7  and  C_8 
REMARK    4  A    between atoms: C_11  and  N_12 
REMARK       I    between atoms: N_12  and  C_13 
REMARK    5  A    between atoms: C_13  and  C_14 
REMARK    6  A    between atoms: C_14  and  C_15 
ROOT
HETATM    1  C   UNL     1      -3.075   5.091 -33.723  1.00  0.00     0.005 A 
HETATM    2  C   UNL     1      -2.773   4.033 -32.864  1.00  0.00     0.021 A 
HETATM    3  C   UNL     1      -3.751   3.096 -32.511  1.00  0.00     0.031 A 
HETATM    4  C   UNL     1      -5.053   3.213 -33.000  1.00  0.00     0.034 A 
HETATM    5  C   UNL     1      -5.353   4.271 -33.869  1.00  0.00     0.031 A 
HETATM    6  C   UNL     1      -4.372   5.203 -34.230  1.00  0.00     0.021 A 
ENDROOT
BRANCH   4   7
HETATM    7  N   UNL     1      -6.113   2.358 -32.631  1.00  0.00    -0.327 N 
HETATM    8  C   UNL     1      -6.542   1.218 -33.290  1.00  0.00     0.227 C 
HETATM    9  O   UNL     1      -6.178   0.844 -34.405  1.00  0.00    -0.273 OA
HETATM   10  H   UNL     1      -6.622   2.621 -31.796  1.00  0.00     0.169 HD
BRANCH   8  11
HETATM   11  C   UNL     1      -7.566   0.410 -32.495  1.00  0.00     0.159 C 
BRANCH  11  12
HETATM   12  C   UNL     1      -8.959   0.645 -32.983  1.00  0.00     0.017 A 
HETATM   13  N   UNL     1      -9.264   1.646 -33.879  1.00  0.00    -0.369 N 
HETATM   14  H   UNL     1      -8.593   2.312 -34.252  1.00  0.00     0.165 HD
HETATM   15  C   UNL     1     -10.602   1.611 -34.168  1.00  0.00     0.088 A 
HETATM   16  C   UNL     1     -11.164   0.569 -33.467  1.00  0.00     0.019 A 
HETATM   17  C   UNL     1     -10.129  -0.042 -32.719  1.00  0.00     0.027 A 
ENDBRANCH  11  12
ENDBRANCH   8  11
ENDBRANCH   4   7
BRANCH   1  18
HETATM   18  S   UNL     1      -1.850   6.331 -34.071  1.00  0.00    -0.091 SA
BRANCH  18  19
HETATM   19  C   UNL     1      -1.222   6.789 -32.465  1.00  0.00     0.005 A 
HETATM   20  C   UNL     1      -2.018   7.612 -31.663  1.00  0.00     0.021 A 
HETATM   21  C   UNL     1      -1.617   7.948 -30.366  1.00  0.00     0.038 A 
HETATM   22  C   UNL     1      -0.420   7.455 -29.845  1.00  0.00     0.068 A 
HETATM   23  C   UNL     1       0.385   6.644 -30.643  1.00  0.00     0.038 A 
HETATM   24  C   UNL     1      -0.017   6.309 -31.943  1.00  0.00     0.021 A 
BRANCH  22  25
HETATM   25  O   UNL     1      -0.155   7.836 -28.559  1.00  0.00    -0.356 OA
HETATM   26  C   UNL     1       0.677   6.972 -27.795  1.00  0.00     0.210 C 
ENDBRANCH  22  25
ENDBRANCH  18  19
ENDBRANCH   1  18
TORSDOF 6
ENDMDL
MODEL 9
REMARK VINA RESULT:      -6.7     17.479     19.003
REMARK  6 active torsions:
REMARK  status: ('A' for Active; 'I' for Inactive)
REMARK    1  A    between atoms: O_2  and  C_3 
REMARK    2  A    between atoms: C_6  and  S_7 
REMARK    3  A    between atoms: S_7  and  C_8 
REMARK    4  A    between atoms: C_11  and  N_12 
REMARK       I    between atoms: N_12  and  C_13 
REMARK    5  A    between atoms: C_13  and  C_14 
REMARK    6  A    between atoms: C_14  and  C_15 
ROOT
HETATM    1  C   UNL     1      -7.648 -12.522 -39.511  1.00  0.00     0.005 A 
HETATM    2  C   UNL     1      -6.811 -12.159 -40.567  1.00  0.00     0.021 A 
HETATM    3  C   UNL     1      -5.420 -12.146 -40.406  1.00  0.00     0.031 A 
HETATM    4  C   UNL     1      -4.847 -12.482 -39.179  1.00  0.00     0.034 A 
HETATM    5  C   UNL     1      -5.689 -12.855 -38.123  1.00  0.00     0.031 A 
HETATM    6  C   UNL     1      -7.079 -12.876 -38.286  1.00  0.00     0.021 A 
ENDROOT
BRANCH   4   7
HETATM    7  N   UNL     1      -3.463 -12.419 -38.914  1.00  0.00    -0.327 N 
HETATM    8  C   UNL     1      -2.528 -13.427 -39.076  1.00  0.00     0.227 C 
HETATM    9  O   UNL     1      -2.771 -14.608 -39.327  1.00  0.00    -0.273 OA
HETATM   10  H   UNL     1      -3.123 -11.537 -38.549  1.00  0.00     0.169 HD
BRANCH   8  11
HETATM   11  C   UNL     1      -1.087 -12.950 -38.908  1.00  0.00     0.159 C 
BRANCH  11  12
HETATM   12  C   UNL     1      -0.206 -14.026 -38.360  1.00  0.00     0.017 A 
HETATM   13  N   UNL     1      -0.601 -14.841 -37.322  1.00  0.00    -0.369 N 
HETATM   14  H   UNL     1      -1.487 -14.764 -36.832  1.00  0.00     0.165 HD
HETATM   15  C   UNL     1       0.388 -15.748 -37.049  1.00  0.00     0.088 A 
HETATM   16  C   UNL     1       1.424 -15.528 -37.928  1.00  0.00     0.019 A 
HETATM   17  C   UNL     1       1.051 -14.443 -38.757  1.00  0.00     0.027 A 
ENDBRANCH  11  12
ENDBRANCH   8  11
ENDBRANCH   4   7
BRANCH   1  18
HETATM   18  S   UNL     1      -9.413 -12.425 -39.703  1.00  0.00    -0.091 SA
BRANCH  18  19
HETATM   19  C   UNL     1      -9.848 -13.943 -40.531  1.00  0.00     0.005 A 
HETATM   20  C   UNL     1     -11.174 -14.104 -40.947  1.00  0.00     0.021 A 
HETATM   21  C   UNL     1     -11.563 -15.239 -41.666  1.00  0.00     0.038 A 
HETATM   22  C   UNL     1     -10.631 -16.224 -41.993  1.00  0.00     0.068 A 
HETATM   23  C   UNL     1      -9.311 -16.078 -41.572  1.00  0.00     0.038 A 
HETATM   24  C   UNL     1      -8.922 -14.940 -40.850  1.00  0.00     0.021 A 
BRANCH  22  25
HETATM   25  O   UNL     1     -11.133 -17.268 -42.718  1.00  0.00    -0.356 OA
HETATM   26  C   UNL     1     -10.794 -17.309 -44.099  1.00  0.00     0.210 C 
ENDBRANCH  22  25
ENDBRANCH  18  19
ENDBRANCH   1  18
TORSDOF 6
ENDMDL
MODEL 10
REMARK VINA RESULT:      -6.6      3.197      9.659
REMARK  6 active torsions:
REMARK  status: ('A' for Active; 'I' for Inactive)
REMARK    1  A    between atoms: O_2  and  C_3 
REMARK    2  A    between atoms: C_6  and  S_7 
REMARK    3  A    between atoms: S_7  and  C_8 
REMARK    4  A    between atoms: C_11  and  N_12 
REMARK       I    between atoms: N_12  and  C_13 
REMARK    5  A    between atoms: C_13  and  C_14 
REMARK    6  A    between atoms: C_14  and  C_15 
ROOT
HETATM    1  C   UNL     1      -2.931   5.287 -32.724  1.00  0.00     0.005 A 
HETATM    2  C   UNL     1      -2.427   4.320 -31.853  1.00  0.00     0.021 A 
HETATM    3  C   UNL     1      -3.106   3.112 -31.655  1.00  0.00     0.031 A 
HETATM    4  C   UNL     1      -4.311   2.861 -32.314  1.00  0.00     0.034 A 
HETATM    5  C   UNL     1      -4.811   3.829 -33.195  1.00  0.00     0.031 A 
HETATM    6  C   UNL     1      -4.126   5.034 -33.400  1.00  0.00     0.021 A 
ENDROOT
BRANCH   4   7
HETATM    7  N   UNL     1      -5.093   1.705 -32.109  1.00  0.00    -0.327 N 
HETATM    8  C   UNL     1      -6.212   1.579 -31.303  1.00  0.00     0.227 C 
HETATM    9  O   UNL     1      -6.623   2.413 -30.497  1.00  0.00    -0.273 OA
HETATM   10  H   UNL     1      -4.787   0.872 -32.598  1.00  0.00     0.169 HD
BRANCH   8  11
HETATM   11  C   UNL     1      -6.944   0.251 -31.488  1.00  0.00     0.159 C 
BRANCH  11  12
HETATM   12  C   UNL     1      -7.044  -0.133 -32.930  1.00  0.00     0.017 A 
HETATM   13  N   UNL     1      -6.348  -1.200 -33.455  1.00  0.00    -0.369 N 
HETATM   14  H   UNL     1      -5.701  -1.782 -32.931  1.00  0.00     0.165 HD
HETATM   15  C   UNL     1      -6.650  -1.334 -34.784  1.00  0.00     0.088 A 
HETATM   16  C   UNL     1      -7.561  -0.359 -35.116  1.00  0.00     0.019 A 
HETATM   17  C   UNL     1      -7.812   0.400 -33.947  1.00  0.00     0.027 A 
ENDBRANCH  11  12
ENDBRANCH   8  11
ENDBRANCH   4   7
BRANCH   1  18
HETATM   18  S   UNL     1      -2.113   6.858 -32.878  1.00  0.00    -0.091 SA
BRANCH  18  19
HETATM   19  C   UNL     1      -1.439   7.162 -31.255  1.00  0.00     0.005 A 
HETATM   20  C   UNL     1      -0.085   6.883 -31.046  1.00  0.00     0.021 A 
HETATM   21  C   UNL     1       0.521   7.168 -29.818  1.00  0.00     0.038 A 
HETATM   22  C   UNL     1      -0.213   7.748 -28.784  1.00  0.00     0.068 A 
HETATM   23  C   UNL     1      -1.567   8.018 -28.979  1.00  0.00     0.038 A 
HETATM   24  C   UNL     1      -2.174   7.731 -30.210  1.00  0.00     0.021 A 
BRANCH  22  25
HETATM   25  O   UNL     1       0.501   7.998 -27.645  1.00  0.00    -0.356 OA
HETATM   26  C   UNL     1       0.306   7.101 -26.559  1.00  0.00     0.210 C 
ENDBRANCH  22  25
ENDBRANCH  18  19
ENDBRANCH   1  18
TORSDOF 6
ENDMDL
