MODEL 1
REMARK VINA RESULT:      -8.5      0.000      0.000
REMARK  4 active torsions:
REMARK  status: ('A' for Active; 'I' for Inactive)
REMARK    1  A    between atoms: C_5  and  C_6 
REMARK    2  A    between atoms: C_6  and  N_7 
REMARK    3  A    between atoms: C_6  and  C_18 
REMARK    4  A    between atoms: N_7  and  C_8 
ROOT
HETATM    1  C   UNL     1      -6.721   0.647 -33.079  1.00  0.00     0.290 C 
ENDROOT
BRANCH   1   2
HETATM    2  C   UNL     1      -5.979  -0.618 -33.487  1.00  0.00     0.021 A 
HETATM    3  C   UNL     1      -4.878  -1.128 -32.778  1.00  0.00     0.055 A 
HETATM    4  C   UNL     1      -4.252  -2.305 -33.188  1.00  0.00     0.117 A 
HETATM    5  C   UNL     1      -4.695  -3.003 -34.304  1.00  0.00     0.045 A 
HETATM    6  F   UNL     1      -3.212  -2.767 -32.486  1.00  0.00    -0.206 F 
HETATM    7  C   UNL     1      -5.788  -2.520 -35.018  1.00  0.00     0.046 A 
HETATM    8  C   UNL     1      -6.419  -1.346 -34.604  1.00  0.00     0.125 A 
HETATM    9  F   UNL     1      -7.485  -0.923 -35.298  1.00  0.00    -0.205 F 
ENDBRANCH   1   2
BRANCH   1  10
HETATM   10  N   UNL     1      -8.075   0.363 -32.531  1.00  0.00     0.101 NA
HETATM   11  H   UNL     1      -8.035   0.620 -31.541  1.00  0.00     0.317 HD
BRANCH  10  12
HETATM   12  C   UNL     1      -9.259   0.962 -33.155  1.00  0.00     0.225 C 
HETATM   13  C   UNL     1     -10.509   0.055 -33.134  1.00  0.00     0.069 C 
HETATM   14  C   UNL     1     -11.709   0.810 -33.674  1.00  0.00     0.190 C 
HETATM   15  N   UNL     1     -11.941   2.017 -32.809  1.00  0.00    -0.067 N 
HETATM   16  C   UNL     1     -13.055   0.120 -33.589  1.00  0.00     0.035 C 
HETATM   17  H   UNL     1     -12.003   1.695 -31.831  1.00  0.00     0.280 HD
HETATM   18  C   UNL     1     -10.812   2.989 -32.884  1.00  0.00     0.237 C 
HETATM   19  C   UNL     1     -13.316   2.516 -33.170  1.00  0.00     0.235 C 
HETATM   20  C   UNL     1      -9.547   2.285 -32.399  1.00  0.00     0.063 C 
HETATM   21  C   UNL     1     -14.037   1.282 -33.715  1.00  0.00     0.030 C 
ENDBRANCH  10  12
ENDBRANCH   1  10
BRANCH   1  22
HETATM   22  C   UNL     1      -5.961   1.724 -32.302  1.00  0.00    -0.018 A 
HETATM   23  C   UNL     1      -5.199   2.732 -32.907  1.00  0.00     0.029 A 
HETATM   24  C   UNL     1      -4.555   3.666 -32.107  1.00  0.00     0.116 A 
HETATM   25  N   UNL     1      -4.631   3.684 -30.761  1.00  0.00    -0.273 NA
HETATM   26  C   UNL     1      -5.424   2.760 -30.188  1.00  0.00     0.116 A 
HETATM   27  C   UNL     1      -6.099   1.784 -30.904  1.00  0.00     0.029 A 
ENDBRANCH   1  22
TORSDOF 4
ENDMDL
MODEL 2
REMARK VINA RESULT:      -8.3      2.569      6.711
REMARK  4 active torsions:
REMARK  status: ('A' for Active; 'I' for Inactive)
REMARK    1  A    between atoms: C_5  and  C_6 
REMARK    2  A    between atoms: C_6  and  N_7 
REMARK    3  A    between atoms: C_6  and  C_18 
REMARK    4  A    between atoms: N_7  and  C_8 
ROOT
HETATM    1  C   UNL     1      -6.162  -0.286 -33.081  1.00  0.00     0.290 C 
ENDROOT
BRANCH   1   2
HETATM    2  C   UNL     1      -7.536   0.302 -33.373  1.00  0.00     0.021 A 
HETATM    3  C   UNL     1      -8.735  -0.298 -32.954  1.00  0.00     0.055 A 
HETATM    4  C   UNL     1      -9.963   0.300 -33.233  1.00  0.00     0.117 A 
HETATM    5  C   UNL     1     -10.038   1.498 -33.931  1.00  0.00     0.045 A 
HETATM    6  F   UNL     1     -11.087  -0.294 -32.813  1.00  0.00    -0.206 F 
HETATM    7  C   UNL     1      -8.862   2.113 -34.351  1.00  0.00     0.046 A 
HETATM    8  C   UNL     1      -7.632   1.520 -34.066  1.00  0.00     0.125 A 
HETATM    9  F   UNL     1      -6.518   2.152 -34.461  1.00  0.00    -0.205 F 
ENDBRANCH   1   2
BRANCH   1  10
HETATM   10  N   UNL     1      -5.793  -0.187 -31.643  1.00  0.00     0.101 NA
HETATM   11  H   UNL     1      -5.310  -1.061 -31.417  1.00  0.00     0.317 HD
BRANCH  10  12
HETATM   12  C   UNL     1      -5.008   0.956 -31.164  1.00  0.00     0.225 C 
HETATM   13  C   UNL     1      -4.145   1.629 -32.253  1.00  0.00     0.069 C 
HETATM   14  C   UNL     1      -3.483   2.875 -31.696  1.00  0.00     0.190 C 
HETATM   15  N   UNL     1      -4.558   3.822 -31.240  1.00  0.00    -0.067 N 
HETATM   16  C   UNL     1      -2.715   3.744 -32.671  1.00  0.00     0.035 C 
HETATM   17  H   UNL     1      -5.209   3.961 -32.028  1.00  0.00     0.280 HD
HETATM   18  C   UNL     1      -5.351   3.269 -30.103  1.00  0.00     0.237 C 
HETATM   19  C   UNL     1      -3.870   5.146 -31.032  1.00  0.00     0.235 C 
HETATM   20  C   UNL     1      -6.015   1.977 -30.573  1.00  0.00     0.063 C 
HETATM   21  C   UNL     1      -2.642   5.083 -31.942  1.00  0.00     0.030 C 
ENDBRANCH  10  12
ENDBRANCH   1  10
BRANCH   1  22
HETATM   22  C   UNL     1      -5.788  -1.627 -33.716  1.00  0.00    -0.018 A 
HETATM   23  C   UNL     1      -4.522  -2.215 -33.611  1.00  0.00     0.029 A 
HETATM   24  C   UNL     1      -4.291  -3.441 -34.219  1.00  0.00     0.116 A 
HETATM   25  N   UNL     1      -5.228  -4.130 -34.902  1.00  0.00    -0.273 NA
HETATM   26  C   UNL     1      -6.463  -3.597 -34.938  1.00  0.00     0.116 A 
HETATM   27  C   UNL     1      -6.785  -2.376 -34.366  1.00  0.00     0.029 A 
ENDBRANCH   1  22
TORSDOF 4
ENDMDL
MODEL 3
REMARK VINA RESULT:      -8.1     14.637     16.820
REMARK  4 active torsions:
REMARK  status: ('A' for Active; 'I' for Inactive)
REMARK    1  A    between atoms: C_5  and  C_6 
REMARK    2  A    between atoms: C_6  and  N_7 
REMARK    3  A    between atoms: C_6  and  C_18 
REMARK    4  A    between atoms: N_7  and  C_8 
ROOT
HETATM    1  C   UNL     1      -7.158 -13.644 -38.117  1.00  0.00     0.290 C 
ENDROOT
BRANCH   1   2
HETATM    2  C   UNL     1      -8.470 -13.579 -38.887  1.00  0.00     0.021 A 
HETATM    3  C   UNL     1      -9.120 -12.373 -39.202  1.00  0.00     0.055 A 
HETATM    4  C   UNL     1     -10.310 -12.377 -39.929  1.00  0.00     0.117 A 
HETATM    5  C   UNL     1     -10.887 -13.565 -40.359  1.00  0.00     0.045 A 
HETATM    6  F   UNL     1     -10.898 -11.211 -40.220  1.00  0.00    -0.206 F 
HETATM    7  C   UNL     1     -10.257 -14.771 -40.063  1.00  0.00     0.046 A 
HETATM    8  C   UNL     1      -9.063 -14.768 -39.342  1.00  0.00     0.125 A 
HETATM    9  F   UNL     1      -8.469 -15.945 -39.097  1.00  0.00    -0.205 F 
ENDBRANCH   1   2
BRANCH   1  10
HETATM   10  N   UNL     1      -6.360 -12.395 -38.244  1.00  0.00     0.101 NA
HETATM   11  H   UNL     1      -6.321 -11.992 -37.304  1.00  0.00     0.317 HD
BRANCH  10  12
HETATM   12  C   UNL     1      -5.014 -12.440 -38.825  1.00  0.00     0.225 C 
HETATM   13  C   UNL     1      -3.887 -12.657 -37.791  1.00  0.00     0.069 C 
HETATM   14  C   UNL     1      -2.557 -12.826 -38.499  1.00  0.00     0.190 C 
HETATM   15  N   UNL     1      -2.650 -14.020 -39.408  1.00  0.00    -0.067 N 
HETATM   16  C   UNL     1      -1.362 -13.196 -37.644  1.00  0.00     0.035 C 
HETATM   17  H   UNL     1      -2.975 -14.820 -38.844  1.00  0.00     0.280 HD
HETATM   18  C   UNL     1      -3.643 -13.817 -40.503  1.00  0.00     0.237 C 
HETATM   19  C   UNL     1      -1.232 -14.340 -39.803  1.00  0.00     0.235 C 
HETATM   20  C   UNL     1      -5.012 -13.589 -39.866  1.00  0.00     0.063 C 
HETATM   21  C   UNL     1      -0.383 -13.770 -38.665  1.00  0.00     0.030 C 
ENDBRANCH  10  12
ENDBRANCH   1  10
BRANCH   1  22
HETATM   22  C   UNL     1      -7.167 -14.222 -36.700  1.00  0.00    -0.018 A 
HETATM   23  C   UNL     1      -7.096 -15.591 -36.415  1.00  0.00     0.029 A 
HETATM   24  C   UNL     1      -7.102 -16.008 -35.091  1.00  0.00     0.116 A 
HETATM   25  N   UNL     1      -7.153 -15.168 -34.038  1.00  0.00    -0.273 NA
HETATM   26  C   UNL     1      -7.146 -13.851 -34.314  1.00  0.00     0.116 A 
HETATM   27  C   UNL     1      -7.147 -13.342 -35.603  1.00  0.00     0.029 A 
ENDBRANCH   1  22
TORSDOF 4
ENDMDL
MODEL 4
REMARK VINA RESULT:      -8.1      2.898      7.103
REMARK  4 active torsions:
REMARK  status: ('A' for Active; 'I' for Inactive)
REMARK    1  A    between atoms: C_5  and  C_6 
REMARK    2  A    between atoms: C_6  and  N_7 
REMARK    3  A    between atoms: C_6  and  C_18 
REMARK    4  A    between atoms: N_7  and  C_8 
ROOT
HETATM    1  C   UNL     1      -5.149   1.054 -32.353  1.00  0.00     0.290 C 
ENDROOT
BRANCH   1   2
HETATM    2  C   UNL     1      -6.653   1.253 -32.484  1.00  0.00     0.021 A 
HETATM    3  C   UNL     1      -7.240   2.056 -33.477  1.00  0.00     0.055 A 
HETATM    4  C   UNL     1      -8.626   2.182 -33.559  1.00  0.00     0.117 A 
HETATM    5  C   UNL     1      -9.464   1.525 -32.667  1.00  0.00     0.045 A 
HETATM    6  F   UNL     1      -9.154   2.948 -34.522  1.00  0.00    -0.206 F 
HETATM    7  C   UNL     1      -8.903   0.719 -31.679  1.00  0.00     0.046 A 
HETATM    8  C   UNL     1      -7.517   0.586 -31.600  1.00  0.00     0.125 A 
HETATM    9  F   UNL     1      -7.011  -0.218 -30.654  1.00  0.00    -0.205 F 
ENDBRANCH   1   2
BRANCH   1  10
HETATM   10  N   UNL     1      -4.582   1.748 -31.165  1.00  0.00     0.101 NA
HETATM   11  H   UNL     1      -4.077   1.031 -30.638  1.00  0.00     0.317 HD
BRANCH  10  12
HETATM   12  C   UNL     1      -3.732   2.930 -31.342  1.00  0.00     0.225 C 
HETATM   13  C   UNL     1      -3.188   3.105 -32.777  1.00  0.00     0.069 C 
HETATM   14  C   UNL     1      -2.439   4.420 -32.893  1.00  0.00     0.190 C 
HETATM   15  N   UNL     1      -3.390   5.539 -32.568  1.00  0.00    -0.067 N 
HETATM   16  C   UNL     1      -1.964   4.825 -34.273  1.00  0.00     0.035 C 
HETATM   17  H   UNL     1      -4.221   5.429 -33.169  1.00  0.00     0.280 HD
HETATM   18  C   UNL     1      -3.857   5.487 -31.152  1.00  0.00     0.237 C 
HETATM   19  C   UNL     1      -2.706   6.798 -33.031  1.00  0.00     0.235 C 
HETATM   20  C   UNL     1      -4.585   4.161 -30.941  1.00  0.00     0.063 C 
HETATM   21  C   UNL     1      -1.744   6.328 -34.124  1.00  0.00     0.030 C 
ENDBRANCH  10  12
ENDBRANCH   1  10
BRANCH   1  22
HETATM   22  C   UNL     1      -4.573  -0.347 -32.575  1.00  0.00    -0.018 A 
HETATM   23  C   UNL     1      -3.669  -0.966 -31.703  1.00  0.00     0.029 A 
HETATM   24  C   UNL     1      -3.215  -2.245 -31.994  1.00  0.00     0.116 A 
HETATM   25  N   UNL     1      -3.609  -2.956 -33.069  1.00  0.00    -0.273 NA
HETATM   26  C   UNL     1      -4.535  -2.388 -33.864  1.00  0.00     0.116 A 
HETATM   27  C   UNL     1      -5.040  -1.114 -33.657  1.00  0.00     0.029 A 
ENDBRANCH   1  22
TORSDOF 4
ENDMDL
MODEL 5
REMARK VINA RESULT:      -8.0      2.563      6.415
REMARK  4 active torsions:
REMARK  status: ('A' for Active; 'I' for Inactive)
REMARK    1  A    between atoms: C_5  and  C_6 
REMARK    2  A    between atoms: C_6  and  N_7 
REMARK    3  A    between atoms: C_6  and  C_18 
REMARK    4  A    between atoms: N_7  and  C_8 
ROOT
HETATM    1  C   UNL     1      -8.862   1.542 -32.970  1.00  0.00     0.290 C 
ENDROOT
BRANCH   1   2
HETATM    2  C   UNL     1     -10.217   1.666 -33.655  1.00  0.00     0.021 A 
HETATM    3  C   UNL     1     -10.568   2.750 -34.479  1.00  0.00     0.055 A 
HETATM    4  C   UNL     1     -11.817   2.797 -35.096  1.00  0.00     0.117 A 
HETATM    5  C   UNL     1     -12.747   1.781 -34.917  1.00  0.00     0.045 A 
HETATM    6  F   UNL     1     -12.116   3.839 -35.881  1.00  0.00    -0.206 F 
HETATM    7  C   UNL     1     -12.418   0.695 -34.110  1.00  0.00     0.046 A 
HETATM    8  C   UNL     1     -11.166   0.644 -33.497  1.00  0.00     0.125 A 
HETATM    9  F   UNL     1     -10.872  -0.429 -32.749  1.00  0.00    -0.205 F 
ENDBRANCH   1   2
BRANCH   1  10
HETATM   10  N   UNL     1      -7.809   1.018 -33.880  1.00  0.00     0.101 NA
HETATM   11  H   UNL     1      -7.132   1.777 -33.992  1.00  0.00     0.317 HD
BRANCH  10  12
HETATM   12  C   UNL     1      -7.111  -0.230 -33.552  1.00  0.00     0.225 C 
HETATM   13  C   UNL     1      -7.491  -1.422 -34.457  1.00  0.00     0.069 C 
HETATM   14  C   UNL     1      -6.621  -2.622 -34.130  1.00  0.00     0.190 C 
HETATM   15  N   UNL     1      -5.184  -2.244 -34.360  1.00  0.00    -0.067 N 
HETATM   16  C   UNL     1      -6.757  -3.837 -35.024  1.00  0.00     0.035 C 
HETATM   17  H   UNL     1      -5.108  -1.869 -35.318  1.00  0.00     0.280 HD
HETATM   18  C   UNL     1      -4.726  -1.174 -33.427  1.00  0.00     0.237 C 
HETATM   19  C   UNL     1      -4.420  -3.542 -34.361  1.00  0.00     0.235 C 
HETATM   20  C   UNL     1      -5.592   0.062 -33.662  1.00  0.00     0.063 C 
HETATM   21  C   UNL     1      -5.457  -4.594 -34.761  1.00  0.00     0.030 C 
ENDBRANCH  10  12
ENDBRANCH   1  10
BRANCH   1  22
HETATM   22  C   UNL     1      -8.384   2.692 -32.080  1.00  0.00    -0.018 A 
HETATM   23  C   UNL     1      -7.240   3.456 -32.340  1.00  0.00     0.029 A 
HETATM   24  C   UNL     1      -6.899   4.483 -31.471  1.00  0.00     0.116 A 
HETATM   25  N   UNL     1      -7.621   4.818 -30.383  1.00  0.00    -0.273 NA
HETATM   26  C   UNL     1      -8.760   4.130 -30.178  1.00  0.00     0.116 A 
HETATM   27  C   UNL     1      -9.176   3.084 -30.987  1.00  0.00     0.029 A 
ENDBRANCH   1  22
TORSDOF 4
ENDMDL
MODEL 6
REMARK VINA RESULT:      -8.0      1.722      2.199
REMARK  4 active torsions:
REMARK  status: ('A' for Active; 'I' for Inactive)
REMARK    1  A    between atoms: C_5  and  C_6 
REMARK    2  A    between atoms: C_6  and  N_7 
REMARK    3  A    between atoms: C_6  and  C_18 
REMARK    4  A    between atoms: N_7  and  C_8 
ROOT
HETATM    1  C   UNL     1      -7.307   1.700 -33.464  1.00  0.00     0.290 C 
ENDROOT
BRANCH   1   2
HETATM    2  C   UNL     1      -6.418   0.465 -33.409  1.00  0.00     0.021 A 
HETATM    3  C   UNL     1      -6.394  -0.511 -34.420  1.00  0.00     0.055 A 
HETATM    4  C   UNL     1      -5.541  -1.611 -34.324  1.00  0.00     0.117 A 
HETATM    5  C   UNL     1      -4.698  -1.774 -33.233  1.00  0.00     0.045 A 
HETATM    6  F   UNL     1      -5.536  -2.517 -35.308  1.00  0.00    -0.206 F 
HETATM    7  C   UNL     1      -4.702  -0.816 -32.223  1.00  0.00     0.046 A 
HETATM    8  C   UNL     1      -5.549   0.288 -32.321  1.00  0.00     0.125 A 
HETATM    9  F   UNL     1      -5.509   1.205 -31.344  1.00  0.00    -0.205 F 
ENDBRANCH   1   2
BRANCH   1  10
HETATM   10  N   UNL     1      -8.540   1.553 -32.644  1.00  0.00     0.101 NA
HETATM   11  H   UNL     1      -8.429   2.193 -31.854  1.00  0.00     0.317 HD
BRANCH  10  12
HETATM   12  C   UNL     1      -9.858   1.743 -33.261  1.00  0.00     0.225 C 
HETATM   13  C   UNL     1     -10.746   0.479 -33.254  1.00  0.00     0.069 C 
HETATM   14  C   UNL     1     -12.128   0.810 -33.784  1.00  0.00     0.190 C 
HETATM   15  N   UNL     1     -12.735   1.865 -32.901  1.00  0.00    -0.067 N 
HETATM   16  C   UNL     1     -13.176  -0.280 -33.709  1.00  0.00     0.035 C 
HETATM   17  H   UNL     1     -12.686   1.527 -31.928  1.00  0.00     0.280 HD
HETATM   18  C   UNL     1     -11.983   3.152 -32.962  1.00  0.00     0.237 C 
HETATM   19  C   UNL     1     -14.199   1.896 -33.256  1.00  0.00     0.235 C 
HETATM   20  C   UNL     1     -10.556   2.890 -32.486  1.00  0.00     0.063 C 
HETATM   21  C   UNL     1     -14.483   0.502 -33.819  1.00  0.00     0.030 C 
ENDBRANCH  10  12
ENDBRANCH   1  10
BRANCH   1  22
HETATM   22  C   UNL     1      -6.654   3.079 -33.342  1.00  0.00    -0.018 A 
HETATM   23  C   UNL     1      -5.834   3.644 -34.326  1.00  0.00     0.029 A 
HETATM   24  C   UNL     1      -5.298   4.907 -34.118  1.00  0.00     0.116 A 
HETATM   25  N   UNL     1      -5.535   5.653 -33.020  1.00  0.00    -0.273 NA
HETATM   26  C   UNL     1      -6.383   5.138 -32.111  1.00  0.00     0.116 A 
HETATM   27  C   UNL     1      -6.960   3.884 -32.230  1.00  0.00     0.029 A 
ENDBRANCH   1  22
TORSDOF 4
ENDMDL
MODEL 7
REMARK VINA RESULT:      -8.0      2.811      6.415
REMARK  4 active torsions:
REMARK  status: ('A' for Active; 'I' for Inactive)
REMARK    1  A    between atoms: C_5  and  C_6 
REMARK    2  A    between atoms: C_6  and  N_7 
REMARK    3  A    between atoms: C_6  and  C_18 
REMARK    4  A    between atoms: N_7  and  C_8 
ROOT
HETATM    1  C   UNL     1      -5.084  -0.221 -33.202  1.00  0.00     0.290 C 
ENDROOT
BRANCH   1   2
HETATM    2  C   UNL     1      -6.586   0.021 -33.279  1.00  0.00     0.021 A 
HETATM    3  C   UNL     1      -7.424   0.028 -32.150  1.00  0.00     0.055 A 
HETATM    4  C   UNL     1      -8.789   0.277 -32.281  1.00  0.00     0.117 A 
HETATM    5  C   UNL     1      -9.360   0.522 -33.523  1.00  0.00     0.045 A 
HETATM    6  F   UNL     1      -9.557   0.285 -31.185  1.00  0.00    -0.206 F 
HETATM    7  C   UNL     1      -8.548   0.526 -34.654  1.00  0.00     0.046 A 
HETATM    8  C   UNL     1      -7.180   0.284 -34.523  1.00  0.00     0.125 A 
HETATM    9  F   UNL     1      -6.423   0.321 -35.629  1.00  0.00    -0.205 F 
ENDBRANCH   1   2
BRANCH   1  10
HETATM   10  N   UNL     1      -4.431   0.581 -32.133  1.00  0.00     0.101 NA
HETATM   11  H   UNL     1      -3.433   0.362 -32.189  1.00  0.00     0.317 HD
BRANCH  10  12
HETATM   12  C   UNL     1      -4.621   2.035 -32.086  1.00  0.00     0.225 C 
HETATM   13  C   UNL     1      -5.236   2.549 -30.766  1.00  0.00     0.069 C 
HETATM   14  C   UNL     1      -5.265   4.065 -30.760  1.00  0.00     0.190 C 
HETATM   15  N   UNL     1      -3.855   4.569 -30.896  1.00  0.00    -0.067 N 
HETATM   16  C   UNL     1      -5.701   4.743 -29.478  1.00  0.00     0.035 C 
HETATM   17  H   UNL     1      -3.289   4.118 -30.161  1.00  0.00     0.280 HD
HETATM   18  C   UNL     1      -3.250   4.202 -32.210  1.00  0.00     0.237 C 
HETATM   19  C   UNL     1      -3.911   6.031 -30.538  1.00  0.00     0.235 C 
HETATM   20  C   UNL     1      -3.229   2.679 -32.313  1.00  0.00     0.063 C 
HETATM   21  C   UNL     1      -5.141   6.155 -29.637  1.00  0.00     0.030 C 
ENDBRANCH  10  12
ENDBRANCH   1  10
BRANCH   1  22
HETATM   22  C   UNL     1      -4.568  -1.659 -33.288  1.00  0.00    -0.018 A 
HETATM   23  C   UNL     1      -4.819  -2.515 -34.368  1.00  0.00     0.029 A 
HETATM   24  C   UNL     1      -4.295  -3.800 -34.350  1.00  0.00     0.116 A 
HETATM   25  N   UNL     1      -3.528  -4.285 -33.353  1.00  0.00    -0.273 NA
HETATM   26  C   UNL     1      -3.227  -3.436 -32.353  1.00  0.00     0.116 A 
HETATM   27  C   UNL     1      -3.710  -2.138 -32.283  1.00  0.00     0.029 A 
ENDBRANCH   1  22
TORSDOF 4
ENDMDL
MODEL 8
REMARK VINA RESULT:      -8.0      2.070      4.452
REMARK  4 active torsions:
REMARK  status: ('A' for Active; 'I' for Inactive)
REMARK    1  A    between atoms: C_5  and  C_6 
REMARK    2  A    between atoms: C_6  and  N_7 
REMARK    3  A    between atoms: C_6  and  C_18 
REMARK    4  A    between atoms: N_7  and  C_8 
ROOT
HETATM    1  C   UNL     1      -6.511   0.324 -31.827  1.00  0.00     0.290 C 
ENDROOT
BRANCH   1   2
HETATM    2  C   UNL     1      -5.919   1.711 -32.040  1.00  0.00     0.021 A 
HETATM    3  C   UNL     1      -5.852   2.335 -33.298  1.00  0.00     0.055 A 
HETATM    4  C   UNL     1      -5.319   3.617 -33.427  1.00  0.00     0.117 A 
HETATM    5  C   UNL     1      -4.838   4.311 -32.324  1.00  0.00     0.045 A 
HETATM    6  F   UNL     1      -5.277   4.186 -34.637  1.00  0.00    -0.206 F 
HETATM    7  C   UNL     1      -4.900   3.714 -31.067  1.00  0.00     0.046 A 
HETATM    8  C   UNL     1      -5.440   2.434 -30.936  1.00  0.00     0.125 A 
HETATM    9  F   UNL     1      -5.509   1.900 -29.709  1.00  0.00    -0.205 F 
ENDBRANCH   1   2
BRANCH   1  10
HETATM   10  N   UNL     1      -7.959   0.367 -31.488  1.00  0.00     0.101 NA
HETATM   11  H   UNL     1      -8.006   0.612 -30.495  1.00  0.00     0.317 HD
BRANCH  10  12
HETATM   12  C   UNL     1      -8.867   1.224 -32.257  1.00  0.00     0.225 C 
HETATM   13  C   UNL     1     -10.088   0.481 -32.844  1.00  0.00     0.069 C 
HETATM   14  C   UNL     1     -11.033   1.469 -33.501  1.00  0.00     0.190 C 
HETATM   15  N   UNL     1     -11.488   2.455 -32.461  1.00  0.00    -0.067 N 
HETATM   16  C   UNL     1     -12.357   0.931 -34.000  1.00  0.00     0.035 C 
HETATM   17  H   UNL     1     -11.865   1.920 -31.664  1.00  0.00     0.280 HD
HETATM   18  C   UNL     1     -10.362   3.287 -31.943  1.00  0.00     0.237 C 
HETATM   19  C   UNL     1     -12.662   3.174 -33.071  1.00  0.00     0.235 C 
HETATM   20  C   UNL     1      -9.337   2.353 -31.305  1.00  0.00     0.063 C 
HETATM   21  C   UNL     1     -13.214   2.191 -34.106  1.00  0.00     0.030 C 
ENDBRANCH  10  12
ENDBRANCH   1  10
BRANCH   1  22
HETATM   22  C   UNL     1      -6.148  -0.786 -32.816  1.00  0.00    -0.018 A 
HETATM   23  C   UNL     1      -7.052  -1.345 -33.728  1.00  0.00     0.029 A 
HETATM   24  C   UNL     1      -6.616  -2.343 -34.588  1.00  0.00     0.116 A 
HETATM   25  N   UNL     1      -5.351  -2.808 -34.621  1.00  0.00    -0.273 NA
HETATM   26  C   UNL     1      -4.468  -2.218 -33.795  1.00  0.00     0.116 A 
HETATM   27  C   UNL     1      -4.813  -1.219 -32.897  1.00  0.00     0.029 A 
ENDBRANCH   1  22
TORSDOF 4
ENDMDL
MODEL 9
REMARK VINA RESULT:      -7.9      1.855      6.063
REMARK  4 active torsions:
REMARK  status: ('A' for Active; 'I' for Inactive)
REMARK    1  A    between atoms: C_5  and  C_6 
REMARK    2  A    between atoms: C_6  and  N_7 
REMARK    3  A    between atoms: C_6  and  C_18 
REMARK    4  A    between atoms: N_7  and  C_8 
ROOT
HETATM    1  C   UNL     1      -6.668   0.924 -33.307  1.00  0.00     0.290 C 
ENDROOT
BRANCH   1   2
HETATM    2  C   UNL     1      -5.921  -0.378 -33.561  1.00  0.00     0.021 A 
HETATM    3  C   UNL     1      -4.888  -0.848 -32.732  1.00  0.00     0.055 A 
HETATM    4  C   UNL     1      -4.256  -2.061 -33.004  1.00  0.00     0.117 A 
HETATM    5  C   UNL     1      -4.623  -2.835 -34.097  1.00  0.00     0.045 A 
HETATM    6  F   UNL     1      -3.282  -2.483 -32.189  1.00  0.00    -0.206 F 
HETATM    7  C   UNL     1      -5.647  -2.391 -34.929  1.00  0.00     0.046 A 
HETATM    8  C   UNL     1      -6.286  -1.182 -34.653  1.00  0.00     0.125 A 
HETATM    9  F   UNL     1      -7.286  -0.797 -35.459  1.00  0.00    -0.205 F 
ENDBRANCH   1   2
BRANCH   1  10
HETATM   10  N   UNL     1      -6.043   2.085 -33.997  1.00  0.00     0.101 NA
HETATM   11  H   UNL     1      -6.736   2.414 -34.674  1.00  0.00     0.317 HD
BRANCH  10  12
HETATM   12  C   UNL     1      -5.534   3.215 -33.214  1.00  0.00     0.225 C 
HETATM   13  C   UNL     1      -4.088   3.028 -32.702  1.00  0.00     0.069 C 
HETATM   14  C   UNL     1      -3.606   4.298 -32.027  1.00  0.00     0.190 C 
HETATM   15  N   UNL     1      -3.651   5.417 -33.030  1.00  0.00    -0.067 N 
HETATM   16  C   UNL     1      -2.155   4.342 -31.596  1.00  0.00     0.035 C 
HETATM   17  H   UNL     1      -3.125   5.112 -33.864  1.00  0.00     0.280 HD
HETATM   18  C   UNL     1      -5.043   5.723 -33.471  1.00  0.00     0.237 C 
HETATM   19  C   UNL     1      -2.850   6.538 -32.422  1.00  0.00     0.235 C 
HETATM   20  C   UNL     1      -5.620   4.468 -34.123  1.00  0.00     0.063 C 
HETATM   21  C   UNL     1      -1.892   5.840 -31.454  1.00  0.00     0.030 C 
ENDBRANCH  10  12
ENDBRANCH   1  10
BRANCH   1  22
HETATM   22  C   UNL     1      -8.197   0.919 -33.384  1.00  0.00    -0.018 A 
HETATM   23  C   UNL     1      -8.939   1.760 -34.221  1.00  0.00     0.029 A 
HETATM   24  C   UNL     1     -10.324   1.667 -34.220  1.00  0.00     0.116 A 
HETATM   25  N   UNL     1     -11.018   0.790 -33.468  1.00  0.00    -0.273 NA
HETATM   26  C   UNL     1     -10.299  -0.068 -32.721  1.00  0.00     0.116 A 
HETATM   27  C   UNL     1      -8.914  -0.045 -32.653  1.00  0.00     0.029 A 
ENDBRANCH   1  22
TORSDOF 4
ENDMDL
MODEL 10
REMARK VINA RESULT:      -7.9      2.554      6.279
REMARK  4 active torsions:
REMARK  status: ('A' for Active; 'I' for Inactive)
REMARK    1  A    between atoms: C_5  and  C_6 
REMARK    2  A    between atoms: C_6  and  N_7 
REMARK    3  A    between atoms: C_6  and  C_18 
REMARK    4  A    between atoms: N_7  and  C_8 
ROOT
HETATM    1  C   UNL     1      -7.911   1.356 -32.511  1.00  0.00     0.290 C 
ENDROOT
BRANCH   1   2
HETATM    2  C   UNL     1      -9.269   1.529 -33.177  1.00  0.00     0.021 A 
HETATM    3  C   UNL     1     -10.322   0.609 -33.031  1.00  0.00     0.055 A 
HETATM    4  C   UNL     1     -11.552   0.834 -33.649  1.00  0.00     0.117 A 
HETATM    5  C   UNL     1     -11.772   1.965 -34.424  1.00  0.00     0.045 A 
HETATM    6  F   UNL     1     -12.535  -0.058 -33.482  1.00  0.00    -0.206 F 
HETATM    7  C   UNL     1     -10.745   2.893 -34.577  1.00  0.00     0.046 A 
HETATM    8  C   UNL     1      -9.516   2.673 -33.954  1.00  0.00     0.125 A 
HETATM    9  F   UNL     1      -8.558   3.598 -34.100  1.00  0.00    -0.205 F 
ENDBRANCH   1   2
BRANCH   1  10
HETATM   10  N   UNL     1      -6.891   0.788 -33.433  1.00  0.00     0.101 NA
HETATM   11  H   UNL     1      -6.109   1.448 -33.426  1.00  0.00     0.317 HD
BRANCH  10  12
HETATM   12  C   UNL     1      -6.395  -0.577 -33.227  1.00  0.00     0.225 C 
HETATM   13  C   UNL     1      -6.883  -1.591 -34.285  1.00  0.00     0.069 C 
HETATM   14  C   UNL     1      -6.211  -2.934 -34.068  1.00  0.00     0.190 C 
HETATM   15  N   UNL     1      -4.724  -2.747 -34.189  1.00  0.00    -0.067 N 
HETATM   16  C   UNL     1      -6.461  -4.007 -35.107  1.00  0.00     0.035 C 
HETATM   17  H   UNL     1      -4.539  -2.281 -35.090  1.00  0.00     0.280 HD
HETATM   18  C   UNL     1      -4.178  -1.867 -33.114  1.00  0.00     0.237 C 
HETATM   19  C   UNL     1      -4.150  -4.133 -34.313  1.00  0.00     0.235 C 
HETATM   20  C   UNL     1      -4.847  -0.499 -33.236  1.00  0.00     0.063 C 
HETATM   21  C   UNL     1      -5.298  -4.971 -34.881  1.00  0.00     0.030 C 
ENDBRANCH  10  12
ENDBRANCH   1  10
BRANCH   1  22
HETATM   22  C   UNL     1      -7.376   2.489 -31.632  1.00  0.00    -0.018 A 
HETATM   23  C   UNL     1      -8.055   3.000 -30.519  1.00  0.00     0.029 A 
HETATM   24  C   UNL     1      -7.475   4.024 -29.783  1.00  0.00     0.116 A 
HETATM   25  N   UNL     1      -6.269   4.559 -30.059  1.00  0.00    -0.273 NA
HETATM   26  C   UNL     1      -5.587   4.014 -31.084  1.00  0.00     0.116 A 
HETATM   27  C   UNL     1      -6.088   2.995 -31.878  1.00  0.00     0.029 A 
ENDBRANCH   1  22
TORSDOF 4
ENDMDL
