MODEL 1
REMARK VINA RESULT:      -7.8      0.000      0.000
REMARK  6 active torsions:
REMARK  status: ('A' for Active; 'I' for Inactive)
REMARK    1  A    between atoms: C_2  and  N_3 
REMARK    2  A    between atoms: C_2  and  C_21 
REMARK    3  A    between atoms: N_3  and  C_6 
REMARK    4  A    between atoms: C_6  and  C_7 
REMARK       I    between atoms: C_7  and  N_8 
REMARK    5  A    between atoms: N_8  and  C_9 
REMARK    6  A    between atoms: C_16  and  C_17 
REMARK       I    between atoms: C_17  and  N_18 
ROOT
HETATM    1  C   UNL     1      -4.953   1.953 -31.264  1.00  0.00     0.248 C 
HETATM    2  N   UNL     1      -4.926   1.576 -32.587  1.00  0.00    -0.319 N 
HETATM    3  O   UNL     1      -5.214   1.280 -30.271  1.00  0.00    -0.271 OA
HETATM    4  H   UNL     1      -4.658   2.255 -33.302  1.00  0.00     0.169 HD
ENDROOT
BRANCH   2   5
HETATM    5  C   UNL     1      -5.068   0.293 -33.100  1.00  0.00     0.093 A 
HETATM    6  S   UNL     1      -3.771  -0.817 -33.112  1.00  0.00    -0.075 SA
HETATM    7  C   UNL     1      -4.716  -1.946 -33.892  1.00  0.00    -0.008 A 
HETATM    8  C   UNL     1      -6.001  -1.542 -34.132  1.00  0.00    -0.026 A 
HETATM    9  C   UNL     1      -4.382  -3.296 -34.401  1.00  0.00     0.047 C 
HETATM   10  C   UNL     1      -6.745  -2.603 -34.864  1.00  0.00     0.041 C 
HETATM   11  C   UNL     1      -6.243  -0.214 -33.670  1.00  0.00     0.072 A 
HETATM   12  C   UNL     1      -5.796  -3.838 -34.755  1.00  0.00     0.010 C 
BRANCH  11  13
HETATM   13  C   UNL     1      -7.447   0.613 -33.768  1.00  0.00     0.252 C 
HETATM   14  N   UNL     1      -7.993   0.787 -35.002  1.00  0.00    -0.366 N 
HETATM   15  H   UNL     1      -7.705   0.260 -35.810  1.00  0.00     0.159 HD
HETATM   16  H   UNL     1      -8.871   1.287 -35.061  1.00  0.00     0.159 HD
HETATM   17  O   UNL     1      -7.970   1.120 -32.775  1.00  0.00    -0.268 OA
ENDBRANCH  11  13
ENDBRANCH   2   5
BRANCH   1  18
HETATM   18  C   UNL     1      -4.490   3.389 -31.037  1.00  0.00     0.335 C 
BRANCH  18  19
HETATM   19  N   UNL     1      -3.002   3.518 -31.264  1.00  0.00    -0.057 N 
HETATM   20  H   UNL     1      -2.738   2.662 -31.789  1.00  0.00     0.278 HD
HETATM   21  H   UNL     1      -2.497   3.473 -30.374  1.00  0.00     0.278 HD
BRANCH  19  22
HETATM   22  C   UNL     1      -2.496   4.670 -32.090  1.00  0.00     0.239 C 
HETATM   23  C   UNL     1      -2.375   4.262 -33.554  1.00  0.00     0.047 C 
BRANCH  22  24
HETATM   24  C   UNL     1      -1.259   5.269 -31.523  1.00  0.00     0.082 A 
HETATM   25  O   UNL     1      -0.581   4.458 -30.659  1.00  0.00    -0.325 OA
HETATM   26  C   UNL     1       0.526   5.132 -30.260  1.00  0.00     0.142 A 
HETATM   27  C   UNL     1       0.572   6.370 -30.855  1.00  0.00     0.027 A 
HETATM   28  C   UNL     1      -0.583   6.463 -31.672  1.00  0.00     0.037 A 
ENDBRANCH  22  24
ENDBRANCH  19  22
ENDBRANCH  18  19
ENDBRANCH   1  18
TORSDOF 6
ENDMDL
MODEL 2
REMARK VINA RESULT:      -7.6      2.080      3.255
REMARK  6 active torsions:
REMARK  status: ('A' for Active; 'I' for Inactive)
REMARK    1  A    between atoms: C_2  and  N_3 
REMARK    2  A    between atoms: C_2  and  C_21 
REMARK    3  A    between atoms: N_3  and  C_6 
REMARK    4  A    between atoms: C_6  and  C_7 
REMARK       I    between atoms: C_7  and  N_8 
REMARK    5  A    between atoms: N_8  and  C_9 
REMARK    6  A    between atoms: C_16  and  C_17 
REMARK       I    between atoms: C_17  and  N_18 
ROOT
HETATM    1  C   UNL     1      -5.958   1.128 -32.161  1.00  0.00     0.248 C 
HETATM    2  N   UNL     1      -5.411   0.590 -33.303  1.00  0.00    -0.319 N 
HETATM    3  O   UNL     1      -6.694   0.602 -31.331  1.00  0.00    -0.271 OA
HETATM    4  H   UNL     1      -4.787   1.156 -33.882  1.00  0.00     0.169 HD
ENDROOT
BRANCH   2   5
HETATM    5  C   UNL     1      -5.468  -0.733 -33.720  1.00  0.00     0.093 A 
HETATM    6  S   UNL     1      -6.762  -1.320 -34.667  1.00  0.00    -0.075 SA
HETATM    7  C   UNL     1      -6.116  -2.855 -34.638  1.00  0.00    -0.008 A 
HETATM    8  C   UNL     1      -4.931  -2.959 -33.962  1.00  0.00    -0.026 A 
HETATM    9  C   UNL     1      -6.632  -4.129 -35.191  1.00  0.00     0.047 C 
HETATM   10  C   UNL     1      -4.462  -4.373 -33.962  1.00  0.00     0.041 C 
HETATM   11  C   UNL     1      -4.518  -1.713 -33.405  1.00  0.00     0.072 A 
HETATM   12  C   UNL     1      -5.394  -5.053 -35.013  1.00  0.00     0.010 C 
BRANCH  11  13
HETATM   13  C   UNL     1      -3.355  -1.390 -32.577  1.00  0.00     0.252 C 
HETATM   14  N   UNL     1      -2.911  -2.345 -31.715  1.00  0.00    -0.366 N 
HETATM   15  H   UNL     1      -3.241  -3.297 -31.731  1.00  0.00     0.159 HD
HETATM   16  H   UNL     1      -2.058  -2.157 -31.203  1.00  0.00     0.159 HD
HETATM   17  O   UNL     1      -2.775  -0.307 -32.662  1.00  0.00    -0.268 OA
ENDBRANCH  11  13
ENDBRANCH   2   5
BRANCH   1  18
HETATM   18  C   UNL     1      -5.474   2.547 -31.871  1.00  0.00     0.335 C 
BRANCH  18  19
HETATM   19  N   UNL     1      -3.979   2.656 -32.062  1.00  0.00    -0.057 N 
HETATM   20  H   UNL     1      -3.831   2.531 -33.082  1.00  0.00     0.278 HD
HETATM   21  H   UNL     1      -3.501   1.872 -31.608  1.00  0.00     0.278 HD
BRANCH  19  22
HETATM   22  C   UNL     1      -3.300   3.952 -31.711  1.00  0.00     0.239 C 
HETATM   23  C   UNL     1      -4.260   4.869 -30.962  1.00  0.00     0.047 C 
BRANCH  22  24
HETATM   24  C   UNL     1      -2.652   4.585 -32.889  1.00  0.00     0.082 A 
HETATM   25  O   UNL     1      -3.460   4.708 -33.983  1.00  0.00    -0.325 OA
HETATM   26  C   UNL     1      -2.736   5.325 -34.950  1.00  0.00     0.142 A 
HETATM   27  C   UNL     1      -1.469   5.602 -34.495  1.00  0.00     0.027 A 
HETATM   28  C   UNL     1      -1.410   5.123 -33.162  1.00  0.00     0.037 A 
ENDBRANCH  22  24
ENDBRANCH  19  22
ENDBRANCH  18  19
ENDBRANCH   1  18
TORSDOF 6
ENDMDL
MODEL 3
REMARK VINA RESULT:      -7.6      1.892      2.347
REMARK  6 active torsions:
REMARK  status: ('A' for Active; 'I' for Inactive)
REMARK    1  A    between atoms: C_2  and  N_3 
REMARK    2  A    between atoms: C_2  and  C_21 
REMARK    3  A    between atoms: N_3  and  C_6 
REMARK    4  A    between atoms: C_6  and  C_7 
REMARK       I    between atoms: C_7  and  N_8 
REMARK    5  A    between atoms: N_8  and  C_9 
REMARK    6  A    between atoms: C_16  and  C_17 
REMARK       I    between atoms: C_17  and  N_18 
ROOT
HETATM    1  C   UNL     1      -5.936   1.433 -31.603  1.00  0.00     0.248 C 
HETATM    2  N   UNL     1      -5.499   0.987 -32.828  1.00  0.00    -0.319 N 
HETATM    3  O   UNL     1      -6.496   0.810 -30.705  1.00  0.00    -0.271 OA
HETATM    4  H   UNL     1      -5.021   1.632 -33.462  1.00  0.00     0.169 HD
ENDROOT
BRANCH   2   5
HETATM    5  C   UNL     1      -5.477  -0.323 -33.289  1.00  0.00     0.093 A 
HETATM    6  S   UNL     1      -4.080  -1.296 -33.156  1.00  0.00    -0.075 SA
HETATM    7  C   UNL     1      -4.849  -2.545 -33.946  1.00  0.00    -0.008 A 
HETATM    8  C   UNL     1      -6.146  -2.283 -34.296  1.00  0.00    -0.026 A 
HETATM    9  C   UNL     1      -4.348  -3.875 -34.365  1.00  0.00     0.047 C 
HETATM   10  C   UNL     1      -6.725  -3.442 -35.028  1.00  0.00     0.041 C 
HETATM   11  C   UNL     1      -6.550  -0.968 -33.916  1.00  0.00     0.072 A 
HETATM   12  C   UNL     1      -5.671  -4.569 -34.793  1.00  0.00     0.010 C 
BRANCH  11  13
HETATM   13  C   UNL     1      -7.818  -0.272 -34.138  1.00  0.00     0.252 C 
HETATM   14  N   UNL     1      -8.086   0.161 -35.400  1.00  0.00    -0.366 N 
HETATM   15  H   UNL     1      -7.537  -0.105 -36.202  1.00  0.00     0.159 HD
HETATM   16  H   UNL     1      -8.997   0.568 -35.574  1.00  0.00     0.159 HD
HETATM   17  O   UNL     1      -8.632  -0.096 -33.231  1.00  0.00    -0.268 OA
ENDBRANCH  11  13
ENDBRANCH   2   5
BRANCH   1  18
HETATM   18  C   UNL     1      -5.565   2.887 -31.322  1.00  0.00     0.335 C 
BRANCH  18  19
HETATM   19  N   UNL     1      -4.070   3.088 -31.410  1.00  0.00    -0.057 N 
HETATM   20  H   UNL     1      -3.786   2.590 -32.276  1.00  0.00     0.278 HD
HETATM   21  H   UNL     1      -3.597   2.608 -30.639  1.00  0.00     0.278 HD
BRANCH  19  22
HETATM   22  C   UNL     1      -3.538   4.488 -31.556  1.00  0.00     0.239 C 
HETATM   23  C   UNL     1      -4.562   5.500 -31.057  1.00  0.00     0.047 C 
BRANCH  22  24
HETATM   24  C   UNL     1      -3.036   4.759 -32.928  1.00  0.00     0.082 A 
HETATM   25  O   UNL     1      -4.008   5.063 -33.838  1.00  0.00    -0.325 OA
HETATM   26  C   UNL     1      -3.390   5.311 -35.020  1.00  0.00     0.142 A 
HETATM   27  C   UNL     1      -2.029   5.171 -34.885  1.00  0.00     0.027 A 
HETATM   28  C   UNL     1      -1.796   4.812 -33.534  1.00  0.00     0.037 A 
ENDBRANCH  22  24
ENDBRANCH  19  22
ENDBRANCH  18  19
ENDBRANCH   1  18
TORSDOF 6
ENDMDL
MODEL 4
REMARK VINA RESULT:      -7.5      1.434      2.420
REMARK  6 active torsions:
REMARK  status: ('A' for Active; 'I' for Inactive)
REMARK    1  A    between atoms: C_2  and  N_3 
REMARK    2  A    between atoms: C_2  and  C_21 
REMARK    3  A    between atoms: N_3  and  C_6 
REMARK    4  A    between atoms: C_6  and  C_7 
REMARK       I    between atoms: C_7  and  N_8 
REMARK    5  A    between atoms: N_8  and  C_9 
REMARK    6  A    between atoms: C_16  and  C_17 
REMARK       I    between atoms: C_17  and  N_18 
ROOT
HETATM    1  C   UNL     1      -5.308   2.324 -31.170  1.00  0.00     0.248 C 
HETATM    2  N   UNL     1      -4.852   1.879 -32.389  1.00  0.00    -0.319 N 
HETATM    3  O   UNL     1      -6.087   1.785 -30.389  1.00  0.00    -0.271 OA
HETATM    4  H   UNL     1      -4.175   2.438 -32.912  1.00  0.00     0.169 HD
ENDROOT
BRANCH   2   5
HETATM    5  C   UNL     1      -5.075   0.637 -32.969  1.00  0.00     0.093 A 
HETATM    6  S   UNL     1      -6.427   0.345 -33.970  1.00  0.00    -0.075 SA
HETATM    7  C   UNL     1      -5.984  -1.252 -34.140  1.00  0.00    -0.008 A 
HETATM    8  C   UNL     1      -4.827  -1.592 -33.492  1.00  0.00    -0.026 A 
HETATM    9  C   UNL     1      -6.655  -2.369 -34.844  1.00  0.00     0.047 C 
HETATM   10  C   UNL     1      -4.543  -3.042 -33.674  1.00  0.00     0.041 C 
HETATM   11  C   UNL     1      -4.261  -0.488 -32.786  1.00  0.00     0.072 A 
HETATM   12  C   UNL     1      -5.547  -3.459 -34.794  1.00  0.00     0.010 C 
BRANCH  11  13
HETATM   13  C   UNL     1      -3.072  -0.425 -31.935  1.00  0.00     0.252 C 
HETATM   14  N   UNL     1      -2.461  -1.598 -31.617  1.00  0.00    -0.366 N 
HETATM   15  H   UNL     1      -2.691  -2.475 -32.057  1.00  0.00     0.159 HD
HETATM   16  H   UNL     1      -1.593  -1.551 -31.099  1.00  0.00     0.159 HD
HETATM   17  O   UNL     1      -2.618   0.646 -31.531  1.00  0.00    -0.268 OA
ENDBRANCH  11  13
ENDBRANCH   2   5
BRANCH   1  18
HETATM   18  C   UNL     1      -4.652   3.627 -30.719  1.00  0.00     0.335 C 
BRANCH  18  19
HETATM   19  N   UNL     1      -3.174   3.622 -31.032  1.00  0.00    -0.057 N 
HETATM   20  H   UNL     1      -3.013   2.730 -31.539  1.00  0.00     0.278 HD
HETATM   21  H   UNL     1      -2.625   3.561 -30.170  1.00  0.00     0.278 HD
BRANCH  19  22
HETATM   22  C   UNL     1      -2.623   4.700 -31.925  1.00  0.00     0.239 C 
HETATM   23  C   UNL     1      -2.481   4.187 -33.353  1.00  0.00     0.047 C 
BRANCH  22  24
HETATM   24  C   UNL     1      -1.384   5.309 -31.373  1.00  0.00     0.082 A 
HETATM   25  O   UNL     1      -0.591   4.446 -30.672  1.00  0.00    -0.325 OA
HETATM   26  C   UNL     1       0.501   5.142 -30.266  1.00  0.00     0.142 A 
HETATM   27  C   UNL     1       0.423   6.445 -30.696  1.00  0.00     0.027 A 
HETATM   28  C   UNL     1      -0.796   6.558 -31.412  1.00  0.00     0.037 A 
ENDBRANCH  22  24
ENDBRANCH  19  22
ENDBRANCH  18  19
ENDBRANCH   1  18
TORSDOF 6
ENDMDL
MODEL 5
REMARK VINA RESULT:      -7.2      5.179      8.023
REMARK  6 active torsions:
REMARK  status: ('A' for Active; 'I' for Inactive)
REMARK    1  A    between atoms: C_2  and  N_3 
REMARK    2  A    between atoms: C_2  and  C_21 
REMARK    3  A    between atoms: N_3  and  C_6 
REMARK    4  A    between atoms: C_6  and  C_7 
REMARK       I    between atoms: C_7  and  N_8 
REMARK    5  A    between atoms: N_8  and  C_9 
REMARK    6  A    between atoms: C_16  and  C_17 
REMARK       I    between atoms: C_17  and  N_18 
ROOT
HETATM    1  C   UNL     1      -9.278   3.071 -31.105  1.00  0.00     0.248 C 
HETATM    2  N   UNL     1      -9.182   1.703 -30.998  1.00  0.00    -0.319 N 
HETATM    3  O   UNL     1      -8.575   3.851 -31.742  1.00  0.00    -0.271 OA
HETATM    4  H   UNL     1      -9.871   1.188 -30.445  1.00  0.00     0.169 HD
ENDROOT
BRANCH   2   5
HETATM    5  C   UNL     1      -8.328   0.861 -31.698  1.00  0.00     0.093 A 
HETATM    6  S   UNL     1      -6.793   0.432 -31.086  1.00  0.00    -0.075 SA
HETATM    7  C   UNL     1      -6.463  -0.443 -32.464  1.00  0.00    -0.008 A 
HETATM    8  C   UNL     1      -7.479  -0.460 -33.382  1.00  0.00    -0.026 A 
HETATM    9  C   UNL     1      -5.241  -1.173 -32.875  1.00  0.00     0.047 C 
HETATM   10  C   UNL     1      -7.069  -1.232 -34.587  1.00  0.00     0.041 C 
HETATM   11  C   UNL     1      -8.603   0.307 -32.954  1.00  0.00     0.072 A 
HETATM   12  C   UNL     1      -5.759  -1.942 -34.122  1.00  0.00     0.010 C 
BRANCH  11  13
HETATM   13  C   UNL     1      -9.864   0.592 -33.640  1.00  0.00     0.252 C 
HETATM   14  N   UNL     1      -9.807   1.324 -34.786  1.00  0.00    -0.366 N 
HETATM   15  H   UNL     1      -8.943   1.541 -35.257  1.00  0.00     0.159 HD
HETATM   16  H   UNL     1     -10.665   1.452 -35.306  1.00  0.00     0.159 HD
HETATM   17  O   UNL     1     -10.944   0.174 -33.219  1.00  0.00    -0.268 OA
ENDBRANCH  11  13
ENDBRANCH   2   5
BRANCH   1  18
HETATM   18  C   UNL     1     -10.504   3.647 -30.401  1.00  0.00     0.335 C 
BRANCH  18  19
HETATM   19  N   UNL     1     -11.426   4.321 -31.389  1.00  0.00    -0.057 N 
HETATM   20  H   UNL     1     -10.882   5.126 -31.754  1.00  0.00     0.278 HD
HETATM   21  H   UNL     1     -12.237   4.721 -30.908  1.00  0.00     0.278 HD
BRANCH  19  22
HETATM   22  C   UNL     1     -11.870   3.550 -32.602  1.00  0.00     0.239 C 
HETATM   23  C   UNL     1     -11.649   4.374 -33.866  1.00  0.00     0.047 C 
BRANCH  22  24
HETATM   24  C   UNL     1     -13.251   3.019 -32.459  1.00  0.00     0.082 A 
HETATM   25  O   UNL     1     -13.574   2.032 -33.346  1.00  0.00    -0.325 OA
HETATM   26  C   UNL     1     -14.842   1.639 -33.065  1.00  0.00     0.142 A 
HETATM   27  C   UNL     1     -15.343   2.360 -32.008  1.00  0.00     0.027 A 
HETATM   28  C   UNL     1     -14.317   3.256 -31.614  1.00  0.00     0.037 A 
ENDBRANCH  22  24
ENDBRANCH  19  22
ENDBRANCH  18  19
ENDBRANCH   1  18
TORSDOF 6
ENDMDL
MODEL 6
REMARK VINA RESULT:      -6.9      3.492      5.191
REMARK  6 active torsions:
REMARK  status: ('A' for Active; 'I' for Inactive)
REMARK    1  A    between atoms: C_2  and  N_3 
REMARK    2  A    between atoms: C_2  and  C_21 
REMARK    3  A    between atoms: N_3  and  C_6 
REMARK    4  A    between atoms: C_6  and  C_7 
REMARK       I    between atoms: C_7  and  N_8 
REMARK    5  A    between atoms: N_8  and  C_9 
REMARK    6  A    between atoms: C_16  and  C_17 
REMARK       I    between atoms: C_17  and  N_18 
ROOT
HETATM    1  C   UNL     1      -6.090   1.323 -31.481  1.00  0.00     0.248 C 
HETATM    2  N   UNL     1      -5.628   0.927 -32.715  1.00  0.00    -0.319 N 
HETATM    3  O   UNL     1      -6.635   0.656 -30.606  1.00  0.00    -0.271 OA
HETATM    4  H   UNL     1      -5.166   1.605 -33.324  1.00  0.00     0.169 HD
ENDROOT
BRANCH   2   5
HETATM    5  C   UNL     1      -5.560  -0.368 -33.212  1.00  0.00     0.093 A 
HETATM    6  S   UNL     1      -4.143  -1.309 -33.069  1.00  0.00    -0.075 SA
HETATM    7  C   UNL     1      -4.857  -2.553 -33.917  1.00  0.00    -0.008 A 
HETATM    8  C   UNL     1      -6.150  -2.313 -34.294  1.00  0.00    -0.026 A 
HETATM    9  C   UNL     1      -4.311  -3.856 -34.361  1.00  0.00     0.047 C 
HETATM   10  C   UNL     1      -6.680  -3.464 -35.076  1.00  0.00     0.041 C 
HETATM   11  C   UNL     1      -6.599  -1.020 -33.888  1.00  0.00     0.072 A 
HETATM   12  C   UNL     1      -5.604  -4.571 -34.846  1.00  0.00     0.010 C 
BRANCH  11  13
HETATM   13  C   UNL     1      -7.878  -0.350 -34.125  1.00  0.00     0.252 C 
HETATM   14  N   UNL     1      -8.112   0.138 -35.373  1.00  0.00    -0.366 N 
HETATM   15  H   UNL     1      -7.526  -0.073 -36.165  1.00  0.00     0.159 HD
HETATM   16  H   UNL     1      -9.027   0.527 -35.562  1.00  0.00     0.159 HD
HETATM   17  O   UNL     1      -8.730  -0.242 -33.242  1.00  0.00    -0.268 OA
ENDBRANCH  11  13
ENDBRANCH   2   5
BRANCH   1  18
HETATM   18  C   UNL     1      -5.767   2.779 -31.155  1.00  0.00     0.335 C 
BRANCH  18  19
HETATM   19  N   UNL     1      -6.415   3.710 -32.153  1.00  0.00    -0.057 N 
HETATM   20  H   UNL     1      -6.523   3.143 -33.015  1.00  0.00     0.278 HD
HETATM   21  H   UNL     1      -5.780   4.476 -32.394  1.00  0.00     0.278 HD
BRANCH  19  22
HETATM   22  C   UNL     1      -7.787   4.249 -31.850  1.00  0.00     0.239 C 
HETATM   23  C   UNL     1      -8.059   4.201 -30.351  1.00  0.00     0.047 C 
BRANCH  22  24
HETATM   24  C   UNL     1      -8.840   3.604 -32.678  1.00  0.00     0.082 A 
HETATM   25  O   UNL     1      -9.820   2.977 -31.963  1.00  0.00    -0.325 OA
HETATM   26  C   UNL     1     -10.709   2.472 -32.854  1.00  0.00     0.142 A 
HETATM   27  C   UNL     1     -10.316   2.765 -34.138  1.00  0.00     0.027 A 
HETATM   28  C   UNL     1      -9.106   3.496 -34.029  1.00  0.00     0.037 A 
ENDBRANCH  22  24
ENDBRANCH  19  22
ENDBRANCH  18  19
ENDBRANCH   1  18
TORSDOF 6
ENDMDL
MODEL 7
REMARK VINA RESULT:      -6.9      4.417      7.996
REMARK  6 active torsions:
REMARK  status: ('A' for Active; 'I' for Inactive)
REMARK    1  A    between atoms: C_2  and  N_3 
REMARK    2  A    between atoms: C_2  and  C_21 
REMARK    3  A    between atoms: N_3  and  C_6 
REMARK    4  A    between atoms: C_6  and  C_7 
REMARK       I    between atoms: C_7  and  N_8 
REMARK    5  A    between atoms: N_8  and  C_9 
REMARK    6  A    between atoms: C_16  and  C_17 
REMARK       I    between atoms: C_17  and  N_18 
ROOT
HETATM    1  C   UNL     1      -9.334   2.893 -32.406  1.00  0.00     0.248 C 
HETATM    2  N   UNL     1      -9.107   1.596 -32.009  1.00  0.00    -0.319 N 
HETATM    3  O   UNL     1      -8.626   3.631 -33.085  1.00  0.00    -0.271 OA
HETATM    4  H   UNL     1      -9.816   1.101 -31.462  1.00  0.00     0.169 HD
ENDROOT
BRANCH   2   5
HETATM    5  C   UNL     1      -8.063   0.766 -32.397  1.00  0.00     0.093 A 
HETATM    6  S   UNL     1      -8.195  -0.267 -33.750  1.00  0.00    -0.075 SA
HETATM    7  C   UNL     1      -6.673  -0.879 -33.459  1.00  0.00    -0.008 A 
HETATM    8  C   UNL     1      -6.033  -0.319 -32.386  1.00  0.00    -0.026 A 
HETATM    9  C   UNL     1      -5.917  -1.952 -34.145  1.00  0.00     0.047 C 
HETATM   10  C   UNL     1      -4.704  -0.961 -32.190  1.00  0.00     0.041 C 
HETATM   11  C   UNL     1      -6.834   0.665 -31.734  1.00  0.00     0.072 A 
HETATM   12  C   UNL     1      -4.511  -1.782 -33.503  1.00  0.00     0.010 C 
BRANCH  11  13
HETATM   13  C   UNL     1      -6.560   1.459 -30.536  1.00  0.00     0.252 C 
HETATM   14  N   UNL     1      -6.332   0.789 -29.374  1.00  0.00    -0.366 N 
HETATM   15  H   UNL     1      -6.193  -0.208 -29.332  1.00  0.00     0.159 HD
HETATM   16  H   UNL     1      -6.060   1.331 -28.564  1.00  0.00     0.159 HD
HETATM   17  O   UNL     1      -6.512   2.690 -30.568  1.00  0.00    -0.268 OA
ENDBRANCH  11  13
ENDBRANCH   2   5
BRANCH   1  18
HETATM   18  C   UNL     1     -10.713   3.413 -32.009  1.00  0.00     0.335 C 
BRANCH  18  19
HETATM   19  N   UNL     1     -11.493   3.854 -33.226  1.00  0.00    -0.057 N 
HETATM   20  H   UNL     1     -11.011   4.714 -33.553  1.00  0.00     0.278 HD
HETATM   21  H   UNL     1     -12.439   4.143 -32.961  1.00  0.00     0.278 HD
BRANCH  19  22
HETATM   22  C   UNL     1     -11.543   2.940 -34.420  1.00  0.00     0.239 C 
HETATM   23  C   UNL     1     -11.831   3.736 -35.687  1.00  0.00     0.047 C 
BRANCH  22  24
HETATM   24  C   UNL     1     -12.455   1.786 -34.208  1.00  0.00     0.082 A 
HETATM   25  O   UNL     1     -11.863   0.690 -33.649  1.00  0.00    -0.325 OA
HETATM   26  C   UNL     1     -12.826  -0.253 -33.495  1.00  0.00     0.142 A 
HETATM   27  C   UNL     1     -14.034   0.220 -33.948  1.00  0.00     0.027 A 
HETATM   28  C   UNL     1     -13.798   1.538 -34.412  1.00  0.00     0.037 A 
ENDBRANCH  22  24
ENDBRANCH  19  22
ENDBRANCH  18  19
ENDBRANCH   1  18
TORSDOF 6
ENDMDL
MODEL 8
REMARK VINA RESULT:      -6.9      2.000      2.421
REMARK  6 active torsions:
REMARK  status: ('A' for Active; 'I' for Inactive)
REMARK    1  A    between atoms: C_2  and  N_3 
REMARK    2  A    between atoms: C_2  and  C_21 
REMARK    3  A    between atoms: N_3  and  C_6 
REMARK    4  A    between atoms: C_6  and  C_7 
REMARK       I    between atoms: C_7  and  N_8 
REMARK    5  A    between atoms: N_8  and  C_9 
REMARK    6  A    between atoms: C_16  and  C_17 
REMARK       I    between atoms: C_17  and  N_18 
ROOT
HETATM    1  C   UNL     1      -3.404   3.459 -32.120  1.00  0.00     0.248 C 
HETATM    2  N   UNL     1      -4.316   2.502 -31.739  1.00  0.00    -0.319 N 
HETATM    3  O   UNL     1      -2.639   3.463 -33.081  1.00  0.00    -0.271 OA
HETATM    4  H   UNL     1      -4.907   2.661 -30.920  1.00  0.00     0.169 HD
ENDROOT
BRANCH   2   5
HETATM    5  C   UNL     1      -4.675   1.356 -32.437  1.00  0.00     0.093 A 
HETATM    6  S   UNL     1      -3.730  -0.064 -32.375  1.00  0.00    -0.075 SA
HETATM    7  C   UNL     1      -4.754  -0.820 -33.451  1.00  0.00    -0.008 A 
HETATM    8  C   UNL     1      -5.818  -0.057 -33.851  1.00  0.00    -0.026 A 
HETATM    9  C   UNL     1      -4.681  -2.162 -34.071  1.00  0.00     0.047 C 
HETATM   10  C   UNL     1      -6.644  -0.807 -34.837  1.00  0.00     0.041 C 
HETATM   11  C   UNL     1      -5.800   1.243 -33.264  1.00  0.00     0.072 A 
HETATM   12  C   UNL     1      -6.085  -2.260 -34.734  1.00  0.00     0.010 C 
BRANCH  11  13
HETATM   13  C   UNL     1      -6.708   2.375 -33.456  1.00  0.00     0.252 C 
HETATM   14  N   UNL     1      -7.963   2.271 -32.940  1.00  0.00    -0.366 N 
HETATM   15  H   UNL     1      -8.240   1.533 -32.314  1.00  0.00     0.159 HD
HETATM   16  H   UNL     1      -8.563   3.083 -32.998  1.00  0.00     0.159 HD
HETATM   17  O   UNL     1      -6.355   3.400 -34.040  1.00  0.00    -0.268 OA
ENDBRANCH  11  13
ENDBRANCH   2   5
BRANCH   1  18
HETATM   18  C   UNL     1      -3.456   4.718 -31.258  1.00  0.00     0.335 C 
BRANCH  18  19
HETATM   19  N   UNL     1      -2.064   5.231 -30.970  1.00  0.00    -0.057 N 
HETATM   20  H   UNL     1      -1.453   4.736 -31.649  1.00  0.00     0.278 HD
HETATM   21  H   UNL     1      -1.756   4.932 -30.041  1.00  0.00     0.278 HD
BRANCH  19  22
HETATM   22  C   UNL     1      -1.782   6.696 -31.166  1.00  0.00     0.239 C 
HETATM   23  C   UNL     1      -1.327   6.963 -32.596  1.00  0.00     0.047 C 
BRANCH  22  24
HETATM   24  C   UNL     1      -0.866   7.236 -30.127  1.00  0.00     0.082 A 
HETATM   25  O   UNL     1      -1.427   8.174 -29.308  1.00  0.00    -0.325 OA
HETATM   26  C   UNL     1      -0.482   8.539 -28.407  1.00  0.00     0.142 A 
HETATM   27  C   UNL     1       0.685   7.850 -28.634  1.00  0.00     0.027 A 
HETATM   28  C   UNL     1       0.441   7.007 -29.747  1.00  0.00     0.037 A 
ENDBRANCH  22  24
ENDBRANCH  19  22
ENDBRANCH  18  19
ENDBRANCH   1  18
TORSDOF 6
ENDMDL
MODEL 9
REMARK VINA RESULT:      -6.8      2.913      3.436
REMARK  6 active torsions:
REMARK  status: ('A' for Active; 'I' for Inactive)
REMARK    1  A    between atoms: C_2  and  N_3 
REMARK    2  A    between atoms: C_2  and  C_21 
REMARK    3  A    between atoms: N_3  and  C_6 
REMARK    4  A    between atoms: C_6  and  C_7 
REMARK       I    between atoms: C_7  and  N_8 
REMARK    5  A    between atoms: N_8  and  C_9 
REMARK    6  A    between atoms: C_16  and  C_17 
REMARK       I    between atoms: C_17  and  N_18 
ROOT
HETATM    1  C   UNL     1      -5.843   1.636 -31.779  1.00  0.00     0.248 C 
HETATM    2  N   UNL     1      -5.494   1.139 -33.013  1.00  0.00    -0.319 N 
HETATM    3  O   UNL     1      -6.291   1.042 -30.802  1.00  0.00    -0.271 OA
HETATM    4  H   UNL     1      -5.104   1.766 -33.721  1.00  0.00     0.169 HD
ENDROOT
BRANCH   2   5
HETATM    5  C   UNL     1      -5.449  -0.194 -33.402  1.00  0.00     0.093 A 
HETATM    6  S   UNL     1      -4.019  -1.118 -33.269  1.00  0.00    -0.075 SA
HETATM    7  C   UNL     1      -4.778  -2.430 -33.961  1.00  0.00    -0.008 A 
HETATM    8  C   UNL     1      -6.094  -2.224 -34.274  1.00  0.00    -0.026 A 
HETATM    9  C   UNL     1      -4.252  -3.766 -34.326  1.00  0.00     0.047 C 
HETATM   10  C   UNL     1      -6.664  -3.439 -34.920  1.00  0.00     0.041 C 
HETATM   11  C   UNL     1      -6.524  -0.903 -33.952  1.00  0.00     0.072 A 
HETATM   12  C   UNL     1      -5.569  -4.521 -34.665  1.00  0.00     0.010 C 
BRANCH  11  13
HETATM   13  C   UNL     1      -7.820  -0.256 -34.163  1.00  0.00     0.252 C 
HETATM   14  N   UNL     1      -8.142   0.109 -35.434  1.00  0.00    -0.366 N 
HETATM   15  H   UNL     1      -7.611  -0.179 -36.240  1.00  0.00     0.159 HD
HETATM   16  H   UNL     1      -9.070   0.479 -35.596  1.00  0.00     0.159 HD
HETATM   17  O   UNL     1      -8.609  -0.062 -33.238  1.00  0.00    -0.268 OA
ENDBRANCH  11  13
ENDBRANCH   2   5
BRANCH   1  18
HETATM   18  C   UNL     1      -5.519   3.119 -31.612  1.00  0.00     0.335 C 
BRANCH  18  19
HETATM   19  N   UNL     1      -4.717   3.630 -32.786  1.00  0.00    -0.057 N 
HETATM   20  H   UNL     1      -4.463   2.780 -33.325  1.00  0.00     0.278 HD
HETATM   21  H   UNL     1      -3.834   4.039 -32.468  1.00  0.00     0.278 HD
BRANCH  19  22
HETATM   22  C   UNL     1      -5.389   4.547 -33.772  1.00  0.00     0.239 C 
HETATM   23  C   UNL     1      -4.368   5.117 -34.750  1.00  0.00     0.047 C 
BRANCH  22  24
HETATM   24  C   UNL     1      -6.228   5.576 -33.103  1.00  0.00     0.082 A 
HETATM   25  O   UNL     1      -5.524   6.513 -32.401  1.00  0.00    -0.325 OA
HETATM   26  C   UNL     1      -6.423   7.387 -31.883  1.00  0.00     0.142 A 
HETATM   27  C   UNL     1      -7.700   7.025 -32.240  1.00  0.00     0.027 A 
HETATM   28  C   UNL     1      -7.578   5.853 -33.029  1.00  0.00     0.037 A 
ENDBRANCH  22  24
ENDBRANCH  19  22
ENDBRANCH  18  19
ENDBRANCH   1  18
TORSDOF 6
ENDMDL
MODEL 10
REMARK VINA RESULT:      -6.7     15.816     16.931
REMARK  6 active torsions:
REMARK  status: ('A' for Active; 'I' for Inactive)
REMARK    1  A    between atoms: C_2  and  N_3 
REMARK    2  A    between atoms: C_2  and  C_21 
REMARK    3  A    between atoms: N_3  and  C_6 
REMARK    4  A    between atoms: C_6  and  C_7 
REMARK       I    between atoms: C_7  and  N_8 
REMARK    5  A    between atoms: N_8  and  C_9 
REMARK    6  A    between atoms: C_16  and  C_17 
REMARK       I    between atoms: C_17  and  N_18 
ROOT
HETATM    1  C   UNL     1      -5.033 -14.257 -35.524  1.00  0.00     0.248 C 
HETATM    2  N   UNL     1      -5.209 -14.395 -36.881  1.00  0.00    -0.319 N 
HETATM    3  O   UNL     1      -5.732 -13.664 -34.707  1.00  0.00    -0.271 OA
HETATM    4  H   UNL     1      -4.546 -14.950 -37.425  1.00  0.00     0.169 HD
ENDROOT
BRANCH   2   5
HETATM    5  C   UNL     1      -6.305 -13.992 -37.633  1.00  0.00     0.093 A 
HETATM    6  S   UNL     1      -7.828 -14.748 -37.473  1.00  0.00    -0.075 SA
HETATM    7  C   UNL     1      -8.458 -13.783 -38.677  1.00  0.00    -0.008 A 
HETATM    8  C   UNL     1      -7.575 -12.874 -39.195  1.00  0.00    -0.026 A 
HETATM    9  C   UNL     1      -9.800 -13.773 -39.301  1.00  0.00     0.047 C 
HETATM   10  C   UNL     1      -8.222 -12.094 -40.285  1.00  0.00     0.041 C 
HETATM   11  C   UNL     1      -6.285 -12.973 -38.593  1.00  0.00     0.072 A 
HETATM   12  C   UNL     1      -9.731 -12.461 -40.133  1.00  0.00     0.010 C 
BRANCH  11  13
HETATM   13  C   UNL     1      -5.053 -12.236 -38.880  1.00  0.00     0.252 C 
HETATM   14  N   UNL     1      -4.834 -11.851 -40.167  1.00  0.00    -0.366 N 
HETATM   15  H   UNL     1      -5.537 -11.911 -40.886  1.00  0.00     0.159 HD
HETATM   16  H   UNL     1      -4.027 -11.270 -40.353  1.00  0.00     0.159 HD
HETATM   17  O   UNL     1      -4.245 -11.950 -37.996  1.00  0.00    -0.268 OA
ENDBRANCH  11  13
ENDBRANCH   2   5
BRANCH   1  18
HETATM   18  C   UNL     1      -3.846 -15.052 -34.986  1.00  0.00     0.335 C 
BRANCH  18  19
HETATM   19  N   UNL     1      -2.540 -14.457 -35.458  1.00  0.00    -0.057 N 
HETATM   20  H   UNL     1      -1.989 -14.303 -34.592  1.00  0.00     0.278 HD
HETATM   21  H   UNL     1      -2.694 -13.531 -35.866  1.00  0.00     0.278 HD
BRANCH  19  22
HETATM   22  C   UNL     1      -1.657 -15.280 -36.357  1.00  0.00     0.239 C 
HETATM   23  C   UNL     1      -0.332 -15.583 -35.668  1.00  0.00     0.047 C 
BRANCH  22  24
HETATM   24  C   UNL     1      -1.514 -14.680 -37.710  1.00  0.00     0.082 A 
HETATM   25  O   UNL     1      -2.532 -14.975 -38.571  1.00  0.00    -0.325 OA
HETATM   26  C   UNL     1      -2.270 -14.334 -39.738  1.00  0.00     0.142 A 
HETATM   27  C   UNL     1      -1.095 -13.628 -39.641  1.00  0.00     0.027 A 
HETATM   28  C   UNL     1      -0.602 -13.851 -38.331  1.00  0.00     0.037 A 
ENDBRANCH  22  24
ENDBRANCH  19  22
ENDBRANCH  18  19
ENDBRANCH   1  18
TORSDOF 6
ENDMDL
