MODEL 1
REMARK VINA RESULT:      -9.6      0.000      0.000
REMARK  4 active torsions:
REMARK  status: ('A' for Active; 'I' for Inactive)
REMARK    1  A    between atoms: C_7  and  C_8 
REMARK    2  A    between atoms: C_8  and  C_9 
REMARK       I    between atoms: C_9  and  N_10 
REMARK    3  A    between atoms: N_10  and  C_11 
REMARK    4  A    between atoms: C_13  and  C_14 
ROOT
HETATM    1  C   UNL     1      -9.420   0.783 -33.783  1.00  0.00     0.226 C 
HETATM    2  N   UNL     1      -8.187   0.912 -34.407  1.00  0.00    -0.327 N 
HETATM    3  O   UNL     1      -9.659   0.092 -32.795  1.00  0.00    -0.273 OA
HETATM    4  H   UNL     1      -8.136   1.557 -35.186  1.00  0.00     0.169 HD
ENDROOT
BRANCH   1   5
HETATM    5  C   UNL     1     -10.507   1.629 -34.422  1.00  0.00     0.144 C 
BRANCH   5   6
HETATM    6  C   UNL     1     -11.527   2.207 -33.482  1.00  0.00    -0.015 A 
HETATM    7  C   UNL     1     -11.383   3.151 -32.472  1.00  0.00     0.013 A 
HETATM    8  C   UNL     1     -10.200   3.899 -31.963  1.00  0.00     0.068 C 
HETATM    9  N   UNL     1     -12.625   3.382 -31.930  1.00  0.00    -0.359 N 
HETATM   10  H   UNL     1     -12.817   4.038 -31.185  1.00  0.00     0.166 HD
HETATM   11  C   UNL     1     -13.583   2.631 -32.563  1.00  0.00     0.043 A 
HETATM   12  C   UNL     1     -12.929   1.879 -33.536  1.00  0.00     0.002 A 
HETATM   13  C   UNL     1     -14.968   2.576 -32.353  1.00  0.00     0.033 A 
HETATM   14  C   UNL     1     -13.700   1.018 -34.346  1.00  0.00     0.056 A 
HETATM   15  C   UNL     1     -15.078   0.954 -34.142  1.00  0.00     0.117 A 
HETATM   16  C   UNL     1     -15.709   1.717 -33.168  1.00  0.00     0.044 A 
HETATM   17  F   UNL     1     -15.813   0.139 -34.910  1.00  0.00    -0.206 F 
ENDBRANCH   5   6
ENDBRANCH   1   5
BRANCH   2  18
HETATM   18  C   UNL     1      -6.976   0.283 -34.041  1.00  0.00     0.035 A 
HETATM   19  C   UNL     1      -6.829  -1.075 -34.366  1.00  0.00     0.042 A 
HETATM   20  C   UNL     1      -5.644  -1.775 -34.069  1.00  0.00    -0.021 A 
HETATM   21  C   UNL     1      -4.615  -1.095 -33.406  1.00  0.00     0.012 A 
HETATM   22  C   UNL     1      -4.761   0.248 -33.061  1.00  0.00     0.003 A 
HETATM   23  C   UNL     1      -5.933   0.934 -33.383  1.00  0.00     0.029 A 
BRANCH  20  24
HETATM   24  C   UNL     1      -5.467  -3.169 -34.446  1.00  0.00     0.010 A 
HETATM   25  C   UNL     1      -6.344  -4.069 -35.103  1.00  0.00     0.152 A 
HETATM   26  N   UNL     1      -5.828  -5.292 -35.241  1.00  0.00    -0.187 NA
HETATM   27  N   UNL     1      -4.622  -5.190 -34.665  1.00  0.00    -0.289 N 
HETATM   28  H   UNL     1      -4.031  -6.015 -34.636  1.00  0.00     0.188 HD
HETATM   29  C   UNL     1      -4.356  -3.943 -34.174  1.00  0.00     0.123 A 
ENDBRANCH  20  24
ENDBRANCH   2  18
TORSDOF 4
ENDMDL
MODEL 2
REMARK VINA RESULT:      -9.3      2.730      8.616
REMARK  4 active torsions:
REMARK  status: ('A' for Active; 'I' for Inactive)
REMARK    1  A    between atoms: C_7  and  C_8 
REMARK    2  A    between atoms: C_8  and  C_9 
REMARK       I    between atoms: C_9  and  N_10 
REMARK    3  A    between atoms: N_10  and  C_11 
REMARK    4  A    between atoms: C_13  and  C_14 
ROOT
HETATM    1  C   UNL     1      -7.535   0.668 -33.628  1.00  0.00     0.226 C 
HETATM    2  N   UNL     1      -8.365   1.640 -34.170  1.00  0.00    -0.327 N 
HETATM    3  O   UNL     1      -7.632   0.182 -32.504  1.00  0.00    -0.273 OA
HETATM    4  H   UNL     1      -8.186   1.908 -35.129  1.00  0.00     0.169 HD
ENDROOT
BRANCH   1   5
HETATM    5  C   UNL     1      -6.458   0.196 -34.589  1.00  0.00     0.144 C 
BRANCH   5   6
HETATM    6  C   UNL     1      -5.395  -0.690 -34.002  1.00  0.00    -0.015 A 
HETATM    7  C   UNL     1      -4.356  -0.386 -33.131  1.00  0.00     0.013 A 
HETATM    8  C   UNL     1      -3.925   0.889 -32.492  1.00  0.00     0.068 C 
HETATM    9  N   UNL     1      -3.686  -1.553 -32.851  1.00  0.00    -0.359 N 
HETATM   10  H   UNL     1      -2.892  -1.629 -32.230  1.00  0.00     0.166 HD
HETATM   11  C   UNL     1      -4.261  -2.616 -33.500  1.00  0.00     0.043 A 
HETATM   12  C   UNL     1      -5.331  -2.110 -34.235  1.00  0.00     0.002 A 
HETATM   13  C   UNL     1      -3.922  -3.976 -33.477  1.00  0.00     0.033 A 
HETATM   14  C   UNL     1      -6.107  -3.011 -34.994  1.00  0.00     0.056 A 
HETATM   15  C   UNL     1      -5.774  -4.366 -34.980  1.00  0.00     0.117 A 
HETATM   16  C   UNL     1      -4.705  -4.848 -34.237  1.00  0.00     0.044 A 
HETATM   17  F   UNL     1      -6.510  -5.225 -35.700  1.00  0.00    -0.206 F 
ENDBRANCH   5   6
ENDBRANCH   1   5
BRANCH   2  18
HETATM   18  C   UNL     1      -9.470   2.261 -33.546  1.00  0.00     0.035 A 
HETATM   19  C   UNL     1     -10.750   1.789 -33.877  1.00  0.00     0.042 A 
HETATM   20  C   UNL     1     -11.906   2.326 -33.281  1.00  0.00    -0.021 A 
HETATM   21  C   UNL     1     -11.760   3.375 -32.366  1.00  0.00     0.012 A 
HETATM   22  C   UNL     1     -10.494   3.865 -32.046  1.00  0.00     0.003 A 
HETATM   23  C   UNL     1      -9.356   3.306 -32.629  1.00  0.00     0.029 A 
BRANCH  20  24
HETATM   24  C   UNL     1     -13.232   1.808 -33.585  1.00  0.00     0.010 A 
HETATM   25  C   UNL     1     -13.661   0.885 -34.571  1.00  0.00     0.152 A 
HETATM   26  N   UNL     1     -14.981   0.685 -34.559  1.00  0.00    -0.187 NA
HETATM   27  N   UNL     1     -15.409   1.485 -33.573  1.00  0.00    -0.289 N 
HETATM   28  H   UNL     1     -16.404   1.515 -33.377  1.00  0.00     0.188 HD
HETATM   29  C   UNL     1     -14.405   2.178 -32.958  1.00  0.00     0.123 A 
ENDBRANCH  20  24
ENDBRANCH   2  18
TORSDOF 4
ENDMDL
MODEL 3
REMARK VINA RESULT:      -9.2      6.083      9.721
REMARK  4 active torsions:
REMARK  status: ('A' for Active; 'I' for Inactive)
REMARK    1  A    between atoms: C_7  and  C_8 
REMARK    2  A    between atoms: C_8  and  C_9 
REMARK       I    between atoms: C_9  and  N_10 
REMARK    3  A    between atoms: N_10  and  C_11 
REMARK    4  A    between atoms: C_13  and  C_14 
ROOT
HETATM    1  C   UNL     1      -3.911   1.639 -31.937  1.00  0.00     0.226 C 
HETATM    2  N   UNL     1      -3.981   2.889 -32.538  1.00  0.00    -0.327 N 
HETATM    3  O   UNL     1      -2.920   1.154 -31.395  1.00  0.00    -0.273 OA
HETATM    4  H   UNL     1      -4.883   3.169 -32.901  1.00  0.00     0.169 HD
ENDROOT
BRANCH   1   5
HETATM    5  C   UNL     1      -5.229   0.885 -31.966  1.00  0.00     0.144 C 
BRANCH   5   6
HETATM    6  C   UNL     1      -5.342  -0.200 -32.999  1.00  0.00    -0.015 A 
HETATM    7  C   UNL     1      -6.037  -0.223 -34.203  1.00  0.00     0.013 A 
HETATM    8  C   UNL     1      -6.903   0.783 -34.879  1.00  0.00     0.068 C 
HETATM    9  N   UNL     1      -5.785  -1.429 -34.812  1.00  0.00    -0.359 N 
HETATM   10  H   UNL     1      -6.152  -1.710 -35.711  1.00  0.00     0.166 HD
HETATM   11  C   UNL     1      -4.935  -2.193 -34.053  1.00  0.00     0.043 A 
HETATM   12  C   UNL     1      -4.643  -1.456 -32.908  1.00  0.00     0.002 A 
HETATM   13  C   UNL     1      -4.400  -3.464 -34.304  1.00  0.00     0.033 A 
HETATM   14  C   UNL     1      -3.769  -2.020 -31.954  1.00  0.00     0.056 A 
HETATM   15  C   UNL     1      -3.235  -3.286 -32.194  1.00  0.00     0.117 A 
HETATM   16  C   UNL     1      -3.538  -4.000 -33.345  1.00  0.00     0.044 A 
HETATM   17  F   UNL     1      -2.403  -3.823 -31.291  1.00  0.00    -0.206 F 
ENDBRANCH   5   6
ENDBRANCH   1   5
BRANCH   2  18
HETATM   18  C   UNL     1      -2.942   3.840 -32.651  1.00  0.00     0.035 A 
HETATM   19  C   UNL     1      -2.349   4.295 -31.462  1.00  0.00     0.042 A 
HETATM   20  C   UNL     1      -1.286   5.217 -31.481  1.00  0.00    -0.021 A 
HETATM   21  C   UNL     1      -0.846   5.705 -32.717  1.00  0.00     0.012 A 
HETATM   22  C   UNL     1      -1.443   5.275 -33.902  1.00  0.00     0.003 A 
HETATM   23  C   UNL     1      -2.482   4.343 -33.868  1.00  0.00     0.029 A 
BRANCH  20  24
HETATM   24  C   UNL     1      -0.636   5.656 -30.255  1.00  0.00     0.010 A 
HETATM   25  C   UNL     1      -0.932   6.735 -29.386  1.00  0.00     0.152 A 
HETATM   26  N   UNL     1      -0.073   6.836 -28.368  1.00  0.00    -0.187 NA
HETATM   27  N   UNL     1       0.785   5.830 -28.583  1.00  0.00    -0.289 N 
HETATM   28  H   UNL     1       1.554   5.706 -27.931  1.00  0.00     0.188 HD
HETATM   29  C   UNL     1       0.495   5.093 -29.696  1.00  0.00     0.123 A 
ENDBRANCH  20  24
ENDBRANCH   2  18
TORSDOF 4
ENDMDL
MODEL 4
REMARK VINA RESULT:      -9.1      1.928      2.622
REMARK  4 active torsions:
REMARK  status: ('A' for Active; 'I' for Inactive)
REMARK    1  A    between atoms: C_7  and  C_8 
REMARK    2  A    between atoms: C_8  and  C_9 
REMARK       I    between atoms: C_9  and  N_10 
REMARK    3  A    between atoms: N_10  and  C_11 
REMARK    4  A    between atoms: C_13  and  C_14 
ROOT
HETATM    1  C   UNL     1      -9.990   1.052 -33.907  1.00  0.00     0.226 C 
HETATM    2  N   UNL     1      -8.891   0.857 -34.733  1.00  0.00    -0.327 N 
HETATM    3  O   UNL     1     -10.034   0.822 -32.700  1.00  0.00    -0.273 OA
HETATM    4  H   UNL     1      -8.993   1.138 -35.700  1.00  0.00     0.169 HD
ENDROOT
BRANCH   1   5
HETATM    5  C   UNL     1     -11.189   1.636 -34.632  1.00  0.00     0.144 C 
BRANCH   5   6
HETATM    6  C   UNL     1     -12.436   1.803 -33.811  1.00  0.00    -0.015 A 
HETATM    7  C   UNL     1     -13.388   0.866 -33.426  1.00  0.00     0.013 A 
HETATM    8  C   UNL     1     -13.520  -0.594 -33.689  1.00  0.00     0.068 C 
HETATM    9  N   UNL     1     -14.315   1.507 -32.638  1.00  0.00    -0.359 N 
HETATM   10  H   UNL     1     -15.113   1.061 -32.206  1.00  0.00     0.166 HD
HETATM   11  C   UNL     1     -13.994   2.832 -32.482  1.00  0.00     0.043 A 
HETATM   12  C   UNL     1     -12.826   3.052 -33.208  1.00  0.00     0.002 A 
HETATM   13  C   UNL     1     -14.640   3.834 -31.746  1.00  0.00     0.033 A 
HETATM   14  C   UNL     1     -12.270   4.349 -33.204  1.00  0.00     0.056 A 
HETATM   15  C   UNL     1     -12.909   5.354 -32.477  1.00  0.00     0.117 A 
HETATM   16  C   UNL     1     -14.071   5.109 -31.757  1.00  0.00     0.044 A 
HETATM   17  F   UNL     1     -12.383   6.587 -32.470  1.00  0.00    -0.206 F 
ENDBRANCH   5   6
ENDBRANCH   1   5
BRANCH   2  18
HETATM   18  C   UNL     1      -7.623   0.357 -34.361  1.00  0.00     0.035 A 
HETATM   19  C   UNL     1      -7.373  -1.006 -34.588  1.00  0.00     0.042 A 
HETATM   20  C   UNL     1      -6.127  -1.583 -34.279  1.00  0.00    -0.021 A 
HETATM   21  C   UNL     1      -5.140  -0.773 -33.703  1.00  0.00     0.012 A 
HETATM   22  C   UNL     1      -5.387   0.577 -33.456  1.00  0.00     0.003 A 
HETATM   23  C   UNL     1      -6.620   1.139 -33.789  1.00  0.00     0.029 A 
BRANCH  20  24
HETATM   24  C   UNL     1      -5.846  -2.984 -34.555  1.00  0.00     0.010 A 
HETATM   25  C   UNL     1      -6.677  -4.011 -35.067  1.00  0.00     0.152 A 
HETATM   26  N   UNL     1      -6.058  -5.191 -35.148  1.00  0.00    -0.187 NA
HETATM   27  N   UNL     1      -4.830  -4.933 -34.679  1.00  0.00    -0.289 N 
HETATM   28  H   UNL     1      -4.163  -5.696 -34.631  1.00  0.00     0.188 HD
HETATM   29  C   UNL     1      -4.649  -3.629 -34.312  1.00  0.00     0.123 A 
ENDBRANCH  20  24
ENDBRANCH   2  18
TORSDOF 4
ENDMDL
MODEL 5
REMARK VINA RESULT:      -9.1      5.545      7.997
REMARK  4 active torsions:
REMARK  status: ('A' for Active; 'I' for Inactive)
REMARK    1  A    between atoms: C_7  and  C_8 
REMARK    2  A    between atoms: C_8  and  C_9 
REMARK       I    between atoms: C_9  and  N_10 
REMARK    3  A    between atoms: N_10  and  C_11 
REMARK    4  A    between atoms: C_13  and  C_14 
ROOT
HETATM    1  C   UNL     1      -5.101   2.627 -32.208  1.00  0.00     0.226 C 
HETATM    2  N   UNL     1      -4.792   1.333 -32.606  1.00  0.00    -0.327 N 
HETATM    3  O   UNL     1      -6.090   3.270 -32.553  1.00  0.00    -0.273 OA
HETATM    4  H   UNL     1      -3.964   0.917 -32.198  1.00  0.00     0.169 HD
ENDROOT
BRANCH   1   5
HETATM    5  C   UNL     1      -4.094   3.211 -31.233  1.00  0.00     0.144 C 
BRANCH   5   6
HETATM    6  C   UNL     1      -3.849   4.689 -31.348  1.00  0.00    -0.015 A 
HETATM    7  C   UNL     1      -4.291   5.736 -30.549  1.00  0.00     0.013 A 
HETATM    8  C   UNL     1      -5.150   5.774 -29.332  1.00  0.00     0.068 C 
HETATM    9  N   UNL     1      -3.754   6.901 -31.045  1.00  0.00    -0.359 N 
HETATM   10  H   UNL     1      -3.898   7.819 -30.646  1.00  0.00     0.166 HD
HETATM   11  C   UNL     1      -2.962   6.649 -32.136  1.00  0.00     0.043 A 
HETATM   12  C   UNL     1      -3.004   5.275 -32.357  1.00  0.00     0.002 A 
HETATM   13  C   UNL     1      -2.209   7.530 -32.924  1.00  0.00     0.033 A 
HETATM   14  C   UNL     1      -2.254   4.747 -33.430  1.00  0.00     0.056 A 
HETATM   15  C   UNL     1      -1.505   5.617 -34.222  1.00  0.00     0.117 A 
HETATM   16  C   UNL     1      -1.476   6.984 -33.980  1.00  0.00     0.044 A 
HETATM   17  F   UNL     1      -0.791   5.119 -35.241  1.00  0.00    -0.206 F 
ENDBRANCH   5   6
ENDBRANCH   1   5
BRANCH   2  18
HETATM   18  C   UNL     1      -5.536   0.509 -33.478  1.00  0.00     0.035 A 
HETATM   19  C   UNL     1      -5.136  -0.831 -33.602  1.00  0.00     0.042 A 
HETATM   20  C   UNL     1      -5.838  -1.733 -34.423  1.00  0.00    -0.021 A 
HETATM   21  C   UNL     1      -6.937  -1.258 -35.150  1.00  0.00     0.012 A 
HETATM   22  C   UNL     1      -7.329   0.076 -35.049  1.00  0.00     0.003 A 
HETATM   23  C   UNL     1      -6.636   0.952 -34.213  1.00  0.00     0.029 A 
BRANCH  20  24
HETATM   24  C   UNL     1      -5.456  -3.134 -34.518  1.00  0.00     0.010 A 
HETATM   25  C   UNL     1      -6.173  -4.258 -34.998  1.00  0.00     0.152 A 
HETATM   26  N   UNL     1      -5.489  -5.399 -34.890  1.00  0.00    -0.187 NA
HETATM   27  N   UNL     1      -4.332  -5.017 -34.330  1.00  0.00    -0.289 N 
HETATM   28  H   UNL     1      -3.635  -5.728 -34.134  1.00  0.00     0.188 HD
HETATM   29  C   UNL     1      -4.261  -3.675 -34.088  1.00  0.00     0.123 A 
ENDBRANCH  20  24
ENDBRANCH   2  18
TORSDOF 4
ENDMDL
MODEL 6
REMARK VINA RESULT:      -9.0      2.973      8.854
REMARK  4 active torsions:
REMARK  status: ('A' for Active; 'I' for Inactive)
REMARK    1  A    between atoms: C_7  and  C_8 
REMARK    2  A    between atoms: C_8  and  C_9 
REMARK       I    between atoms: C_9  and  N_10 
REMARK    3  A    between atoms: N_10  and  C_11 
REMARK    4  A    between atoms: C_13  and  C_14 
ROOT
HETATM    1  C   UNL     1      -8.058   0.002 -34.186  1.00  0.00     0.226 C 
HETATM    2  N   UNL     1      -8.541   1.212 -34.665  1.00  0.00    -0.327 N 
HETATM    3  O   UNL     1      -8.453  -0.584 -33.179  1.00  0.00    -0.273 OA
HETATM    4  H   UNL     1      -8.147   1.546 -35.536  1.00  0.00     0.169 HD
ENDROOT
BRANCH   1   5
HETATM    5  C   UNL     1      -6.972  -0.599 -35.060  1.00  0.00     0.144 C 
BRANCH   5   6
HETATM    6  C   UNL     1      -5.908  -1.381 -34.342  1.00  0.00    -0.015 A 
HETATM    7  C   UNL     1      -5.535  -2.714 -34.469  1.00  0.00     0.013 A 
HETATM    8  C   UNL     1      -6.046  -3.820 -35.326  1.00  0.00     0.068 C 
HETATM    9  N   UNL     1      -4.474  -2.936 -33.624  1.00  0.00    -0.359 N 
HETATM   10  H   UNL     1      -3.990  -3.819 -33.524  1.00  0.00     0.166 HD
HETATM   11  C   UNL     1      -4.128  -1.788 -32.958  1.00  0.00     0.043 A 
HETATM   12  C   UNL     1      -5.010  -0.796 -33.380  1.00  0.00     0.002 A 
HETATM   13  C   UNL     1      -3.101  -1.558 -32.033  1.00  0.00     0.033 A 
HETATM   14  C   UNL     1      -4.862   0.502 -32.845  1.00  0.00     0.056 A 
HETATM   15  C   UNL     1      -3.844   0.739 -31.921  1.00  0.00     0.117 A 
HETATM   16  C   UNL     1      -2.974  -0.265 -31.519  1.00  0.00     0.044 A 
HETATM   17  F   UNL     1      -3.700   1.971 -31.413  1.00  0.00    -0.206 F 
ENDBRANCH   5   6
ENDBRANCH   1   5
BRANCH   2  18
HETATM   18  C   UNL     1      -9.564   2.006 -34.100  1.00  0.00     0.035 A 
HETATM   19  C   UNL     1     -10.886   1.555 -34.243  1.00  0.00     0.042 A 
HETATM   20  C   UNL     1     -11.966   2.264 -33.685  1.00  0.00    -0.021 A 
HETATM   21  C   UNL     1     -11.700   3.460 -33.005  1.00  0.00     0.012 A 
HETATM   22  C   UNL     1     -10.392   3.925 -32.876  1.00  0.00     0.003 A 
HETATM   23  C   UNL     1      -9.330   3.198 -33.416  1.00  0.00     0.029 A 
BRANCH  20  24
HETATM   24  C   UNL     1     -13.334   1.778 -33.789  1.00  0.00     0.010 A 
HETATM   25  C   UNL     1     -13.898   0.774 -34.614  1.00  0.00     0.152 A 
HETATM   26  N   UNL     1     -15.215   0.637 -34.443  1.00  0.00    -0.187 NA
HETATM   27  N   UNL     1     -15.506   1.558 -33.514  1.00  0.00    -0.289 N 
HETATM   28  H   UNL     1     -16.473   1.655 -33.219  1.00  0.00     0.188 HD
HETATM   29  C   UNL     1     -14.419   2.267 -33.089  1.00  0.00     0.123 A 
ENDBRANCH  20  24
ENDBRANCH   2  18
TORSDOF 4
ENDMDL
MODEL 7
REMARK VINA RESULT:      -9.0      5.902      9.007
REMARK  4 active torsions:
REMARK  status: ('A' for Active; 'I' for Inactive)
REMARK    1  A    between atoms: C_7  and  C_8 
REMARK    2  A    between atoms: C_8  and  C_9 
REMARK       I    between atoms: C_9  and  N_10 
REMARK    3  A    between atoms: N_10  and  C_11 
REMARK    4  A    between atoms: C_13  and  C_14 
ROOT
HETATM    1  C   UNL     1      -3.730   1.202 -31.182  1.00  0.00     0.226 C 
HETATM    2  N   UNL     1      -4.024   2.483 -31.629  1.00  0.00    -0.327 N 
HETATM    3  O   UNL     1      -2.612   0.695 -31.130  1.00  0.00    -0.273 OA
HETATM    4  H   UNL     1      -4.991   2.776 -31.567  1.00  0.00     0.169 HD
ENDROOT
BRANCH   1   5
HETATM    5  C   UNL     1      -4.952   0.440 -30.700  1.00  0.00     0.144 C 
BRANCH   5   6
HETATM    6  C   UNL     1      -5.953   0.066 -31.758  1.00  0.00    -0.015 A 
HETATM    7  C   UNL     1      -7.210   0.593 -32.029  1.00  0.00     0.013 A 
HETATM    8  C   UNL     1      -8.002   1.677 -31.384  1.00  0.00     0.068 C 
HETATM    9  N   UNL     1      -7.711  -0.059 -33.131  1.00  0.00    -0.359 N 
HETATM   10  H   UNL     1      -8.606   0.135 -33.560  1.00  0.00     0.166 HD
HETATM   11  C   UNL     1      -6.816  -0.987 -33.601  1.00  0.00     0.043 A 
HETATM   12  C   UNL     1      -5.706  -0.939 -32.760  1.00  0.00     0.002 A 
HETATM   13  C   UNL     1      -6.904  -1.844 -34.705  1.00  0.00     0.033 A 
HETATM   14  C   UNL     1      -4.622  -1.799 -33.034  1.00  0.00     0.056 A 
HETATM   15  C   UNL     1      -4.703  -2.659 -34.130  1.00  0.00     0.117 A 
HETATM   16  C   UNL     1      -5.818  -2.686 -34.956  1.00  0.00     0.044 A 
HETATM   17  F   UNL     1      -3.674  -3.476 -34.393  1.00  0.00    -0.206 F 
ENDBRANCH   5   6
ENDBRANCH   1   5
BRANCH   2  18
HETATM   18  C   UNL     1      -3.111   3.447 -32.113  1.00  0.00     0.035 A 
HETATM   19  C   UNL     1      -2.390   4.189 -31.164  1.00  0.00     0.042 A 
HETATM   20  C   UNL     1      -1.436   5.147 -31.554  1.00  0.00    -0.021 A 
HETATM   21  C   UNL     1      -1.240   5.376 -32.921  1.00  0.00     0.012 A 
HETATM   22  C   UNL     1      -1.967   4.659 -33.871  1.00  0.00     0.003 A 
HETATM   23  C   UNL     1      -2.893   3.696 -33.468  1.00  0.00     0.029 A 
BRANCH  20  24
HETATM   24  C   UNL     1      -0.651   5.885 -30.575  1.00  0.00     0.010 A 
HETATM   25  C   UNL     1       0.225   5.430 -29.559  1.00  0.00     0.152 A 
HETATM   26  N   UNL     1       0.740   6.423 -28.830  1.00  0.00    -0.187 NA
HETATM   27  N   UNL     1       0.189   7.521 -29.367  1.00  0.00    -0.289 N 
HETATM   28  H   UNL     1       0.426   8.423 -28.965  1.00  0.00     0.188 HD
HETATM   29  C   UNL     1      -0.649   7.256 -30.412  1.00  0.00     0.123 A 
ENDBRANCH  20  24
ENDBRANCH   2  18
TORSDOF 4
ENDMDL
MODEL 8
REMARK VINA RESULT:      -8.9      5.809      8.684
REMARK  4 active torsions:
REMARK  status: ('A' for Active; 'I' for Inactive)
REMARK    1  A    between atoms: C_7  and  C_8 
REMARK    2  A    between atoms: C_8  and  C_9 
REMARK       I    between atoms: C_9  and  N_10 
REMARK    3  A    between atoms: N_10  and  C_11 
REMARK    4  A    between atoms: C_13  and  C_14 
ROOT
HETATM    1  C   UNL     1      -4.712   2.947 -32.518  1.00  0.00     0.226 C 
HETATM    2  N   UNL     1      -5.271   1.688 -32.349  1.00  0.00    -0.327 N 
HETATM    3  O   UNL     1      -4.709   3.600 -33.560  1.00  0.00    -0.273 OA
HETATM    4  H   UNL     1      -5.235   1.296 -31.416  1.00  0.00     0.169 HD
ENDROOT
BRANCH   1   5
HETATM    5  C   UNL     1      -4.101   3.508 -31.247  1.00  0.00     0.144 C 
BRANCH   5   6
HETATM    6  C   UNL     1      -3.686   4.951 -31.298  1.00  0.00    -0.015 A 
HETATM    7  C   UNL     1      -4.458   6.106 -31.314  1.00  0.00     0.013 A 
HETATM    8  C   UNL     1      -5.932   6.326 -31.298  1.00  0.00     0.068 C 
HETATM    9  N   UNL     1      -3.605   7.184 -31.315  1.00  0.00    -0.359 N 
HETATM   10  H   UNL     1      -3.897   8.152 -31.310  1.00  0.00     0.166 HD
HETATM   11  C   UNL     1      -2.296   6.773 -31.286  1.00  0.00     0.043 A 
HETATM   12  C   UNL     1      -2.311   5.380 -31.281  1.00  0.00     0.002 A 
HETATM   13  C   UNL     1      -1.116   7.528 -31.250  1.00  0.00     0.033 A 
HETATM   14  C   UNL     1      -1.076   4.699 -31.241  1.00  0.00     0.056 A 
HETATM   15  C   UNL     1       0.105   5.443 -31.209  1.00  0.00     0.117 A 
HETATM   16  C   UNL     1       0.093   6.831 -31.211  1.00  0.00     0.044 A 
HETATM   17  F   UNL     1       1.279   4.798 -31.170  1.00  0.00    -0.206 F 
ENDBRANCH   5   6
ENDBRANCH   1   5
BRANCH   2  18
HETATM   18  C   UNL     1      -5.936   0.911 -33.324  1.00  0.00     0.035 A 
HETATM   19  C   UNL     1      -5.539  -0.428 -33.467  1.00  0.00     0.042 A 
HETATM   20  C   UNL     1      -6.167  -1.284 -34.390  1.00  0.00    -0.021 A 
HETATM   21  C   UNL     1      -7.185  -0.763 -35.199  1.00  0.00     0.012 A 
HETATM   22  C   UNL     1      -7.572   0.571 -35.078  1.00  0.00     0.003 A 
HETATM   23  C   UNL     1      -6.954   1.401 -34.142  1.00  0.00     0.029 A 
BRANCH  20  24
HETATM   24  C   UNL     1      -5.792  -2.685 -34.509  1.00  0.00     0.010 A 
HETATM   25  C   UNL     1      -6.554  -3.818 -34.888  1.00  0.00     0.152 A 
HETATM   26  N   UNL     1      -5.856  -4.956 -34.842  1.00  0.00    -0.187 NA
HETATM   27  N   UNL     1      -4.645  -4.562 -34.423  1.00  0.00    -0.289 N 
HETATM   28  H   UNL     1      -3.927  -5.268 -34.298  1.00  0.00     0.188 HD
HETATM   29  C   UNL     1      -4.552  -3.216 -34.210  1.00  0.00     0.123 A 
ENDBRANCH  20  24
ENDBRANCH   2  18
TORSDOF 4
ENDMDL
MODEL 9
REMARK VINA RESULT:      -8.8      5.244      7.635
REMARK  4 active torsions:
REMARK  status: ('A' for Active; 'I' for Inactive)
REMARK    1  A    between atoms: C_7  and  C_8 
REMARK    2  A    between atoms: C_8  and  C_9 
REMARK       I    between atoms: C_9  and  N_10 
REMARK    3  A    between atoms: N_10  and  C_11 
REMARK    4  A    between atoms: C_13  and  C_14 
ROOT
HETATM    1  C   UNL     1      -6.710   2.985 -32.579  1.00  0.00     0.226 C 
HETATM    2  N   UNL     1      -6.310   2.381 -33.763  1.00  0.00    -0.327 N 
HETATM    3  O   UNL     1      -7.228   2.418 -31.619  1.00  0.00    -0.273 OA
HETATM    4  H   UNL     1      -5.854   2.974 -34.445  1.00  0.00     0.169 HD
ENDROOT
BRANCH   1   5
HETATM    5  C   UNL     1      -6.414   4.474 -32.536  1.00  0.00     0.144 C 
BRANCH   5   6
HETATM    6  C   UNL     1      -5.163   4.874 -31.807  1.00  0.00    -0.015 A 
HETATM    7  C   UNL     1      -4.958   5.143 -30.459  1.00  0.00     0.013 A 
HETATM    8  C   UNL     1      -5.877   5.144 -29.286  1.00  0.00     0.068 C 
HETATM    9  N   UNL     1      -3.622   5.419 -30.283  1.00  0.00    -0.359 N 
HETATM   10  H   UNL     1      -3.189   5.635 -29.395  1.00  0.00     0.166 HD
HETATM   11  C   UNL     1      -2.942   5.325 -31.470  1.00  0.00     0.043 A 
HETATM   12  C   UNL     1      -3.878   4.992 -32.446  1.00  0.00     0.002 A 
HETATM   13  C   UNL     1      -1.578   5.497 -31.742  1.00  0.00     0.033 A 
HETATM   14  C   UNL     1      -3.428   4.822 -33.773  1.00  0.00     0.056 A 
HETATM   15  C   UNL     1      -2.072   4.995 -34.054  1.00  0.00     0.117 A 
HETATM   16  C   UNL     1      -1.157   5.323 -33.062  1.00  0.00     0.044 A 
HETATM   17  F   UNL     1      -1.642   4.833 -35.313  1.00  0.00    -0.206 F 
ENDBRANCH   5   6
ENDBRANCH   1   5
BRANCH   2  18
HETATM   18  C   UNL     1      -6.419   1.014 -34.101  1.00  0.00     0.035 A 
HETATM   19  C   UNL     1      -5.460   0.136 -33.571  1.00  0.00     0.042 A 
HETATM   20  C   UNL     1      -5.510  -1.246 -33.828  1.00  0.00    -0.021 A 
HETATM   21  C   UNL     1      -6.525  -1.735 -34.660  1.00  0.00     0.012 A 
HETATM   22  C   UNL     1      -7.470  -0.868 -35.208  1.00  0.00     0.003 A 
HETATM   23  C   UNL     1      -7.420   0.497 -34.925  1.00  0.00     0.029 A 
BRANCH  20  24
HETATM   24  C   UNL     1      -4.546  -2.166 -33.242  1.00  0.00     0.010 A 
HETATM   25  C   UNL     1      -3.698  -2.025 -32.116  1.00  0.00     0.152 A 
HETATM   26  N   UNL     1      -2.920  -3.090 -31.912  1.00  0.00    -0.187 NA
HETATM   27  N   UNL     1      -3.255  -3.918 -32.911  1.00  0.00    -0.289 N 
HETATM   28  H   UNL     1      -2.778  -4.811 -32.975  1.00  0.00     0.188 HD
HETATM   29  C   UNL     1      -4.222  -3.415 -33.734  1.00  0.00     0.123 A 
ENDBRANCH  20  24
ENDBRANCH   2  18
TORSDOF 4
ENDMDL
MODEL 10
REMARK VINA RESULT:      -8.3      2.208      2.886
REMARK  4 active torsions:
REMARK  status: ('A' for Active; 'I' for Inactive)
REMARK    1  A    between atoms: C_7  and  C_8 
REMARK    2  A    between atoms: C_8  and  C_9 
REMARK       I    between atoms: C_9  and  N_10 
REMARK    3  A    between atoms: N_10  and  C_11 
REMARK    4  A    between atoms: C_13  and  C_14 
ROOT
HETATM    1  C   UNL     1      -7.232   1.831 -31.194  1.00  0.00     0.226 C 
HETATM    2  N   UNL     1      -7.131   1.108 -32.374  1.00  0.00    -0.327 N 
HETATM    3  O   UNL     1      -6.398   1.860 -30.291  1.00  0.00    -0.273 OA
HETATM    4  H   UNL     1      -7.880   1.223 -33.044  1.00  0.00     0.169 HD
ENDROOT
BRANCH   1   5
HETATM    5  C   UNL     1      -8.502   2.660 -31.105  1.00  0.00     0.144 C 
BRANCH   5   6
HETATM    6  C   UNL     1      -9.032   3.191 -32.407  1.00  0.00    -0.015 A 
HETATM    7  C   UNL     1      -8.614   4.276 -33.169  1.00  0.00     0.013 A 
HETATM    8  C   UNL     1      -7.532   5.281 -32.973  1.00  0.00     0.068 C 
HETATM    9  N   UNL     1      -9.391   4.319 -34.302  1.00  0.00    -0.359 N 
HETATM   10  H   UNL     1      -9.295   5.000 -35.044  1.00  0.00     0.166 HD
HETATM   11  C   UNL     1     -10.296   3.288 -34.315  1.00  0.00     0.043 A 
HETATM   12  C   UNL     1     -10.102   2.566 -33.140  1.00  0.00     0.002 A 
HETATM   13  C   UNL     1     -11.252   2.940 -35.280  1.00  0.00     0.033 A 
HETATM   14  C   UNL     1     -10.911   1.432 -32.910  1.00  0.00     0.056 A 
HETATM   15  C   UNL     1     -11.867   1.081 -33.864  1.00  0.00     0.117 A 
HETATM   16  C   UNL     1     -12.039   1.814 -35.030  1.00  0.00     0.044 A 
HETATM   17  F   UNL     1     -12.635   0.004 -33.649  1.00  0.00    -0.206 F 
ENDBRANCH   5   6
ENDBRANCH   1   5
BRANCH   2  18
HETATM   18  C   UNL     1      -6.067   0.267 -32.770  1.00  0.00     0.035 A 
HETATM   19  C   UNL     1      -6.398  -0.992 -33.296  1.00  0.00     0.042 A 
HETATM   20  C   UNL     1      -5.405  -1.882 -33.746  1.00  0.00    -0.021 A 
HETATM   21  C   UNL     1      -4.062  -1.501 -33.627  1.00  0.00     0.012 A 
HETATM   22  C   UNL     1      -3.723  -0.261 -33.088  1.00  0.00     0.003 A 
HETATM   23  C   UNL     1      -4.721   0.620 -32.667  1.00  0.00     0.029 A 
BRANCH  20  24
HETATM   24  C   UNL     1      -5.744  -3.169 -34.335  1.00  0.00     0.010 A 
HETATM   25  C   UNL     1      -4.942  -4.307 -34.596  1.00  0.00     0.152 A 
HETATM   26  N   UNL     1      -5.617  -5.297 -35.187  1.00  0.00    -0.187 NA
HETATM   27  N   UNL     1      -6.853  -4.796 -35.318  1.00  0.00    -0.289 N 
HETATM   28  H   UNL     1      -7.561  -5.374 -35.761  1.00  0.00     0.188 HD
HETATM   29  C   UNL     1      -6.984  -3.529 -34.825  1.00  0.00     0.123 A 
ENDBRANCH  20  24
ENDBRANCH   2  18
TORSDOF 4
ENDMDL
