MODEL 1
REMARK VINA RESULT:      -9.5      0.000      0.000
REMARK  7 active torsions:
REMARK  status: ('A' for Active; 'I' for Inactive)
REMARK    1  A    between atoms: O_2  and  C_3 
REMARK    2  A    between atoms: C_6  and  C_11 
REMARK    3  A    between atoms: C_8  and  O_9 
REMARK       I    between atoms: C_11  and  N_13 
REMARK    4  A    between atoms: N_13  and  C_14 
REMARK    5  A    between atoms: C_14  and  C_16 
REMARK    6  A    between atoms: C_20  and  C_22 
REMARK       I    between atoms: C_22  and  N_24 
REMARK    7  A    between atoms: N_24  and  C_25 
ROOT
HETATM    1  C   UNL     1      -3.098   5.109 -31.304  1.00  0.00    -0.035 A 
HETATM    2  C   UNL     1      -3.951   6.224 -31.223  1.00  0.00     0.009 A 
HETATM    3  C   UNL     1      -5.331   6.080 -31.351  1.00  0.00     0.002 A 
HETATM    4  C   UNL     1      -5.880   4.821 -31.580  1.00  0.00     0.017 A 
HETATM    5  C   UNL     1      -5.052   3.697 -31.692  1.00  0.00     0.033 A 
HETATM    6  C   UNL     1      -3.666   3.845 -31.541  1.00  0.00     0.026 A 
ENDROOT
BRANCH   1   7
HETATM    7  C   UNL     1      -1.597   5.309 -31.184  1.00  0.00     0.114 C 
HETATM    8  C   UNL     1      -0.877   5.668 -32.487  1.00  0.00     0.037 C 
BRANCH   7   9
HETATM    9  N   UNL     1      -1.283   6.193 -30.067  1.00  0.00    -0.349 N 
HETATM   10  C   UNL     1      -0.160   6.082 -29.276  1.00  0.00     0.252 C 
HETATM   11  O   UNL     1       0.670   5.185 -29.397  1.00  0.00    -0.268 OA
HETATM   12  H   UNL     1      -1.777   7.071 -30.073  1.00  0.00     0.163 HD
BRANCH  10  13
HETATM   13  C   UNL     1       0.051   7.140 -28.239  1.00  0.00     0.034 A 
HETATM   14  C   UNL     1       1.180   7.957 -28.352  1.00  0.00     0.020 A 
HETATM   15  C   UNL     1       1.434   8.963 -27.414  1.00  0.00     0.040 A 
HETATM   16  C   UNL     1       0.558   9.187 -26.344  1.00  0.00     0.101 A 
HETATM   17  C   UNL     1      -0.582   8.372 -26.225  1.00  0.00     0.102 A 
HETATM   18  C   UNL     1      -0.811   7.343 -27.155  1.00  0.00     0.056 A 
BRANCH  16  19
HETATM   19  O   UNL     1       0.777  10.134 -25.380  1.00  0.00    -0.353 OA
HETATM   20  C   UNL     1       1.611   9.791 -24.280  1.00  0.00     0.210 C 
ENDBRANCH  16  19
BRANCH  17  21
HETATM   21  O   UNL     1      -1.549   8.417 -25.251  1.00  0.00    -0.353 OA
HETATM   22  C   UNL     1      -2.624   7.492 -25.345  1.00  0.00     0.210 C 
ENDBRANCH  17  21
ENDBRANCH  10  13
ENDBRANCH   7   9
ENDBRANCH   1   7
BRANCH   5  23
HETATM   23  C   UNL     1      -5.699   2.374 -31.943  1.00  0.00     0.256 C 
HETATM   24  O   UNL     1      -6.573   2.012 -31.162  1.00  0.00    -0.267 OA
HETATM   25  N   UNL     1      -5.267   1.692 -33.068  1.00  0.00    -0.323 N 
HETATM   26  H   UNL     1      -4.602   2.161 -33.671  1.00  0.00     0.169 HD
BRANCH  25  27
HETATM   27  C   UNL     1      -5.705   0.426 -33.517  1.00  0.00     0.035 A 
HETATM   28  C   UNL     1      -6.976   0.182 -34.039  1.00  0.00     0.030 A 
HETATM   29  C   UNL     1      -7.335  -1.098 -34.473  1.00  0.00     0.010 A 
HETATM   30  C   UNL     1      -6.425  -2.156 -34.393  1.00  0.00    -0.048 A 
HETATM   31  C   UNL     1      -6.833  -3.540 -34.830  1.00  0.00     0.069 C 
HETATM   32  C   UNL     1      -5.153  -1.936 -33.843  1.00  0.00    -0.022 A 
HETATM   33  C   UNL     1      -5.630  -4.472 -35.027  1.00  0.00     0.277 C 
HETATM   34  N   UNL     1      -4.731  -4.404 -33.867  1.00  0.00     0.088 N 
HETATM   35  C   UNL     1      -3.684  -5.419 -33.959  1.00  0.00     0.310 C 
HETATM   36  C   UNL     1      -4.136  -3.058 -33.769  1.00  0.00     0.311 C 
HETATM   37  C   UNL     1      -4.800  -0.641 -33.421  1.00  0.00     0.039 A 
ENDBRANCH  25  27
ENDBRANCH   5  23
TORSDOF 7
ENDMDL
MODEL 2
REMARK VINA RESULT:      -9.4      2.474     12.123
REMARK  7 active torsions:
REMARK  status: ('A' for Active; 'I' for Inactive)
REMARK    1  A    between atoms: O_2  and  C_3 
REMARK    2  A    between atoms: C_6  and  C_11 
REMARK    3  A    between atoms: C_8  and  O_9 
REMARK       I    between atoms: C_11  and  N_13 
REMARK    4  A    between atoms: N_13  and  C_14 
REMARK    5  A    between atoms: C_14  and  C_16 
REMARK    6  A    between atoms: C_20  and  C_22 
REMARK       I    between atoms: C_22  and  N_24 
REMARK    7  A    between atoms: N_24  and  C_25 
ROOT
HETATM    1  C   UNL     1      -4.028   4.094 -31.991  1.00  0.00    -0.035 A 
HETATM    2  C   UNL     1      -3.253   3.825 -33.133  1.00  0.00     0.009 A 
HETATM    3  C   UNL     1      -2.075   4.528 -33.379  1.00  0.00     0.002 A 
HETATM    4  C   UNL     1      -1.663   5.524 -32.498  1.00  0.00     0.017 A 
HETATM    5  C   UNL     1      -2.430   5.831 -31.366  1.00  0.00     0.033 A 
HETATM    6  C   UNL     1      -3.603   5.105 -31.113  1.00  0.00     0.026 A 
ENDROOT
BRANCH   1   7
HETATM    7  C   UNL     1      -5.318   3.323 -31.769  1.00  0.00     0.114 C 
HETATM    8  C   UNL     1      -6.605   4.127 -31.969  1.00  0.00     0.037 C 
BRANCH   7   9
HETATM    9  N   UNL     1      -5.291   2.054 -32.488  1.00  0.00    -0.349 N 
HETATM   10  C   UNL     1      -4.891   0.854 -31.940  1.00  0.00     0.252 C 
HETATM   11  O   UNL     1      -4.462   0.741 -30.795  1.00  0.00    -0.268 OA
HETATM   12  H   UNL     1      -5.850   2.033 -33.326  1.00  0.00     0.163 HD
BRANCH  10  13
HETATM   13  C   UNL     1      -5.026  -0.366 -32.796  1.00  0.00     0.034 A 
HETATM   14  C   UNL     1      -6.019  -0.372 -33.781  1.00  0.00     0.020 A 
HETATM   15  C   UNL     1      -6.196  -1.483 -34.613  1.00  0.00     0.040 A 
HETATM   16  C   UNL     1      -5.378  -2.613 -34.489  1.00  0.00     0.101 A 
HETATM   17  C   UNL     1      -4.375  -2.612 -33.503  1.00  0.00     0.102 A 
HETATM   18  C   UNL     1      -4.225  -1.503 -32.652  1.00  0.00     0.056 A 
BRANCH  16  19
HETATM   19  O   UNL     1      -5.531  -3.738 -35.252  1.00  0.00    -0.353 OA
HETATM   20  C   UNL     1      -6.772  -4.430 -35.186  1.00  0.00     0.210 C 
ENDBRANCH  16  19
BRANCH  17  21
HETATM   21  O   UNL     1      -3.484  -3.616 -33.211  1.00  0.00    -0.353 OA
HETATM   22  C   UNL     1      -2.971  -3.679 -31.887  1.00  0.00     0.210 C 
ENDBRANCH  17  21
ENDBRANCH  10  13
ENDBRANCH   7   9
ENDBRANCH   1   7
BRANCH   5  23
HETATM   23  C   UNL     1      -1.939   6.912 -30.461  1.00  0.00     0.256 C 
HETATM   24  O   UNL     1      -2.463   8.018 -30.559  1.00  0.00    -0.267 OA
HETATM   25  N   UNL     1      -0.951   6.548 -29.562  1.00  0.00    -0.323 N 
HETATM   26  H   UNL     1      -0.683   5.572 -29.534  1.00  0.00     0.169 HD
BRANCH  25  27
HETATM   27  C   UNL     1      -0.313   7.380 -28.614  1.00  0.00     0.035 A 
HETATM   28  C   UNL     1       1.010   7.809 -28.721  1.00  0.00     0.030 A 
HETATM   29  C   UNL     1       1.571   8.641 -27.748  1.00  0.00     0.010 A 
HETATM   30  C   UNL     1       0.814   9.060 -26.650  1.00  0.00    -0.048 A 
HETATM   31  C   UNL     1       1.436   9.927 -25.586  1.00  0.00     0.069 C 
HETATM   32  C   UNL     1      -0.510   8.614 -26.510  1.00  0.00    -0.022 A 
HETATM   33  C   UNL     1       0.390  10.588 -24.679  1.00  0.00     0.277 C 
HETATM   34  N   UNL     1      -0.582   9.593 -24.207  1.00  0.00     0.088 N 
HETATM   35  C   UNL     1      -1.470  10.170 -23.199  1.00  0.00     0.310 C 
HETATM   36  C   UNL     1      -1.363   9.073 -25.345  1.00  0.00     0.311 C 
HETATM   37  C   UNL     1      -1.066   7.786 -27.503  1.00  0.00     0.039 A 
ENDBRANCH  25  27
ENDBRANCH   5  23
TORSDOF 7
ENDMDL
MODEL 3
REMARK VINA RESULT:      -9.3      2.894     11.790
REMARK  7 active torsions:
REMARK  status: ('A' for Active; 'I' for Inactive)
REMARK    1  A    between atoms: O_2  and  C_3 
REMARK    2  A    between atoms: C_6  and  C_11 
REMARK    3  A    between atoms: C_8  and  O_9 
REMARK       I    between atoms: C_11  and  N_13 
REMARK    4  A    between atoms: N_13  and  C_14 
REMARK    5  A    between atoms: C_14  and  C_16 
REMARK    6  A    between atoms: C_20  and  C_22 
REMARK       I    between atoms: C_22  and  N_24 
REMARK    7  A    between atoms: N_24  and  C_25 
ROOT
HETATM    1  C   UNL     1      -4.645   5.019 -33.466  1.00  0.00    -0.035 A 
HETATM    2  C   UNL     1      -4.020   4.782 -34.703  1.00  0.00     0.009 A 
HETATM    3  C   UNL     1      -2.874   5.485 -35.071  1.00  0.00     0.002 A 
HETATM    4  C   UNL     1      -2.345   6.450 -34.217  1.00  0.00     0.017 A 
HETATM    5  C   UNL     1      -2.963   6.725 -32.990  1.00  0.00     0.033 A 
HETATM    6  C   UNL     1      -4.103   5.999 -32.616  1.00  0.00     0.026 A 
ENDROOT
BRANCH   1   7
HETATM    7  C   UNL     1      -5.905   4.250 -33.109  1.00  0.00     0.114 C 
HETATM    8  C   UNL     1      -7.221   4.932 -33.497  1.00  0.00     0.037 C 
BRANCH   7   9
HETATM    9  N   UNL     1      -5.803   2.862 -33.546  1.00  0.00    -0.349 N 
HETATM   10  C   UNL     1      -5.565   1.795 -32.706  1.00  0.00     0.252 C 
HETATM   11  O   UNL     1      -5.359   1.913 -31.501  1.00  0.00    -0.268 OA
HETATM   12  H   UNL     1      -6.199   2.676 -34.453  1.00  0.00     0.163 HD
BRANCH  10  13
HETATM   13  C   UNL     1      -5.595   0.428 -33.315  1.00  0.00     0.034 A 
HETATM   14  C   UNL     1      -6.579   0.154 -34.270  1.00  0.00     0.020 A 
HETATM   15  C   UNL     1      -6.660  -1.105 -34.874  1.00  0.00     0.040 A 
HETATM   16  C   UNL     1      -5.751  -2.120 -34.548  1.00  0.00     0.101 A 
HETATM   17  C   UNL     1      -4.756  -1.850 -33.591  1.00  0.00     0.102 A 
HETATM   18  C   UNL     1      -4.703  -0.592 -32.967  1.00  0.00     0.056 A 
BRANCH  16  19
HETATM   19  O   UNL     1      -5.807  -3.378 -35.083  1.00  0.00    -0.353 OA
HETATM   20  C   UNL     1      -6.955  -4.172 -34.811  1.00  0.00     0.210 C 
ENDBRANCH  16  19
BRANCH  17  21
HETATM   21  O   UNL     1      -3.787  -2.703 -33.125  1.00  0.00    -0.353 OA
HETATM   22  C   UNL     1      -3.107  -2.341 -31.930  1.00  0.00     0.210 C 
ENDBRANCH  17  21
ENDBRANCH  10  13
ENDBRANCH   7   9
ENDBRANCH   1   7
BRANCH   5  23
HETATM   23  C   UNL     1      -2.353   7.773 -32.119  1.00  0.00     0.256 C 
HETATM   24  O   UNL     1      -1.738   8.681 -32.669  1.00  0.00    -0.267 OA
HETATM   25  N   UNL     1      -2.573   7.634 -30.759  1.00  0.00    -0.323 N 
HETATM   26  H   UNL     1      -3.181   6.882 -30.459  1.00  0.00     0.169 HD
BRANCH  25  27
HETATM   27  C   UNL     1      -2.096   8.476 -29.729  1.00  0.00     0.035 A 
HETATM   28  C   UNL     1      -2.644   9.723 -29.426  1.00  0.00     0.030 A 
HETATM   29  C   UNL     1      -2.124  10.496 -28.384  1.00  0.00     0.010 A 
HETATM   30  C   UNL     1      -1.046  10.033 -27.625  1.00  0.00    -0.048 A 
HETATM   31  C   UNL     1      -0.469  10.888 -26.526  1.00  0.00     0.069 C 
HETATM   32  C   UNL     1      -0.463   8.794 -27.934  1.00  0.00    -0.022 A 
HETATM   33  C   UNL     1       0.433  10.093 -25.574  1.00  0.00     0.277 C 
HETATM   34  N   UNL     1       1.398   9.286 -26.333  1.00  0.00     0.088 N 
HETATM   35  C   UNL     1       2.379   8.671 -25.441  1.00  0.00     0.310 C 
HETATM   36  C   UNL     1       0.690   8.253 -27.111  1.00  0.00     0.311 C 
HETATM   37  C   UNL     1      -1.003   8.020 -28.978  1.00  0.00     0.039 A 
ENDBRANCH  25  27
ENDBRANCH   5  23
TORSDOF 7
ENDMDL
MODEL 4
REMARK VINA RESULT:      -9.2      3.846     10.552
REMARK  7 active torsions:
REMARK  status: ('A' for Active; 'I' for Inactive)
REMARK    1  A    between atoms: O_2  and  C_3 
REMARK    2  A    between atoms: C_6  and  C_11 
REMARK    3  A    between atoms: C_8  and  O_9 
REMARK       I    between atoms: C_11  and  N_13 
REMARK    4  A    between atoms: N_13  and  C_14 
REMARK    5  A    between atoms: C_14  and  C_16 
REMARK    6  A    between atoms: C_20  and  C_22 
REMARK       I    between atoms: C_22  and  N_24 
REMARK    7  A    between atoms: N_24  and  C_25 
ROOT
HETATM    1  C   UNL     1      -9.843   2.859 -33.859  1.00  0.00    -0.035 A 
HETATM    2  C   UNL     1     -10.849   3.674 -34.407  1.00  0.00     0.009 A 
HETATM    3  C   UNL     1     -10.615   5.024 -34.662  1.00  0.00     0.002 A 
HETATM    4  C   UNL     1      -9.378   5.585 -34.356  1.00  0.00     0.017 A 
HETATM    5  C   UNL     1      -8.367   4.802 -33.784  1.00  0.00     0.033 A 
HETATM    6  C   UNL     1      -8.601   3.439 -33.550  1.00  0.00     0.026 A 
ENDROOT
BRANCH   1   7
HETATM    7  C   UNL     1     -10.142   1.397 -33.573  1.00  0.00     0.114 C 
HETATM    8  C   UNL     1     -11.449   0.867 -34.169  1.00  0.00     0.037 C 
BRANCH   7   9
HETATM    9  N   UNL     1      -8.977   0.567 -33.860  1.00  0.00    -0.349 N 
HETATM   10  C   UNL     1      -8.093   0.108 -32.908  1.00  0.00     0.252 C 
HETATM   11  O   UNL     1      -8.165   0.399 -31.717  1.00  0.00    -0.268 OA
HETATM   12  H   UNL     1      -9.002   0.100 -34.752  1.00  0.00     0.163 HD
BRANCH  10  13
HETATM   13  C   UNL     1      -7.012  -0.819 -33.372  1.00  0.00     0.034 A 
HETATM   14  C   UNL     1      -7.381  -1.931 -34.134  1.00  0.00     0.020 A 
HETATM   15  C   UNL     1      -6.418  -2.835 -34.596  1.00  0.00     0.040 A 
HETATM   16  C   UNL     1      -5.059  -2.643 -34.317  1.00  0.00     0.101 A 
HETATM   17  C   UNL     1      -4.680  -1.524 -33.553  1.00  0.00     0.102 A 
HETATM   18  C   UNL     1      -5.658  -0.639 -33.068  1.00  0.00     0.056 A 
BRANCH  16  19
HETATM   19  O   UNL     1      -4.080  -3.513 -34.714  1.00  0.00    -0.353 OA
HETATM   20  C   UNL     1      -3.771  -4.609 -33.861  1.00  0.00     0.210 C 
ENDBRANCH  16  19
BRANCH  17  21
HETATM   21  O   UNL     1      -3.414  -1.165 -33.161  1.00  0.00    -0.353 OA
HETATM   22  C   UNL     1      -3.086  -1.300 -31.784  1.00  0.00     0.210 C 
ENDBRANCH  17  21
ENDBRANCH  10  13
ENDBRANCH   7   9
ENDBRANCH   1   7
BRANCH   5  23
HETATM   23  C   UNL     1      -7.063   5.462 -33.474  1.00  0.00     0.256 C 
HETATM   24  O   UNL     1      -7.094   6.509 -32.836  1.00  0.00    -0.267 OA
HETATM   25  N   UNL     1      -5.929   4.798 -33.912  1.00  0.00    -0.323 N 
HETATM   26  H   UNL     1      -6.057   3.892 -34.344  1.00  0.00     0.169 HD
BRANCH  25  27
HETATM   27  C   UNL     1      -4.587   5.214 -33.759  1.00  0.00     0.035 A 
HETATM   28  C   UNL     1      -3.729   5.483 -34.825  1.00  0.00     0.030 A 
HETATM   29  C   UNL     1      -2.415   5.902 -34.595  1.00  0.00     0.010 A 
HETATM   30  C   UNL     1      -1.938   6.059 -33.291  1.00  0.00    -0.048 A 
HETATM   31  C   UNL     1      -0.509   6.475 -33.052  1.00  0.00     0.069 C 
HETATM   32  C   UNL     1      -2.777   5.763 -32.206  1.00  0.00    -0.022 A 
HETATM   33  C   UNL     1      -0.269   6.955 -31.615  1.00  0.00     0.277 C 
HETATM   34  N   UNL     1      -0.827   5.996 -30.652  1.00  0.00     0.088 N 
HETATM   35  C   UNL     1      -0.445   6.347 -29.286  1.00  0.00     0.310 C 
HETATM   36  C   UNL     1      -2.296   5.950 -30.781  1.00  0.00     0.311 C 
HETATM   37  C   UNL     1      -4.101   5.355 -32.451  1.00  0.00     0.039 A 
ENDBRANCH  25  27
ENDBRANCH   5  23
TORSDOF 7
ENDMDL
MODEL 5
REMARK VINA RESULT:      -9.1      3.856      7.701
REMARK  7 active torsions:
REMARK  status: ('A' for Active; 'I' for Inactive)
REMARK    1  A    between atoms: O_2  and  C_3 
REMARK    2  A    between atoms: C_6  and  C_11 
REMARK    3  A    between atoms: C_8  and  O_9 
REMARK       I    between atoms: C_11  and  N_13 
REMARK    4  A    between atoms: N_13  and  C_14 
REMARK    5  A    between atoms: C_14  and  C_16 
REMARK    6  A    between atoms: C_20  and  C_22 
REMARK       I    between atoms: C_22  and  N_24 
REMARK    7  A    between atoms: N_24  and  C_25 
ROOT
HETATM    1  C   UNL     1      -4.429  -0.860 -32.809  1.00  0.00    -0.035 A 
HETATM    2  C   UNL     1      -4.177  -2.140 -33.332  1.00  0.00     0.009 A 
HETATM    3  C   UNL     1      -5.052  -2.724 -34.246  1.00  0.00     0.002 A 
HETATM    4  C   UNL     1      -6.204  -2.046 -34.636  1.00  0.00     0.017 A 
HETATM    5  C   UNL     1      -6.493  -0.780 -34.110  1.00  0.00     0.033 A 
HETATM    6  C   UNL     1      -5.597  -0.189 -33.208  1.00  0.00     0.026 A 
ENDROOT
BRANCH   1   7
HETATM    7  C   UNL     1      -3.464  -0.266 -31.797  1.00  0.00     0.114 C 
HETATM    8  C   UNL     1      -2.139  -1.017 -31.635  1.00  0.00     0.037 C 
BRANCH   7   9
HETATM    9  N   UNL     1      -3.312   1.169 -32.011  1.00  0.00    -0.349 N 
HETATM   10  C   UNL     1      -3.967   2.140 -31.283  1.00  0.00     0.252 C 
HETATM   11  O   UNL     1      -4.793   1.892 -30.410  1.00  0.00    -0.268 OA
HETATM   12  H   UNL     1      -2.487   1.433 -32.525  1.00  0.00     0.163 HD
BRANCH  10  13
HETATM   13  C   UNL     1      -3.611   3.565 -31.573  1.00  0.00     0.034 A 
HETATM   14  C   UNL     1      -4.351   4.569 -30.942  1.00  0.00     0.020 A 
HETATM   15  C   UNL     1      -4.068   5.920 -31.173  1.00  0.00     0.040 A 
HETATM   16  C   UNL     1      -3.030   6.301 -32.032  1.00  0.00     0.101 A 
HETATM   17  C   UNL     1      -2.278   5.296 -32.667  1.00  0.00     0.102 A 
HETATM   18  C   UNL     1      -2.591   3.942 -32.453  1.00  0.00     0.056 A 
BRANCH  16  19
HETATM   19  O   UNL     1      -2.733   7.606 -32.319  1.00  0.00    -0.353 OA
HETATM   20  C   UNL     1      -2.130   8.396 -31.301  1.00  0.00     0.210 C 
ENDBRANCH  16  19
BRANCH  17  21
HETATM   21  O   UNL     1      -1.237   5.456 -33.548  1.00  0.00    -0.353 OA
HETATM   22  C   UNL     1      -1.492   5.203 -34.924  1.00  0.00     0.210 C 
ENDBRANCH  17  21
ENDBRANCH  10  13
ENDBRANCH   7   9
ENDBRANCH   1   7
BRANCH   5  23
HETATM   23  C   UNL     1      -7.745  -0.104 -34.563  1.00  0.00     0.256 C 
HETATM   24  O   UNL     1      -8.041  -0.192 -35.751  1.00  0.00    -0.267 OA
HETATM   25  N   UNL     1      -8.480   0.535 -33.578  1.00  0.00    -0.323 N 
HETATM   26  H   UNL     1      -8.158   0.442 -32.622  1.00  0.00     0.169 HD
BRANCH  25  27
HETATM   27  C   UNL     1      -9.685   1.254 -33.746  1.00  0.00     0.035 A 
HETATM   28  C   UNL     1     -10.951   0.719 -33.509  1.00  0.00     0.030 A 
HETATM   29  C   UNL     1     -12.099   1.496 -33.687  1.00  0.00     0.010 A 
HETATM   30  C   UNL     1     -11.998   2.826 -34.104  1.00  0.00    -0.048 A 
HETATM   31  C   UNL     1     -13.242   3.647 -34.329  1.00  0.00     0.069 C 
HETATM   32  C   UNL     1     -10.734   3.373 -34.376  1.00  0.00    -0.022 A 
HETATM   33  C   UNL     1     -12.948   5.150 -34.413  1.00  0.00     0.277 C 
HETATM   34  N   UNL     1     -11.836   5.405 -35.339  1.00  0.00     0.088 N 
HETATM   35  C   UNL     1     -11.668   6.839 -35.569  1.00  0.00     0.310 C 
HETATM   36  C   UNL     1     -10.592   4.820 -34.805  1.00  0.00     0.311 C 
HETATM   37  C   UNL     1      -9.586   2.583 -34.181  1.00  0.00     0.039 A 
ENDBRANCH  25  27
ENDBRANCH   5  23
TORSDOF 7
ENDMDL
MODEL 6
REMARK VINA RESULT:      -9.1      2.219      3.867
REMARK  7 active torsions:
REMARK  status: ('A' for Active; 'I' for Inactive)
REMARK    1  A    between atoms: O_2  and  C_3 
REMARK    2  A    between atoms: C_6  and  C_11 
REMARK    3  A    between atoms: C_8  and  O_9 
REMARK       I    between atoms: C_11  and  N_13 
REMARK    4  A    between atoms: N_13  and  C_14 
REMARK    5  A    between atoms: C_14  and  C_16 
REMARK    6  A    between atoms: C_20  and  C_22 
REMARK       I    between atoms: C_22  and  N_24 
REMARK    7  A    between atoms: N_24  and  C_25 
ROOT
HETATM    1  C   UNL     1      -1.080   7.150 -29.709  1.00  0.00    -0.035 A 
HETATM    2  C   UNL     1       0.297   6.988 -29.945  1.00  0.00     0.009 A 
HETATM    3  C   UNL     1       0.760   6.035 -30.851  1.00  0.00     0.002 A 
HETATM    4  C   UNL     1      -0.145   5.215 -31.520  1.00  0.00     0.017 A 
HETATM    5  C   UNL     1      -1.521   5.336 -31.283  1.00  0.00     0.033 A 
HETATM    6  C   UNL     1      -1.981   6.312 -30.387  1.00  0.00     0.026 A 
ENDROOT
BRANCH   1   7
HETATM    7  C   UNL     1      -1.545   8.184 -28.697  1.00  0.00     0.114 C 
HETATM    8  C   UNL     1      -2.980   8.009 -28.194  1.00  0.00     0.037 C 
BRANCH   7   9
HETATM    9  N   UNL     1      -0.558   8.347 -27.636  1.00  0.00    -0.349 N 
HETATM   10  C   UNL     1      -0.257   9.546 -27.027  1.00  0.00     0.252 C 
HETATM   11  O   UNL     1      -0.756  10.618 -27.356  1.00  0.00    -0.268 OA
HETATM   12  H   UNL     1      -0.304   7.494 -27.162  1.00  0.00     0.163 HD
BRANCH  10  13
HETATM   13  C   UNL     1       0.710   9.507 -25.885  1.00  0.00     0.034 A 
HETATM   14  C   UNL     1       1.922   8.835 -26.071  1.00  0.00     0.020 A 
HETATM   15  C   UNL     1       2.866   8.762 -25.041  1.00  0.00     0.040 A 
HETATM   16  C   UNL     1       2.628   9.369 -23.801  1.00  0.00     0.101 A 
HETATM   17  C   UNL     1       1.412  10.050 -23.608  1.00  0.00     0.102 A 
HETATM   18  C   UNL     1       0.457  10.091 -24.639  1.00  0.00     0.056 A 
BRANCH  16  19
HETATM   19  O   UNL     1       3.501   9.299 -22.750  1.00  0.00    -0.353 OA
HETATM   20  C   UNL     1       3.379   8.205 -21.849  1.00  0.00     0.210 C 
ENDBRANCH  16  19
BRANCH  17  21
HETATM   21  O   UNL     1       0.983  10.695 -22.475  1.00  0.00    -0.353 OA
HETATM   22  C   UNL     1      -0.393  11.046 -22.396  1.00  0.00     0.210 C 
ENDBRANCH  17  21
ENDBRANCH  10  13
ENDBRANCH   7   9
ENDBRANCH   1   7
BRANCH   5  23
HETATM   23  C   UNL     1      -2.441   4.426 -32.027  1.00  0.00     0.256 C 
HETATM   24  O   UNL     1      -2.530   4.575 -33.241  1.00  0.00    -0.267 OA
HETATM   25  N   UNL     1      -3.088   3.465 -31.267  1.00  0.00    -0.323 N 
HETATM   26  H   UNL     1      -2.842   3.403 -30.287  1.00  0.00     0.169 HD
BRANCH  25  27
HETATM   27  C   UNL     1      -4.013   2.499 -31.724  1.00  0.00     0.035 A 
HETATM   28  C   UNL     1      -5.397   2.665 -31.682  1.00  0.00     0.030 A 
HETATM   29  C   UNL     1      -6.250   1.668 -32.162  1.00  0.00     0.010 A 
HETATM   30  C   UNL     1      -5.731   0.485 -32.696  1.00  0.00    -0.048 A 
HETATM   31  C   UNL     1      -6.659  -0.600 -33.179  1.00  0.00     0.069 C 
HETATM   32  C   UNL     1      -4.341   0.287 -32.719  1.00  0.00    -0.022 A 
HETATM   33  C   UNL     1      -5.945  -1.636 -34.057  1.00  0.00     0.277 C 
HETATM   34  N   UNL     1      -4.706  -2.091 -33.413  1.00  0.00     0.088 N 
HETATM   35  C   UNL     1      -4.116  -3.207 -34.148  1.00  0.00     0.310 C 
HETATM   36  C   UNL     1      -3.748  -0.974 -33.316  1.00  0.00     0.311 C 
HETATM   37  C   UNL     1      -3.493   1.304 -32.243  1.00  0.00     0.039 A 
ENDBRANCH  25  27
ENDBRANCH   5  23
TORSDOF 7
ENDMDL
MODEL 7
REMARK VINA RESULT:      -8.9      4.114     10.976
REMARK  7 active torsions:
REMARK  status: ('A' for Active; 'I' for Inactive)
REMARK    1  A    between atoms: O_2  and  C_3 
REMARK    2  A    between atoms: C_6  and  C_11 
REMARK    3  A    between atoms: C_8  and  O_9 
REMARK       I    between atoms: C_11  and  N_13 
REMARK    4  A    between atoms: N_13  and  C_14 
REMARK    5  A    between atoms: C_14  and  C_16 
REMARK    6  A    between atoms: C_20  and  C_22 
REMARK       I    between atoms: C_22  and  N_24 
REMARK    7  A    between atoms: N_24  and  C_25 
ROOT
HETATM    1  C   UNL     1      -5.246  -1.457 -33.559  1.00  0.00    -0.035 A 
HETATM    2  C   UNL     1      -4.476  -2.567 -33.168  1.00  0.00     0.009 A 
HETATM    3  C   UNL     1      -3.351  -2.408 -32.361  1.00  0.00     0.002 A 
HETATM    4  C   UNL     1      -2.966  -1.135 -31.948  1.00  0.00     0.017 A 
HETATM    5  C   UNL     1      -3.700  -0.009 -32.345  1.00  0.00     0.033 A 
HETATM    6  C   UNL     1      -4.843  -0.178 -33.139  1.00  0.00     0.026 A 
ENDROOT
BRANCH   1   7
HETATM    7  C   UNL     1      -6.452  -1.668 -34.459  1.00  0.00     0.114 C 
HETATM    8  C   UNL     1      -6.878  -3.125 -34.654  1.00  0.00     0.037 C 
BRANCH   7   9
HETATM    9  N   UNL     1      -7.540  -0.775 -34.078  1.00  0.00    -0.349 N 
HETATM   10  C   UNL     1      -7.843   0.406 -34.722  1.00  0.00     0.252 C 
HETATM   11  O   UNL     1      -7.187   0.857 -35.657  1.00  0.00    -0.268 OA
HETATM   12  H   UNL     1      -8.248  -1.197 -33.498  1.00  0.00     0.163 HD
BRANCH  10  13
HETATM   13  C   UNL     1      -9.060   1.143 -34.258  1.00  0.00     0.034 A 
HETATM   14  C   UNL     1     -10.134   0.395 -33.763  1.00  0.00     0.020 A 
HETATM   15  C   UNL     1     -11.300   1.026 -33.315  1.00  0.00     0.040 A 
HETATM   16  C   UNL     1     -11.418   2.421 -33.339  1.00  0.00     0.101 A 
HETATM   17  C   UNL     1     -10.341   3.180 -33.832  1.00  0.00     0.102 A 
HETATM   18  C   UNL     1      -9.186   2.535 -34.309  1.00  0.00     0.056 A 
BRANCH  16  19
HETATM   19  O   UNL     1     -12.548   3.086 -32.946  1.00  0.00    -0.353 OA
HETATM   20  C   UNL     1     -13.782   2.381 -32.966  1.00  0.00     0.210 C 
ENDBRANCH  16  19
BRANCH  17  21
HETATM   21  O   UNL     1     -10.261   4.545 -33.952  1.00  0.00    -0.353 OA
HETATM   22  C   UNL     1     -10.270   5.095 -35.264  1.00  0.00     0.210 C 
ENDBRANCH  17  21
ENDBRANCH  10  13
ENDBRANCH   7   9
ENDBRANCH   1   7
BRANCH   5  23
HETATM   23  C   UNL     1      -3.236   1.330 -31.873  1.00  0.00     0.256 C 
HETATM   24  O   UNL     1      -2.612   1.376 -30.818  1.00  0.00    -0.267 OA
HETATM   25  N   UNL     1      -3.529   2.399 -32.703  1.00  0.00    -0.323 N 
HETATM   26  H   UNL     1      -3.970   2.193 -33.590  1.00  0.00     0.169 HD
BRANCH  25  27
HETATM   27  C   UNL     1      -3.216   3.759 -32.481  1.00  0.00     0.035 A 
HETATM   28  C   UNL     1      -2.145   4.421 -33.083  1.00  0.00     0.030 A 
HETATM   29  C   UNL     1      -1.904   5.772 -32.823  1.00  0.00     0.010 A 
HETATM   30  C   UNL     1      -2.734   6.487 -31.954  1.00  0.00    -0.048 A 
HETATM   31  C   UNL     1      -2.445   7.935 -31.651  1.00  0.00     0.069 C 
HETATM   32  C   UNL     1      -3.798   5.832 -31.316  1.00  0.00    -0.022 A 
HETATM   33  C   UNL     1      -3.637   8.648 -30.999  1.00  0.00     0.277 C 
HETATM   34  N   UNL     1      -4.165   7.852 -29.883  1.00  0.00     0.088 N 
HETATM   35  C   UNL     1      -5.176   8.602 -29.141  1.00  0.00     0.310 C 
HETATM   36  C   UNL     1      -4.730   6.588 -30.390  1.00  0.00     0.311 C 
HETATM   37  C   UNL     1      -4.037   4.474 -31.596  1.00  0.00     0.039 A 
ENDBRANCH  25  27
ENDBRANCH   5  23
TORSDOF 7
ENDMDL
MODEL 8
REMARK VINA RESULT:      -8.5      4.372      8.147
REMARK  7 active torsions:
REMARK  status: ('A' for Active; 'I' for Inactive)
REMARK    1  A    between atoms: O_2  and  C_3 
REMARK    2  A    between atoms: C_6  and  C_11 
REMARK    3  A    between atoms: C_8  and  O_9 
REMARK       I    between atoms: C_11  and  N_13 
REMARK    4  A    between atoms: N_13  and  C_14 
REMARK    5  A    between atoms: C_14  and  C_16 
REMARK    6  A    between atoms: C_20  and  C_22 
REMARK       I    between atoms: C_22  and  N_24 
REMARK    7  A    between atoms: N_24  and  C_25 
ROOT
HETATM    1  C   UNL     1      -5.821  -0.202 -32.823  1.00  0.00    -0.035 A 
HETATM    2  C   UNL     1      -5.687  -1.258 -33.742  1.00  0.00     0.009 A 
HETATM    3  C   UNL     1      -6.697  -1.539 -34.661  1.00  0.00     0.002 A 
HETATM    4  C   UNL     1      -7.865  -0.781 -34.663  1.00  0.00     0.017 A 
HETATM    5  C   UNL     1      -8.036   0.259 -33.740  1.00  0.00     0.033 A 
HETATM    6  C   UNL     1      -7.008   0.551 -32.833  1.00  0.00     0.026 A 
ENDROOT
BRANCH   1   7
HETATM    7  C   UNL     1      -4.709   0.059 -31.821  1.00  0.00     0.114 C 
HETATM    8  C   UNL     1      -3.648  -1.039 -31.719  1.00  0.00     0.037 C 
BRANCH   7   9
HETATM    9  N   UNL     1      -4.164   1.400 -31.995  1.00  0.00    -0.349 N 
HETATM   10  C   UNL     1      -4.452   2.473 -31.179  1.00  0.00     0.252 C 
HETATM   11  O   UNL     1      -5.248   2.420 -30.245  1.00  0.00    -0.268 OA
HETATM   12  H   UNL     1      -3.338   1.447 -32.570  1.00  0.00     0.163 HD
BRANCH  10  13
HETATM   13  C   UNL     1      -3.720   3.750 -31.447  1.00  0.00     0.034 A 
HETATM   14  C   UNL     1      -4.469   4.925 -31.571  1.00  0.00     0.020 A 
HETATM   15  C   UNL     1      -3.843   6.150 -31.823  1.00  0.00     0.040 A 
HETATM   16  C   UNL     1      -2.450   6.236 -31.946  1.00  0.00     0.101 A 
HETATM   17  C   UNL     1      -1.690   5.059 -31.819  1.00  0.00     0.102 A 
HETATM   18  C   UNL     1      -2.331   3.828 -31.597  1.00  0.00     0.056 A 
BRANCH  16  19
HETATM   19  O   UNL     1      -1.791   7.401 -32.227  1.00  0.00    -0.353 OA
HETATM   20  C   UNL     1      -2.241   8.594 -31.597  1.00  0.00     0.210 C 
ENDBRANCH  16  19
BRANCH  17  21
HETATM   21  O   UNL     1      -0.327   4.925 -31.919  1.00  0.00    -0.353 OA
HETATM   22  C   UNL     1       0.449   5.196 -30.759  1.00  0.00     0.210 C 
ENDBRANCH  17  21
ENDBRANCH  10  13
ENDBRANCH   7   9
ENDBRANCH   1   7
BRANCH   5  23
HETATM   23  C   UNL     1      -9.313   1.033 -33.788  1.00  0.00     0.256 C 
HETATM   24  O   UNL     1     -10.244   0.637 -33.094  1.00  0.00    -0.267 OA
HETATM   25  N   UNL     1      -9.309   2.159 -34.596  1.00  0.00    -0.323 N 
HETATM   26  H   UNL     1      -8.434   2.413 -35.037  1.00  0.00     0.169 HD
BRANCH  25  27
HETATM   27  C   UNL     1     -10.385   3.046 -34.824  1.00  0.00     0.035 A 
HETATM   28  C   UNL     1     -11.719   2.648 -34.911  1.00  0.00     0.030 A 
HETATM   29  C   UNL     1     -12.731   3.587 -35.129  1.00  0.00     0.010 A 
HETATM   30  C   UNL     1     -12.424   4.944 -35.261  1.00  0.00    -0.048 A 
HETATM   31  C   UNL     1     -13.518   5.946 -35.531  1.00  0.00     0.069 C 
HETATM   32  C   UNL     1     -11.085   5.360 -35.206  1.00  0.00    -0.022 A 
HETATM   33  C   UNL     1     -13.068   7.390 -35.276  1.00  0.00     0.277 C 
HETATM   34  N   UNL     1     -11.781   7.653 -35.934  1.00  0.00     0.088 N 
HETATM   35  C   UNL     1     -11.435   9.070 -35.854  1.00  0.00     0.310 C 
HETATM   36  C   UNL     1     -10.724   6.828 -35.319  1.00  0.00     0.311 C 
HETATM   37  C   UNL     1     -10.077   4.406 -34.974  1.00  0.00     0.039 A 
ENDBRANCH  25  27
ENDBRANCH   5  23
TORSDOF 7
ENDMDL
MODEL 9
REMARK VINA RESULT:      -8.5      2.692     12.583
REMARK  7 active torsions:
REMARK  status: ('A' for Active; 'I' for Inactive)
REMARK    1  A    between atoms: O_2  and  C_3 
REMARK    2  A    between atoms: C_6  and  C_11 
REMARK    3  A    between atoms: C_8  and  O_9 
REMARK       I    between atoms: C_11  and  N_13 
REMARK    4  A    between atoms: N_13  and  C_14 
REMARK    5  A    between atoms: C_14  and  C_16 
REMARK    6  A    between atoms: C_20  and  C_22 
REMARK       I    between atoms: C_22  and  N_24 
REMARK    7  A    between atoms: N_24  and  C_25 
ROOT
HETATM    1  C   UNL     1      -2.120   5.762 -31.040  1.00  0.00    -0.035 A 
HETATM    2  C   UNL     1      -0.950   5.232 -31.613  1.00  0.00     0.009 A 
HETATM    3  C   UNL     1       0.309   5.627 -31.162  1.00  0.00     0.002 A 
HETATM    4  C   UNL     1       0.418   6.572 -30.145  1.00  0.00     0.017 A 
HETATM    5  C   UNL     1      -0.731   7.136 -29.575  1.00  0.00     0.033 A 
HETATM    6  C   UNL     1      -1.994   6.718 -30.018  1.00  0.00     0.026 A 
ENDROOT
BRANCH   1   7
HETATM    7  C   UNL     1      -3.473   5.325 -31.574  1.00  0.00     0.114 C 
HETATM    8  C   UNL     1      -4.022   6.160 -32.734  1.00  0.00     0.037 C 
BRANCH   7   9
HETATM    9  N   UNL     1      -3.492   3.886 -31.814  1.00  0.00    -0.349 N 
HETATM   10  C   UNL     1      -4.637   3.123 -31.892  1.00  0.00     0.252 C 
HETATM   11  O   UNL     1      -5.765   3.571 -31.710  1.00  0.00    -0.268 OA
HETATM   12  H   UNL     1      -2.643   3.514 -32.209  1.00  0.00     0.163 HD
BRANCH  10  13
HETATM   13  C   UNL     1      -4.470   1.678 -32.248  1.00  0.00     0.034 A 
HETATM   14  C   UNL     1      -3.367   0.995 -31.727  1.00  0.00     0.020 A 
HETATM   15  C   UNL     1      -3.155  -0.355 -32.024  1.00  0.00     0.040 A 
HETATM   16  C   UNL     1      -4.047  -1.062 -32.841  1.00  0.00     0.101 A 
HETATM   17  C   UNL     1      -5.161  -0.382 -33.366  1.00  0.00     0.102 A 
HETATM   18  C   UNL     1      -5.349   0.983 -33.086  1.00  0.00     0.056 A 
BRANCH  16  19
HETATM   19  O   UNL     1      -3.869  -2.372 -33.191  1.00  0.00    -0.353 OA
HETATM   20  C   UNL     1      -3.338  -3.260 -32.215  1.00  0.00     0.210 C 
ENDBRANCH  16  19
BRANCH  17  21
HETATM   21  O   UNL     1      -6.139  -0.882 -34.190  1.00  0.00    -0.353 OA
HETATM   22  C   UNL     1      -7.485  -0.808 -33.739  1.00  0.00     0.210 C 
ENDBRANCH  17  21
ENDBRANCH  10  13
ENDBRANCH   7   9
ENDBRANCH   1   7
BRANCH   5  23
HETATM   23  C   UNL     1      -0.549   8.147 -28.491  1.00  0.00     0.256 C 
HETATM   24  O   UNL     1      -1.528   8.811 -28.164  1.00  0.00    -0.267 OA
HETATM   25  N   UNL     1       0.715   8.213 -27.929  1.00  0.00    -0.323 N 
HETATM   26  H   UNL     1       1.399   7.534 -28.240  1.00  0.00     0.169 HD
BRANCH  25  27
HETATM   27  C   UNL     1       1.147   9.086 -26.906  1.00  0.00     0.035 A 
HETATM   28  C   UNL     1       0.732  10.413 -26.787  1.00  0.00     0.030 A 
HETATM   29  C   UNL     1       1.196  11.214 -25.740  1.00  0.00     0.010 A 
HETATM   30  C   UNL     1       2.084  10.699 -24.791  1.00  0.00    -0.048 A 
HETATM   31  C   UNL     1       2.608  11.580 -23.686  1.00  0.00     0.069 C 
HETATM   32  C   UNL     1       2.536   9.375 -24.912  1.00  0.00    -0.022 A 
HETATM   33  C   UNL     1       3.251  10.777 -22.549  1.00  0.00     0.277 C 
HETATM   34  N   UNL     1       4.199   9.792 -23.087  1.00  0.00     0.088 N 
HETATM   35  C   UNL     1       4.952   9.151 -22.010  1.00  0.00     0.310 C 
HETATM   36  C   UNL     1       3.478   8.781 -23.883  1.00  0.00     0.311 C 
HETATM   37  C   UNL     1       2.052   8.576 -25.963  1.00  0.00     0.039 A 
ENDBRANCH  25  27
ENDBRANCH   5  23
TORSDOF 7
ENDMDL
MODEL 10
REMARK VINA RESULT:      -8.4      5.037      8.092
REMARK  7 active torsions:
REMARK  status: ('A' for Active; 'I' for Inactive)
REMARK    1  A    between atoms: O_2  and  C_3 
REMARK    2  A    between atoms: C_6  and  C_11 
REMARK    3  A    between atoms: C_8  and  O_9 
REMARK       I    between atoms: C_11  and  N_13 
REMARK    4  A    between atoms: N_13  and  C_14 
REMARK    5  A    between atoms: C_14  and  C_16 
REMARK    6  A    between atoms: C_20  and  C_22 
REMARK       I    between atoms: C_22  and  N_24 
REMARK    7  A    between atoms: N_24  and  C_25 
ROOT
HETATM    1  C   UNL     1      -6.076   0.250 -33.172  1.00  0.00    -0.035 A 
HETATM    2  C   UNL     1      -6.001  -0.083 -34.536  1.00  0.00     0.009 A 
HETATM    3  C   UNL     1      -7.138  -0.059 -35.342  1.00  0.00     0.002 A 
HETATM    4  C   UNL     1      -8.372   0.279 -34.793  1.00  0.00     0.017 A 
HETATM    5  C   UNL     1      -8.481   0.589 -33.431  1.00  0.00     0.033 A 
HETATM    6  C   UNL     1      -7.329   0.584 -32.630  1.00  0.00     0.026 A 
ENDROOT
BRANCH   1   7
HETATM    7  C   UNL     1      -4.820   0.191 -32.320  1.00  0.00     0.114 C 
HETATM    8  C   UNL     1      -3.944  -1.048 -32.529  1.00  0.00     0.037 C 
BRANCH   7   9
HETATM    9  N   UNL     1      -4.092   1.453 -32.387  1.00  0.00    -0.349 N 
HETATM   10  C   UNL     1      -4.397   2.571 -31.641  1.00  0.00     0.252 C 
HETATM   11  O   UNL     1      -5.356   2.636 -30.877  1.00  0.00    -0.268 OA
HETATM   12  H   UNL     1      -3.172   1.387 -32.794  1.00  0.00     0.163 HD
BRANCH  10  13
HETATM   13  C   UNL     1      -3.477   3.745 -31.765  1.00  0.00     0.034 A 
HETATM   14  C   UNL     1      -2.551   3.748 -32.813  1.00  0.00     0.020 A 
HETATM   15  C   UNL     1      -1.663   4.816 -32.981  1.00  0.00     0.040 A 
HETATM   16  C   UNL     1      -1.685   5.915 -32.112  1.00  0.00     0.101 A 
HETATM   17  C   UNL     1      -2.616   5.920 -31.058  1.00  0.00     0.102 A 
HETATM   18  C   UNL     1      -3.483   4.828 -30.879  1.00  0.00     0.056 A 
BRANCH  16  19
HETATM   19  O   UNL     1      -0.817   6.968 -32.211  1.00  0.00    -0.353 OA
HETATM   20  C   UNL     1       0.346   6.956 -31.392  1.00  0.00     0.210 C 
ENDBRANCH  16  19
BRANCH  17  21
HETATM   21  O   UNL     1      -2.791   6.885 -30.097  1.00  0.00    -0.353 OA
HETATM   22  C   UNL     1      -3.597   8.009 -30.429  1.00  0.00     0.210 C 
ENDBRANCH  17  21
ENDBRANCH  10  13
ENDBRANCH   7   9
ENDBRANCH   1   7
BRANCH   5  23
HETATM   23  C   UNL     1      -9.832   0.939 -32.900  1.00  0.00     0.256 C 
HETATM   24  O   UNL     1      -9.911   1.264 -31.719  1.00  0.00    -0.267 OA
HETATM   25  N   UNL     1     -10.872   0.895 -33.813  1.00  0.00    -0.323 N 
HETATM   26  H   UNL     1     -10.637   0.699 -34.778  1.00  0.00     0.169 HD
BRANCH  25  27
HETATM   27  C   UNL     1     -12.236   1.166 -33.563  1.00  0.00     0.035 A 
HETATM   28  C   UNL     1     -13.268   0.257 -33.803  1.00  0.00     0.030 A 
HETATM   29  C   UNL     1     -14.594   0.594 -33.521  1.00  0.00     0.010 A 
HETATM   30  C   UNL     1     -14.912   1.847 -32.990  1.00  0.00    -0.048 A 
HETATM   31  C   UNL     1     -16.349   2.215 -32.722  1.00  0.00     0.069 C 
HETATM   32  C   UNL     1     -13.891   2.785 -32.770  1.00  0.00    -0.022 A 
HETATM   33  C   UNL     1     -16.481   3.444 -31.813  1.00  0.00     0.277 C 
HETATM   34  N   UNL     1     -15.619   4.533 -32.290  1.00  0.00     0.088 N 
HETATM   35  C   UNL     1     -15.874   5.764 -31.546  1.00  0.00     0.310 C 
HETATM   36  C   UNL     1     -14.202   4.142 -32.170  1.00  0.00     0.311 C 
HETATM   37  C   UNL     1     -12.558   2.430 -33.047  1.00  0.00     0.039 A 
ENDBRANCH  25  27
ENDBRANCH   5  23
TORSDOF 7
ENDMDL
