MODEL 1
REMARK VINA RESULT:     -10.0      0.000      0.000
REMARK  7 active torsions:
REMARK  status: ('A' for Active; 'I' for Inactive)
REMARK    1  A    between atoms: C_3  and  C_4 
REMARK    2  A    between atoms: C_4  and  N_5 
REMARK    3  A    between atoms: C_9  and  C_28 
REMARK    4  A    between atoms: C_9  and  C_10 
REMARK    5  A    between atoms: N_13  and  C_15 
REMARK    6  A    between atoms: C_15  and  C_16 
REMARK    7  A    between atoms: C_28  and  C_29 
ROOT
HETATM    1  C   UNL     1      -0.780   5.343 -32.270  1.00  0.00     0.112 C 
HETATM    2  C   UNL     1      -2.108   4.723 -31.863  1.00  0.00    -0.109 C 
HETATM    3  C   UNL     1      -3.246   4.192 -31.513  1.00  0.00    -0.087 C 
ENDROOT
BRANCH   3   4
HETATM    4  C   UNL     1      -4.573   3.574 -31.107  1.00  0.00     0.230 C 
BRANCH   4   5
HETATM    5  N   UNL     1      -4.951   2.522 -32.014  1.00  0.00    -0.257 N 
HETATM    6  C   UNL     1      -5.660   2.727 -33.148  1.00  0.00     0.327 A 
HETATM    7  O   UNL     1      -6.112   3.768 -33.588  1.00  0.00    -0.247 OA
HETATM    8  N   UNL     1      -5.928   1.511 -33.718  1.00  0.00    -0.324 N 
HETATM    9  C   UNL     1      -5.447   0.378 -32.935  1.00  0.00     0.123 A 
HETATM   10  H   UNL     1      -6.197   1.488 -34.696  1.00  0.00     0.165 HD
HETATM   11  C   UNL     1      -4.799   1.186 -31.775  1.00  0.00     0.257 A 
HETATM   12  O   UNL     1      -4.321   0.699 -30.762  1.00  0.00    -0.270 OA
BRANCH   9  13
HETATM   13  C   UNL     1      -4.368  -0.350 -33.777  1.00  0.00     0.080 C 
BRANCH  13  14
HETATM   14  C   UNL     1      -4.119  -1.812 -33.492  1.00  0.00    -0.052 A 
HETATM   15  C   UNL     1      -3.439  -2.211 -32.334  1.00  0.00     0.049 A 
HETATM   16  C   UNL     1      -3.189  -3.560 -32.097  1.00  0.00     0.116 A 
HETATM   17  F   UNL     1      -2.536  -3.922 -30.986  1.00  0.00    -0.206 F 
HETATM   18  C   UNL     1      -3.599  -4.533 -32.998  1.00  0.00     0.042 A 
HETATM   19  C   UNL     1      -4.268  -4.152 -34.159  1.00  0.00     0.003 A 
HETATM   20  C   UNL     1      -4.523  -2.799 -34.407  1.00  0.00     0.007 A 
ENDBRANCH  13  14
ENDBRANCH   9  13
BRANCH   9  21
HETATM   21  C   UNL     1      -6.656  -0.527 -32.475  1.00  0.00     0.027 C 
HETATM   22  C   UNL     1      -7.585  -0.975 -33.624  1.00  0.00     0.035 C 
HETATM   23  C   UNL     1      -8.576   0.089 -34.115  1.00  0.00     0.235 C 
HETATM   24  N   UNL     1      -9.323   0.748 -32.981  1.00  0.00    -0.067 N 
HETATM   25  H   UNL     1     -10.019   0.069 -32.649  1.00  0.00     0.280 HD
HETATM   26  C   UNL     1      -8.477   1.143 -31.796  1.00  0.00     0.235 C 
HETATM   27  C   UNL     1      -7.573   0.010 -31.360  1.00  0.00     0.035 C 
BRANCH  24  28
HETATM   28  C   UNL     1     -10.102   1.982 -33.437  1.00  0.00     0.273 C 
BRANCH  28  29
HETATM   29  C   UNL     1     -11.599   1.929 -33.305  1.00  0.00    -0.030 A 
HETATM   30  C   UNL     1     -12.319   2.914 -32.617  1.00  0.00     0.048 A 
HETATM   31  C   UNL     1     -13.713   2.849 -32.549  1.00  0.00     0.102 A 
HETATM   32  C   UNL     1     -14.401   1.804 -33.167  1.00  0.00     0.102 A 
HETATM   33  O   UNL     1     -14.336   3.848 -31.848  1.00  0.00    -0.346 OA
HETATM   34  O   UNL     1     -15.763   1.672 -33.129  1.00  0.00    -0.346 OA
HETATM   35  C   UNL     1     -13.701   0.839 -33.882  1.00  0.00     0.040 A 
HETATM   36  C   UNL     1     -16.347   2.498 -32.116  1.00  0.00     0.202 C 
HETATM   37  C   UNL     1     -15.741   3.893 -32.140  1.00  0.00     0.202 C 
HETATM   38  C   UNL     1     -12.308   0.897 -33.947  1.00  0.00     0.012 A 
ENDBRANCH  28  29
ENDBRANCH  24  28
ENDBRANCH   9  21
ENDBRANCH   4   5
ENDBRANCH   3   4
TORSDOF 7
ENDMDL
MODEL 2
REMARK VINA RESULT:      -9.5      3.122      7.100
REMARK  7 active torsions:
REMARK  status: ('A' for Active; 'I' for Inactive)
REMARK    1  A    between atoms: C_3  and  C_4 
REMARK    2  A    between atoms: C_4  and  N_5 
REMARK    3  A    between atoms: C_9  and  C_28 
REMARK    4  A    between atoms: C_9  and  C_10 
REMARK    5  A    between atoms: N_13  and  C_15 
REMARK    6  A    between atoms: C_15  and  C_16 
REMARK    7  A    between atoms: C_28  and  C_29 
ROOT
HETATM    1  C   UNL     1      -8.959   4.867 -29.811  1.00  0.00     0.112 C 
HETATM    2  C   UNL     1      -8.944   4.177 -31.165  1.00  0.00    -0.109 C 
HETATM    3  C   UNL     1      -8.931   3.585 -32.327  1.00  0.00    -0.087 C 
ENDROOT
BRANCH   3   4
HETATM    4  C   UNL     1      -8.916   2.895 -33.680  1.00  0.00     0.230 C 
BRANCH   4   5
HETATM    5  N   UNL     1      -8.290   1.602 -33.592  1.00  0.00    -0.257 N 
HETATM    6  C   UNL     1      -8.963   0.457 -33.332  1.00  0.00     0.327 A 
HETATM    7  O   UNL     1     -10.150   0.304 -33.109  1.00  0.00    -0.247 OA
HETATM    8  N   UNL     1      -8.057  -0.564 -33.223  1.00  0.00    -0.324 N 
HETATM    9  C   UNL     1      -6.670  -0.133 -33.349  1.00  0.00     0.123 A 
HETATM   10  H   UNL     1      -8.395  -1.517 -33.309  1.00  0.00     0.165 HD
HETATM   11  C   UNL     1      -6.942   1.379 -33.591  1.00  0.00     0.257 A 
HETATM   12  O   UNL     1      -6.083   2.244 -33.664  1.00  0.00    -0.270 OA
BRANCH   9  13
HETATM   13  C   UNL     1      -6.084  -0.803 -34.619  1.00  0.00     0.080 C 
BRANCH  13  14
HETATM   14  C   UNL     1      -5.784  -2.281 -34.561  1.00  0.00    -0.052 A 
HETATM   15  C   UNL     1      -4.511  -2.740 -34.197  1.00  0.00     0.049 A 
HETATM   16  C   UNL     1      -4.236  -4.105 -34.176  1.00  0.00     0.116 A 
HETATM   17  F   UNL     1      -3.014  -4.525 -33.829  1.00  0.00    -0.206 F 
HETATM   18  C   UNL     1      -5.208  -5.036 -34.518  1.00  0.00     0.042 A 
HETATM   19  C   UNL     1      -6.475  -4.595 -34.891  1.00  0.00     0.003 A 
HETATM   20  C   UNL     1      -6.761  -3.226 -34.916  1.00  0.00     0.007 A 
ENDBRANCH  13  14
ENDBRANCH   9  13
BRANCH   9  21
HETATM   21  C   UNL     1      -5.878  -0.426 -32.016  1.00  0.00     0.027 C 
HETATM   22  C   UNL     1      -6.673  -0.120 -30.727  1.00  0.00     0.035 C 
HETATM   23  C   UNL     1      -6.754   1.364 -30.347  1.00  0.00     0.235 C 
HETATM   24  N   UNL     1      -5.405   2.042 -30.378  1.00  0.00    -0.067 N 
HETATM   25  H   UNL     1      -4.893   1.725 -29.545  1.00  0.00     0.280 HD
HETATM   26  C   UNL     1      -4.552   1.724 -31.581  1.00  0.00     0.235 C 
HETATM   27  C   UNL     1      -4.496   0.233 -31.840  1.00  0.00     0.035 C 
BRANCH  24  28
HETATM   28  C   UNL     1      -5.515   3.564 -30.267  1.00  0.00     0.273 C 
BRANCH  28  29
HETATM   29  C   UNL     1      -4.809   4.375 -31.317  1.00  0.00    -0.030 A 
HETATM   30  C   UNL     1      -3.411   4.423 -31.403  1.00  0.00     0.048 A 
HETATM   31  C   UNL     1      -2.793   5.159 -32.416  1.00  0.00     0.102 A 
HETATM   32  C   UNL     1      -3.561   5.852 -33.354  1.00  0.00     0.102 A 
HETATM   33  O   UNL     1      -1.423   5.160 -32.420  1.00  0.00    -0.346 OA
HETATM   34  O   UNL     1      -3.021   6.602 -34.364  1.00  0.00    -0.346 OA
HETATM   35  C   UNL     1      -4.948   5.784 -33.300  1.00  0.00     0.040 A 
HETATM   36  C   UNL     1      -1.635   6.876 -34.136  1.00  0.00     0.202 C 
HETATM   37  C   UNL     1      -0.904   5.624 -33.675  1.00  0.00     0.202 C 
HETATM   38  C   UNL     1      -5.570   5.054 -32.286  1.00  0.00     0.012 A 
ENDBRANCH  28  29
ENDBRANCH  24  28
ENDBRANCH   9  21
ENDBRANCH   4   5
ENDBRANCH   3   4
TORSDOF 7
ENDMDL
MODEL 3
REMARK VINA RESULT:      -9.3      2.686      8.630
REMARK  7 active torsions:
REMARK  status: ('A' for Active; 'I' for Inactive)
REMARK    1  A    between atoms: C_3  and  C_4 
REMARK    2  A    between atoms: C_4  and  N_5 
REMARK    3  A    between atoms: C_9  and  C_28 
REMARK    4  A    between atoms: C_9  and  C_10 
REMARK    5  A    between atoms: N_13  and  C_15 
REMARK    6  A    between atoms: C_15  and  C_16 
REMARK    7  A    between atoms: C_28  and  C_29 
ROOT
HETATM    1  C   UNL     1     -15.892   2.205 -32.328  1.00  0.00     0.112 C 
HETATM    2  C   UNL     1     -14.710   1.846 -33.213  1.00  0.00    -0.109 C 
HETATM    3  C   UNL     1     -13.696   1.537 -33.972  1.00  0.00    -0.087 C 
ENDROOT
BRANCH   3   4
HETATM    4  C   UNL     1     -12.514   1.176 -34.857  1.00  0.00     0.230 C 
BRANCH   4   5
HETATM    5  N   UNL     1     -11.268   1.414 -34.177  1.00  0.00    -0.257 N 
HETATM    6  C   UNL     1     -10.738   0.569 -33.264  1.00  0.00     0.327 A 
HETATM    7  O   UNL     1     -11.188  -0.481 -32.843  1.00  0.00    -0.247 OA
HETATM    8  N   UNL     1      -9.607   1.143 -32.746  1.00  0.00    -0.324 N 
HETATM    9  C   UNL     1      -9.342   2.482 -33.259  1.00  0.00     0.123 A 
HETATM   10  H   UNL     1      -8.940   0.545 -32.268  1.00  0.00     0.165 HD
HETATM   11  C   UNL     1     -10.553   2.577 -34.231  1.00  0.00     0.257 A 
HETATM   12  O   UNL     1     -10.870   3.573 -34.862  1.00  0.00    -0.270 OA
BRANCH   9  13
HETATM   13  C   UNL     1      -8.005   2.428 -34.041  1.00  0.00     0.080 C 
BRANCH  13  14
HETATM   14  C   UNL     1      -7.257   1.117 -34.070  1.00  0.00    -0.052 A 
HETATM   15  C   UNL     1      -6.326   0.801 -33.071  1.00  0.00     0.049 A 
HETATM   16  C   UNL     1      -5.620  -0.398 -33.124  1.00  0.00     0.116 A 
HETATM   17  F   UNL     1      -4.733  -0.682 -32.162  1.00  0.00    -0.206 F 
HETATM   18  C   UNL     1      -5.816  -1.299 -34.162  1.00  0.00     0.042 A 
HETATM   19  C   UNL     1      -6.730  -0.995 -35.167  1.00  0.00     0.003 A 
HETATM   20  C   UNL     1      -7.444   0.208 -35.124  1.00  0.00     0.007 A 
ENDBRANCH  13  14
ENDBRANCH   9  13
BRANCH   9  21
HETATM   21  C   UNL     1      -9.388   3.541 -32.089  1.00  0.00     0.027 C 
HETATM   22  C   UNL     1      -8.444   4.747 -32.290  1.00  0.00     0.035 C 
HETATM   23  C   UNL     1      -6.966   4.477 -31.981  1.00  0.00     0.235 C 
HETATM   24  N   UNL     1      -6.770   3.795 -30.648  1.00  0.00    -0.067 N 
HETATM   25  H   UNL     1      -6.923   4.508 -29.924  1.00  0.00     0.280 HD
HETATM   26  C   UNL     1      -7.713   2.653 -30.365  1.00  0.00     0.235 C 
HETATM   27  C   UNL     1      -9.149   3.037 -30.653  1.00  0.00     0.035 C 
BRANCH  24  28
HETATM   28  C   UNL     1      -5.340   3.284 -30.460  1.00  0.00     0.273 C 
BRANCH  28  29
HETATM   29  C   UNL     1      -4.263   3.970 -31.253  1.00  0.00    -0.030 A 
HETATM   30  C   UNL     1      -3.897   5.301 -31.013  1.00  0.00     0.048 A 
HETATM   31  C   UNL     1      -2.865   5.890 -31.747  1.00  0.00     0.102 A 
HETATM   32  C   UNL     1      -2.186   5.159 -32.723  1.00  0.00     0.102 A 
HETATM   33  O   UNL     1      -2.579   7.198 -31.454  1.00  0.00    -0.346 OA
HETATM   34  O   UNL     1      -1.175   5.677 -33.486  1.00  0.00    -0.346 OA
HETATM   35  C   UNL     1      -2.517   3.827 -32.947  1.00  0.00     0.040 A 
HETATM   36  C   UNL     1      -1.142   7.107 -33.419  1.00  0.00     0.202 C 
HETATM   37  C   UNL     1      -1.303   7.585 -31.984  1.00  0.00     0.202 C 
HETATM   38  C   UNL     1      -3.551   3.236 -32.220  1.00  0.00     0.012 A 
ENDBRANCH  28  29
ENDBRANCH  24  28
ENDBRANCH   9  21
ENDBRANCH   4   5
ENDBRANCH   3   4
TORSDOF 7
ENDMDL
MODEL 4
REMARK VINA RESULT:      -9.2      3.030      8.144
REMARK  7 active torsions:
REMARK  status: ('A' for Active; 'I' for Inactive)
REMARK    1  A    between atoms: C_3  and  C_4 
REMARK    2  A    between atoms: C_4  and  N_5 
REMARK    3  A    between atoms: C_9  and  C_28 
REMARK    4  A    between atoms: C_9  and  C_10 
REMARK    5  A    between atoms: N_13  and  C_15 
REMARK    6  A    between atoms: C_15  and  C_16 
REMARK    7  A    between atoms: C_28  and  C_29 
ROOT
HETATM    1  C   UNL     1      -9.432   4.957 -30.055  1.00  0.00     0.112 C 
HETATM    2  C   UNL     1      -9.411   4.092 -31.305  1.00  0.00    -0.109 C 
HETATM    3  C   UNL     1      -9.392   3.351 -32.377  1.00  0.00    -0.087 C 
ENDROOT
BRANCH   3   4
HETATM    4  C   UNL     1      -9.370   2.487 -33.628  1.00  0.00     0.230 C 
BRANCH   4   5
HETATM    5  N   UNL     1      -8.462   1.381 -33.474  1.00  0.00    -0.257 N 
HETATM    6  C   UNL     1      -8.840   0.152 -33.051  1.00  0.00     0.327 A 
HETATM    7  O   UNL     1      -9.945  -0.233 -32.714  1.00  0.00    -0.247 OA
HETATM    8  N   UNL     1      -7.721  -0.627 -32.925  1.00  0.00    -0.324 N 
HETATM    9  C   UNL     1      -6.479   0.082 -33.210  1.00  0.00     0.123 A 
HETATM   10  H   UNL     1      -7.838  -1.635 -32.893  1.00  0.00     0.165 HD
HETATM   11  C   UNL     1      -7.102   1.461 -33.567  1.00  0.00     0.257 A 
HETATM   12  O   UNL     1      -6.468   2.481 -33.794  1.00  0.00    -0.270 OA
BRANCH   9  13
HETATM   13  C   UNL     1      -5.836  -0.578 -34.457  1.00  0.00     0.080 C 
BRANCH  13  14
HETATM   14  C   UNL     1      -5.673  -2.080 -34.455  1.00  0.00    -0.052 A 
HETATM   15  C   UNL     1      -4.450  -2.667 -34.106  1.00  0.00     0.049 A 
HETATM   16  C   UNL     1      -4.303  -4.051 -34.136  1.00  0.00     0.116 A 
HETATM   17  F   UNL     1      -3.126  -4.595 -33.802  1.00  0.00    -0.206 F 
HETATM   18  C   UNL     1      -5.354  -4.875 -34.515  1.00  0.00     0.042 A 
HETATM   19  C   UNL     1      -6.573  -4.306 -34.874  1.00  0.00     0.003 A 
HETATM   20  C   UNL     1      -6.731  -2.916 -34.848  1.00  0.00     0.007 A 
ENDBRANCH  13  14
ENDBRANCH   9  13
BRANCH   9  21
HETATM   21  C   UNL     1      -5.558   0.119 -31.928  1.00  0.00     0.027 C 
HETATM   22  C   UNL     1      -6.041   1.092 -30.830  1.00  0.00     0.035 C 
HETATM   23  C   UNL     1      -5.732   2.572 -31.088  1.00  0.00     0.235 C 
HETATM   24  N   UNL     1      -4.292   2.801 -31.481  1.00  0.00    -0.067 N 
HETATM   25  H   UNL     1      -3.731   2.701 -30.627  1.00  0.00     0.280 HD
HETATM   26  C   UNL     1      -3.742   1.834 -32.500  1.00  0.00     0.235 C 
HETATM   27  C   UNL     1      -4.057   0.401 -32.127  1.00  0.00     0.035 C 
BRANCH  24  28
HETATM   28  C   UNL     1      -4.048   4.220 -31.998  1.00  0.00     0.273 C 
BRANCH  28  29
HETATM   29  C   UNL     1      -2.959   5.011 -31.327  1.00  0.00    -0.030 A 
HETATM   30  C   UNL     1      -3.237   5.969 -30.344  1.00  0.00     0.048 A 
HETATM   31  C   UNL     1      -2.195   6.657 -29.718  1.00  0.00     0.102 A 
HETATM   32  C   UNL     1      -0.867   6.394 -30.064  1.00  0.00     0.102 A 
HETATM   33  O   UNL     1      -2.555   7.583 -28.775  1.00  0.00    -0.346 OA
HETATM   34  O   UNL     1       0.200   7.039 -29.500  1.00  0.00    -0.346 OA
HETATM   35  C   UNL     1      -0.578   5.421 -31.013  1.00  0.00     0.040 A 
HETATM   36  C   UNL     1      -0.205   8.223 -28.804  1.00  0.00     0.202 C 
HETATM   37  C   UNL     1      -1.438   7.956 -27.955  1.00  0.00     0.202 C 
HETATM   38  C   UNL     1      -1.617   4.736 -31.646  1.00  0.00     0.012 A 
ENDBRANCH  28  29
ENDBRANCH  24  28
ENDBRANCH   9  21
ENDBRANCH   4   5
ENDBRANCH   3   4
TORSDOF 7
ENDMDL
MODEL 5
REMARK VINA RESULT:      -9.1      2.260      3.056
REMARK  7 active torsions:
REMARK  status: ('A' for Active; 'I' for Inactive)
REMARK    1  A    between atoms: C_3  and  C_4 
REMARK    2  A    between atoms: C_4  and  N_5 
REMARK    3  A    between atoms: C_9  and  C_28 
REMARK    4  A    between atoms: C_9  and  C_10 
REMARK    5  A    between atoms: N_13  and  C_15 
REMARK    6  A    between atoms: C_15  and  C_16 
REMARK    7  A    between atoms: C_28  and  C_29 
ROOT
HETATM    1  C   UNL     1      -1.481   5.548 -34.535  1.00  0.00     0.112 C 
HETATM    2  C   UNL     1      -2.192   4.599 -33.584  1.00  0.00    -0.109 C 
HETATM    3  C   UNL     1      -2.804   3.785 -32.770  1.00  0.00    -0.087 C 
ENDROOT
BRANCH   3   4
HETATM    4  C   UNL     1      -3.515   2.835 -31.821  1.00  0.00     0.230 C 
BRANCH   4   5
HETATM    5  N   UNL     1      -4.586   2.144 -32.490  1.00  0.00    -0.257 N 
HETATM    6  C   UNL     1      -5.637   2.769 -33.069  1.00  0.00     0.327 A 
HETATM    7  O   UNL     1      -5.885   3.960 -33.117  1.00  0.00    -0.247 OA
HETATM    8  N   UNL     1      -6.512   1.818 -33.523  1.00  0.00    -0.324 N 
HETATM    9  C   UNL     1      -6.108   0.453 -33.207  1.00  0.00     0.123 A 
HETATM   10  H   UNL     1      -7.200   2.090 -34.218  1.00  0.00     0.165 HD
HETATM   11  C   UNL     1      -4.774   0.791 -32.484  1.00  0.00     0.257 A 
HETATM   12  O   UNL     1      -4.060  -0.019 -31.913  1.00  0.00    -0.270 OA
BRANCH   9  13
HETATM   13  C   UNL     1      -5.846  -0.281 -34.547  1.00  0.00     0.080 C 
BRANCH  13  14
HETATM   14  C   UNL     1      -5.751  -1.788 -34.519  1.00  0.00    -0.052 A 
HETATM   15  C   UNL     1      -4.531  -2.424 -34.254  1.00  0.00     0.049 A 
HETATM   16  C   UNL     1      -4.448  -3.814 -34.260  1.00  0.00     0.116 A 
HETATM   17  F   UNL     1      -3.274  -4.405 -34.008  1.00  0.00    -0.206 F 
HETATM   18  C   UNL     1      -5.563  -4.596 -34.532  1.00  0.00     0.042 A 
HETATM   19  C   UNL     1      -6.781  -3.978 -34.807  1.00  0.00     0.003 A 
HETATM   20  C   UNL     1      -6.873  -2.582 -34.804  1.00  0.00     0.007 A 
ENDBRANCH  13  14
ENDBRANCH   9  13
BRANCH   9  21
HETATM   21  C   UNL     1      -7.176  -0.235 -32.269  1.00  0.00     0.027 C 
HETATM   22  C   UNL     1      -8.640  -0.026 -32.717  1.00  0.00     0.035 C 
HETATM   23  C   UNL     1      -9.236   1.347 -32.380  1.00  0.00     0.235 C 
HETATM   24  N   UNL     1      -9.002   1.740 -30.941  1.00  0.00    -0.067 N 
HETATM   25  H   UNL     1      -9.646   1.178 -30.370  1.00  0.00     0.280 HD
HETATM   26  C   UNL     1      -7.606   1.492 -30.425  1.00  0.00     0.235 C 
HETATM   27  C   UNL     1      -7.132   0.095 -30.765  1.00  0.00     0.035 C 
BRANCH  24  28
HETATM   28  C   UNL     1      -9.349   3.205 -30.673  1.00  0.00     0.273 C 
BRANCH  28  29
HETATM   29  C   UNL     1     -10.147   3.920 -31.729  1.00  0.00    -0.030 A 
HETATM   30  C   UNL     1      -9.549   4.794 -32.646  1.00  0.00     0.048 A 
HETATM   31  C   UNL     1     -10.319   5.410 -33.635  1.00  0.00     0.102 A 
HETATM   32  C   UNL     1     -11.689   5.158 -33.722  1.00  0.00     0.102 A 
HETATM   33  O   UNL     1      -9.656   6.257 -34.484  1.00  0.00    -0.346 OA
HETATM   34  O   UNL     1     -12.504   5.737 -34.658  1.00  0.00    -0.346 OA
HETATM   35  C   UNL     1     -12.287   4.266 -32.840  1.00  0.00     0.040 A 
HETATM   36  C   UNL     1     -11.877   6.862 -35.282  1.00  0.00     0.202 C 
HETATM   37  C   UNL     1     -10.437   6.542 -35.654  1.00  0.00     0.202 C 
HETATM   38  C   UNL     1     -11.523   3.653 -31.846  1.00  0.00     0.012 A 
ENDBRANCH  28  29
ENDBRANCH  24  28
ENDBRANCH   9  21
ENDBRANCH   4   5
ENDBRANCH   3   4
TORSDOF 7
ENDMDL
MODEL 6
REMARK VINA RESULT:      -8.9      3.368      8.320
REMARK  7 active torsions:
REMARK  status: ('A' for Active; 'I' for Inactive)
REMARK    1  A    between atoms: C_3  and  C_4 
REMARK    2  A    between atoms: C_4  and  N_5 
REMARK    3  A    between atoms: C_9  and  C_28 
REMARK    4  A    between atoms: C_9  and  C_10 
REMARK    5  A    between atoms: N_13  and  C_15 
REMARK    6  A    between atoms: C_15  and  C_16 
REMARK    7  A    between atoms: C_28  and  C_29 
ROOT
HETATM    1  C   UNL     1     -13.773  -0.388 -33.563  1.00  0.00     0.112 C 
HETATM    2  C   UNL     1     -12.615   0.566 -33.805  1.00  0.00    -0.109 C 
HETATM    3  C   UNL     1     -11.622   1.384 -34.013  1.00  0.00    -0.087 C 
ENDROOT
BRANCH   3   4
HETATM    4  C   UNL     1     -10.465   2.339 -34.256  1.00  0.00     0.230 C 
BRANCH   4   5
HETATM    5  N   UNL     1      -9.325   1.983 -33.452  1.00  0.00    -0.257 N 
HETATM    6  C   UNL     1      -9.135   2.417 -32.185  1.00  0.00     0.327 A 
HETATM    7  O   UNL     1      -9.829   3.166 -31.522  1.00  0.00    -0.247 OA
HETATM    8  N   UNL     1      -7.913   1.973 -31.753  1.00  0.00    -0.324 N 
HETATM    9  C   UNL     1      -7.164   1.240 -32.767  1.00  0.00     0.123 A 
HETATM   10  H   UNL     1      -7.731   1.963 -30.754  1.00  0.00     0.165 HD
HETATM   11  C   UNL     1      -8.223   1.314 -33.903  1.00  0.00     0.257 A 
HETATM   12  O   UNL     1      -8.052   0.926 -35.049  1.00  0.00    -0.270 OA
BRANCH   9  13
HETATM   13  C   UNL     1      -6.991  -0.216 -32.262  1.00  0.00     0.080 C 
BRANCH  13  14
HETATM   14  C   UNL     1      -6.271  -1.193 -33.160  1.00  0.00    -0.052 A 
HETATM   15  C   UNL     1      -6.988  -2.070 -33.984  1.00  0.00     0.049 A 
HETATM   16  C   UNL     1      -6.315  -2.988 -34.786  1.00  0.00     0.116 A 
HETATM   17  F   UNL     1      -7.016  -3.820 -35.566  1.00  0.00    -0.206 F 
HETATM   18  C   UNL     1      -4.928  -3.058 -34.784  1.00  0.00     0.042 A 
HETATM   19  C   UNL     1      -4.202  -2.199 -33.963  1.00  0.00     0.003 A 
HETATM   20  C   UNL     1      -4.869  -1.274 -33.152  1.00  0.00     0.007 A 
ENDBRANCH  13  14
ENDBRANCH   9  13
BRANCH   9  21
HETATM   21  C   UNL     1      -5.818   1.991 -33.109  1.00  0.00     0.027 C 
HETATM   22  C   UNL     1      -4.860   2.151 -31.908  1.00  0.00     0.035 C 
HETATM   23  C   UNL     1      -5.228   3.270 -30.925  1.00  0.00     0.235 C 
HETATM   24  N   UNL     1      -5.518   4.577 -31.620  1.00  0.00    -0.067 N 
HETATM   25  H   UNL     1      -4.614   4.963 -31.919  1.00  0.00     0.280 HD
HETATM   26  C   UNL     1      -6.393   4.474 -32.846  1.00  0.00     0.235 C 
HETATM   27  C   UNL     1      -5.917   3.377 -33.774  1.00  0.00     0.035 C 
BRANCH  24  28
HETATM   28  C   UNL     1      -6.143   5.611 -30.681  1.00  0.00     0.273 C 
BRANCH  28  29
HETATM   29  C   UNL     1      -5.310   6.060 -29.513  1.00  0.00    -0.030 A 
HETATM   30  C   UNL     1      -4.070   6.689 -29.684  1.00  0.00     0.048 A 
HETATM   31  C   UNL     1      -3.343   7.125 -28.574  1.00  0.00     0.102 A 
HETATM   32  C   UNL     1      -3.846   6.941 -27.285  1.00  0.00     0.102 A 
HETATM   33  O   UNL     1      -2.137   7.722 -28.832  1.00  0.00    -0.346 OA
HETATM   34  O   UNL     1      -3.181   7.332 -26.154  1.00  0.00    -0.346 OA
HETATM   35  C   UNL     1      -5.090   6.349 -27.104  1.00  0.00     0.040 A 
HETATM   36  C   UNL     1      -1.803   7.613 -26.421  1.00  0.00     0.202 C 
HETATM   37  C   UNL     1      -1.655   8.443 -27.687  1.00  0.00     0.202 C 
HETATM   38  C   UNL     1      -5.817   5.906 -28.210  1.00  0.00     0.012 A 
ENDBRANCH  28  29
ENDBRANCH  24  28
ENDBRANCH   9  21
ENDBRANCH   4   5
ENDBRANCH   3   4
TORSDOF 7
ENDMDL
MODEL 7
REMARK VINA RESULT:      -8.9      3.691      9.481
REMARK  7 active torsions:
REMARK  status: ('A' for Active; 'I' for Inactive)
REMARK    1  A    between atoms: C_3  and  C_4 
REMARK    2  A    between atoms: C_4  and  N_5 
REMARK    3  A    between atoms: C_9  and  C_28 
REMARK    4  A    between atoms: C_9  and  C_10 
REMARK    5  A    between atoms: N_13  and  C_15 
REMARK    6  A    between atoms: C_15  and  C_16 
REMARK    7  A    between atoms: C_28  and  C_29 
ROOT
HETATM    1  C   UNL     1      -3.409  -0.051 -31.460  1.00  0.00     0.112 C 
HETATM    2  C   UNL     1      -4.702  -0.458 -32.149  1.00  0.00    -0.109 C 
HETATM    3  C   UNL     1      -5.810  -0.808 -32.739  1.00  0.00    -0.087 C 
ENDROOT
BRANCH   3   4
HETATM    4  C   UNL     1      -7.103  -1.214 -33.427  1.00  0.00     0.230 C 
BRANCH   4   5
HETATM    5  N   UNL     1      -7.940  -0.069 -33.670  1.00  0.00    -0.257 N 
HETATM    6  C   UNL     1      -7.857   0.701 -34.779  1.00  0.00     0.327 A 
HETATM    7  O   UNL     1      -7.092   0.602 -35.721  1.00  0.00    -0.247 OA
HETATM    8  N   UNL     1      -8.723   1.753 -34.643  1.00  0.00    -0.324 N 
HETATM    9  C   UNL     1      -9.416   1.780 -33.360  1.00  0.00     0.123 A 
HETATM   10  H   UNL     1      -8.995   2.263 -35.477  1.00  0.00     0.165 HD
HETATM   11  C   UNL     1      -8.796   0.486 -32.761  1.00  0.00     0.257 A 
HETATM   12  O   UNL     1      -8.968   0.088 -31.619  1.00  0.00    -0.270 OA
BRANCH   9  13
HETATM   13  C   UNL     1     -10.929   1.593 -33.640  1.00  0.00     0.080 C 
BRANCH  13  14
HETATM   14  C   UNL     1     -11.793   2.830 -33.698  1.00  0.00    -0.052 A 
HETATM   15  C   UNL     1     -11.968   3.527 -34.902  1.00  0.00     0.049 A 
HETATM   16  C   UNL     1     -12.742   4.683 -34.937  1.00  0.00     0.116 A 
HETATM   17  F   UNL     1     -12.895   5.336 -36.095  1.00  0.00    -0.206 F 
HETATM   18  C   UNL     1     -13.350   5.173 -33.789  1.00  0.00     0.042 A 
HETATM   19  C   UNL     1     -13.179   4.497 -32.584  1.00  0.00     0.003 A 
HETATM   20  C   UNL     1     -12.401   3.335 -32.537  1.00  0.00     0.007 A 
ENDBRANCH  13  14
ENDBRANCH   9  13
BRANCH   9  21
HETATM   21  C   UNL     1      -9.043   3.088 -32.558  1.00  0.00     0.027 C 
HETATM   22  C   UNL     1      -8.472   4.225 -33.433  1.00  0.00     0.035 C 
HETATM   23  C   UNL     1      -7.001   4.061 -33.839  1.00  0.00     0.235 C 
HETATM   24  N   UNL     1      -6.114   3.722 -32.666  1.00  0.00    -0.067 N 
HETATM   25  H   UNL     1      -6.000   4.586 -32.120  1.00  0.00     0.280 HD
HETATM   26  C   UNL     1      -6.654   2.666 -31.733  1.00  0.00     0.235 C 
HETATM   27  C   UNL     1      -8.092   2.947 -31.354  1.00  0.00     0.035 C 
BRANCH  24  28
HETATM   28  C   UNL     1      -4.711   3.294 -33.100  1.00  0.00     0.273 C 
BRANCH  28  29
HETATM   29  C   UNL     1      -3.586   4.247 -32.804  1.00  0.00    -0.030 A 
HETATM   30  C   UNL     1      -2.571   3.935 -31.891  1.00  0.00     0.048 A 
HETATM   31  C   UNL     1      -1.523   4.832 -31.671  1.00  0.00     0.102 A 
HETATM   32  C   UNL     1      -1.475   6.045 -32.360  1.00  0.00     0.102 A 
HETATM   33  O   UNL     1      -0.578   4.451 -30.755  1.00  0.00    -0.346 OA
HETATM   34  O   UNL     1      -0.485   6.974 -32.184  1.00  0.00    -0.346 OA
HETATM   35  C   UNL     1      -2.458   6.350 -33.294  1.00  0.00     0.040 A 
HETATM   36  C   UNL     1       0.268   6.724 -30.993  1.00  0.00     0.202 C 
HETATM   37  C   UNL     1       0.611   5.247 -30.869  1.00  0.00     0.202 C 
HETATM   38  C   UNL     1      -3.511   5.460 -33.512  1.00  0.00     0.012 A 
ENDBRANCH  28  29
ENDBRANCH  24  28
ENDBRANCH   9  21
ENDBRANCH   4   5
ENDBRANCH   3   4
TORSDOF 7
ENDMDL
MODEL 8
REMARK VINA RESULT:      -8.8      4.002      8.495
REMARK  7 active torsions:
REMARK  status: ('A' for Active; 'I' for Inactive)
REMARK    1  A    between atoms: C_3  and  C_4 
REMARK    2  A    between atoms: C_4  and  N_5 
REMARK    3  A    between atoms: C_9  and  C_28 
REMARK    4  A    between atoms: C_9  and  C_10 
REMARK    5  A    between atoms: N_13  and  C_15 
REMARK    6  A    between atoms: C_15  and  C_16 
REMARK    7  A    between atoms: C_28  and  C_29 
ROOT
HETATM    1  C   UNL     1      -5.490  -2.361 -34.286  1.00  0.00     0.112 C 
HETATM    2  C   UNL     1      -5.122  -1.481 -33.103  1.00  0.00    -0.109 C 
HETATM    3  C   UNL     1      -4.805  -0.725 -32.089  1.00  0.00    -0.087 C 
ENDROOT
BRANCH   3   4
HETATM    4  C   UNL     1      -4.437   0.156 -30.907  1.00  0.00     0.230 C 
BRANCH   4   5
HETATM    5  N   UNL     1      -4.908   1.502 -31.100  1.00  0.00    -0.257 N 
HETATM    6  C   UNL     1      -4.092   2.564 -31.287  1.00  0.00     0.327 A 
HETATM    7  O   UNL     1      -2.875   2.599 -31.302  1.00  0.00    -0.247 OA
HETATM    8  N   UNL     1      -4.859   3.698 -31.339  1.00  0.00    -0.324 N 
HETATM    9  C   UNL     1      -6.280   3.454 -31.123  1.00  0.00     0.123 A 
HETATM   10  H   UNL     1      -4.454   4.534 -31.747  1.00  0.00     0.165 HD
HETATM   11  C   UNL     1      -6.204   1.909 -30.957  1.00  0.00     0.257 A 
HETATM   12  O   UNL     1      -7.141   1.189 -30.646  1.00  0.00    -0.270 OA
BRANCH   9  13
HETATM   13  C   UNL     1      -7.027   3.838 -32.426  1.00  0.00     0.080 C 
BRANCH  13  14
HETATM   14  C   UNL     1      -7.451   2.722 -33.351  1.00  0.00    -0.052 A 
HETATM   15  C   UNL     1      -8.772   2.255 -33.352  1.00  0.00     0.049 A 
HETATM   16  C   UNL     1      -9.145   1.206 -34.187  1.00  0.00     0.116 A 
HETATM   17  F   UNL     1     -10.411   0.772 -34.173  1.00  0.00    -0.206 F 
HETATM   18  C   UNL     1      -8.222   0.598 -35.028  1.00  0.00     0.042 A 
HETATM   19  C   UNL     1      -6.903   1.044 -35.031  1.00  0.00     0.003 A 
HETATM   20  C   UNL     1      -6.518   2.097 -34.195  1.00  0.00     0.007 A 
ENDBRANCH  13  14
ENDBRANCH   9  13
BRANCH   9  21
HETATM   21  C   UNL     1      -6.777   4.203 -29.825  1.00  0.00     0.027 C 
HETATM   22  C   UNL     1      -7.735   5.383 -30.103  1.00  0.00     0.035 C 
HETATM   23  C   UNL     1      -7.059   6.673 -30.583  1.00  0.00     0.235 C 
HETATM   24  N   UNL     1      -5.884   7.064 -29.720  1.00  0.00    -0.067 N 
HETATM   25  H   UNL     1      -6.269   7.440 -28.845  1.00  0.00     0.280 HD
HETATM   26  C   UNL     1      -4.950   5.937 -29.355  1.00  0.00     0.235 C 
HETATM   27  C   UNL     1      -5.711   4.731 -28.846  1.00  0.00     0.035 C 
BRANCH  24  28
HETATM   28  C   UNL     1      -5.049   8.184 -30.344  1.00  0.00     0.273 C 
BRANCH  28  29
HETATM   29  C   UNL     1      -3.999   7.776 -31.339  1.00  0.00    -0.030 A 
HETATM   30  C   UNL     1      -4.171   6.679 -32.192  1.00  0.00     0.048 A 
HETATM   31  C   UNL     1      -3.186   6.354 -33.129  1.00  0.00     0.102 A 
HETATM   32  C   UNL     1      -2.024   7.121 -33.225  1.00  0.00     0.102 A 
HETATM   33  O   UNL     1      -3.432   5.260 -33.917  1.00  0.00    -0.346 OA
HETATM   34  O   UNL     1      -1.015   6.852 -34.110  1.00  0.00    -0.346 OA
HETATM   35  C   UNL     1      -1.857   8.232 -32.407  1.00  0.00     0.040 A 
HETATM   36  C   UNL     1      -1.125   5.533 -34.653  1.00  0.00     0.202 C 
HETATM   37  C   UNL     1      -2.560   5.232 -35.057  1.00  0.00     0.202 C 
HETATM   38  C   UNL     1      -2.835   8.557 -31.466  1.00  0.00     0.012 A 
ENDBRANCH  28  29
ENDBRANCH  24  28
ENDBRANCH   9  21
ENDBRANCH   4   5
ENDBRANCH   3   4
TORSDOF 7
ENDMDL
MODEL 9
REMARK VINA RESULT:      -8.7      2.139      3.198
REMARK  7 active torsions:
REMARK  status: ('A' for Active; 'I' for Inactive)
REMARK    1  A    between atoms: C_3  and  C_4 
REMARK    2  A    between atoms: C_4  and  N_5 
REMARK    3  A    between atoms: C_9  and  C_28 
REMARK    4  A    between atoms: C_9  and  C_10 
REMARK    5  A    between atoms: N_13  and  C_15 
REMARK    6  A    between atoms: C_15  and  C_16 
REMARK    7  A    between atoms: C_28  and  C_29 
ROOT
HETATM    1  C   UNL     1      -5.721   5.879 -29.107  1.00  0.00     0.112 C 
HETATM    2  C   UNL     1      -4.954   5.214 -30.239  1.00  0.00    -0.109 C 
HETATM    3  C   UNL     1      -4.296   4.645 -31.210  1.00  0.00    -0.087 C 
ENDROOT
BRANCH   3   4
HETATM    4  C   UNL     1      -3.528   3.982 -32.341  1.00  0.00     0.230 C 
BRANCH   4   5
HETATM    5  N   UNL     1      -4.090   2.696 -32.661  1.00  0.00    -0.257 N 
HETATM    6  C   UNL     1      -5.140   2.522 -33.496  1.00  0.00     0.327 A 
HETATM    7  O   UNL     1      -5.795   3.363 -34.085  1.00  0.00    -0.247 OA
HETATM    8  N   UNL     1      -5.476   1.195 -33.500  1.00  0.00    -0.324 N 
HETATM    9  C   UNL     1      -4.677   0.385 -32.588  1.00  0.00     0.123 A 
HETATM   10  H   UNL     1      -6.043   0.845 -34.266  1.00  0.00     0.165 HD
HETATM   11  C   UNL     1      -3.758   1.520 -32.052  1.00  0.00     0.257 A 
HETATM   12  O   UNL     1      -2.941   1.396 -31.152  1.00  0.00    -0.270 OA
BRANCH   9  13
HETATM   13  C   UNL     1      -3.870  -0.627 -33.442  1.00  0.00     0.080 C 
BRANCH  13  14
HETATM   14  C   UNL     1      -4.561  -1.901 -33.864  1.00  0.00    -0.052 A 
HETATM   15  C   UNL     1      -4.026  -3.152 -33.525  1.00  0.00     0.049 A 
HETATM   16  C   UNL     1      -4.655  -4.321 -33.945  1.00  0.00     0.116 A 
HETATM   17  F   UNL     1      -4.129  -5.506 -33.615  1.00  0.00    -0.206 F 
HETATM   18  C   UNL     1      -5.815  -4.275 -34.708  1.00  0.00     0.042 A 
HETATM   19  C   UNL     1      -6.353  -3.040 -35.060  1.00  0.00     0.003 A 
HETATM   20  C   UNL     1      -5.728  -1.860 -34.644  1.00  0.00     0.007 A 
ENDBRANCH  13  14
ENDBRANCH   9  13
BRANCH   9  21
HETATM   21  C   UNL     1      -5.593  -0.262 -31.478  1.00  0.00     0.027 C 
HETATM   22  C   UNL     1      -7.089  -0.335 -31.855  1.00  0.00     0.035 C 
HETATM   23  C   UNL     1      -7.862   0.982 -31.717  1.00  0.00     0.235 C 
HETATM   24  N   UNL     1      -7.626   1.653 -30.385  1.00  0.00    -0.067 N 
HETATM   25  H   UNL     1      -8.158   1.120 -29.686  1.00  0.00     0.280 HD
HETATM   26  C   UNL     1      -6.189   1.690 -29.929  1.00  0.00     0.235 C 
HETATM   27  C   UNL     1      -5.533   0.332 -30.058  1.00  0.00     0.035 C 
BRANCH  24  28
HETATM   28  C   UNL     1      -8.170   3.082 -30.348  1.00  0.00     0.273 C 
BRANCH  28  29
HETATM   29  C   UNL     1      -8.892   3.568 -31.574  1.00  0.00    -0.030 A 
HETATM   30  C   UNL     1     -10.178   3.120 -31.904  1.00  0.00     0.048 A 
HETATM   31  C   UNL     1     -10.830   3.624 -33.032  1.00  0.00     0.102 A 
HETATM   32  C   UNL     1     -10.208   4.579 -33.839  1.00  0.00     0.102 A 
HETATM   33  O   UNL     1     -12.080   3.125 -33.287  1.00  0.00    -0.346 OA
HETATM   34  O   UNL     1     -10.784   5.105 -34.964  1.00  0.00    -0.346 OA
HETATM   35  C   UNL     1      -8.947   5.056 -33.503  1.00  0.00     0.040 A 
HETATM   36  C   UNL     1     -11.902   4.325 -35.400  1.00  0.00     0.202 C 
HETATM   37  C   UNL     1     -12.791   3.948 -34.224  1.00  0.00     0.202 C 
HETATM   38  C   UNL     1      -8.289   4.551 -32.380  1.00  0.00     0.012 A 
ENDBRANCH  28  29
ENDBRANCH  24  28
ENDBRANCH   9  21
ENDBRANCH   4   5
ENDBRANCH   3   4
TORSDOF 7
ENDMDL
MODEL 10
REMARK VINA RESULT:      -8.7      4.464      9.098
REMARK  7 active torsions:
REMARK  status: ('A' for Active; 'I' for Inactive)
REMARK    1  A    between atoms: C_3  and  C_4 
REMARK    2  A    between atoms: C_4  and  N_5 
REMARK    3  A    between atoms: C_9  and  C_28 
REMARK    4  A    between atoms: C_9  and  C_10 
REMARK    5  A    between atoms: N_13  and  C_15 
REMARK    6  A    between atoms: C_15  and  C_16 
REMARK    7  A    between atoms: C_28  and  C_29 
ROOT
HETATM    1  C   UNL     1      -7.766   9.027 -32.183  1.00  0.00     0.112 C 
HETATM    2  C   UNL     1      -7.834   7.714 -31.421  1.00  0.00    -0.109 C 
HETATM    3  C   UNL     1      -7.892   6.587 -30.767  1.00  0.00    -0.087 C 
ENDROOT
BRANCH   3   4
HETATM    4  C   UNL     1      -7.960   5.275 -30.005  1.00  0.00     0.230 C 
BRANCH   4   5
HETATM    5  N   UNL     1      -6.808   4.458 -30.280  1.00  0.00    -0.257 N 
HETATM    6  C   UNL     1      -5.593   4.660 -29.719  1.00  0.00     0.327 A 
HETATM    7  O   UNL     1      -5.246   5.530 -28.942  1.00  0.00    -0.247 OA
HETATM    8  N   UNL     1      -4.708   3.772 -30.270  1.00  0.00    -0.324 N 
HETATM    9  C   UNL     1      -5.290   2.935 -31.313  1.00  0.00     0.123 A 
HETATM   10  H   UNL     1      -3.838   3.592 -29.778  1.00  0.00     0.165 HD
HETATM   11  C   UNL     1      -6.738   3.496 -31.248  1.00  0.00     0.257 A 
HETATM   12  O   UNL     1      -7.643   3.197 -32.012  1.00  0.00    -0.270 OA
BRANCH   9  13
HETATM   13  C   UNL     1      -5.239   1.466 -30.818  1.00  0.00     0.080 C 
BRANCH  13  14
HETATM   14  C   UNL     1      -5.261   0.371 -31.857  1.00  0.00    -0.052 A 
HETATM   15  C   UNL     1      -6.473  -0.099 -32.379  1.00  0.00     0.049 A 
HETATM   16  C   UNL     1      -6.482  -1.130 -33.315  1.00  0.00     0.116 A 
HETATM   17  F   UNL     1      -7.650  -1.567 -33.800  1.00  0.00    -0.206 F 
HETATM   18  C   UNL     1      -5.300  -1.716 -33.745  1.00  0.00     0.042 A 
HETATM   19  C   UNL     1      -4.087  -1.267 -33.229  1.00  0.00     0.003 A 
HETATM   20  C   UNL     1      -4.067  -0.232 -32.287  1.00  0.00     0.007 A 
ENDBRANCH  13  14
ENDBRANCH   9  13
BRANCH   9  21
HETATM   21  C   UNL     1      -4.573   3.197 -32.695  1.00  0.00     0.027 C 
HETATM   22  C   UNL     1      -3.035   3.302 -32.601  1.00  0.00     0.035 C 
HETATM   23  C   UNL     1      -2.504   4.642 -32.077  1.00  0.00     0.235 C 
HETATM   24  N   UNL     1      -3.130   5.824 -32.777  1.00  0.00    -0.067 N 
HETATM   25  H   UNL     1      -2.706   5.876 -33.712  1.00  0.00     0.280 HD
HETATM   26  C   UNL     1      -4.625   5.745 -32.963  1.00  0.00     0.235 C 
HETATM   27  C   UNL     1      -5.040   4.404 -33.530  1.00  0.00     0.035 C 
BRANCH  24  28
HETATM   28  C   UNL     1      -2.811   7.149 -32.082  1.00  0.00     0.273 C 
BRANCH  28  29
HETATM   29  C   UNL     1      -1.818   7.104 -30.954  1.00  0.00    -0.030 A 
HETATM   30  C   UNL     1      -2.220   7.024 -29.614  1.00  0.00     0.048 A 
HETATM   31  C   UNL     1      -1.266   6.947 -28.597  1.00  0.00     0.102 A 
HETATM   32  C   UNL     1       0.096   6.947 -28.905  1.00  0.00     0.102 A 
HETATM   33  O   UNL     1      -1.745   6.880 -27.316  1.00  0.00    -0.346 OA
HETATM   34  O   UNL     1       1.083   6.887 -27.959  1.00  0.00    -0.346 OA
HETATM   35  C   UNL     1       0.506   6.992 -30.232  1.00  0.00     0.040 A 
HETATM   36  C   UNL     1       0.580   7.178 -26.651  1.00  0.00     0.202 C 
HETATM   37  C   UNL     1      -0.729   6.445 -26.399  1.00  0.00     0.202 C 
HETATM   38  C   UNL     1      -0.444   7.075 -31.252  1.00  0.00     0.012 A 
ENDBRANCH  28  29
ENDBRANCH  24  28
ENDBRANCH   9  21
ENDBRANCH   4   5
ENDBRANCH   3   4
TORSDOF 7
ENDMDL
