MODEL 1
REMARK VINA RESULT:      -7.9      0.000      0.000
REMARK  3 active torsions:
REMARK  status: ('A' for Active; 'I' for Inactive)
REMARK       I    between atoms: C_2  and  N_3 
REMARK    1  A    between atoms: C_2  and  C_16 
REMARK    2  A    between atoms: N_3  and  C_4 
REMARK    3  A    between atoms: C_7  and  C_10 
ROOT
HETATM    1  O   UNL     1      -5.929   3.450 -34.579  1.00  0.00    -0.270 OA
HETATM    2  C   UNL     1      -6.161   3.935 -33.481  1.00  0.00     0.255 C 
HETATM    3  N   UNL     1      -6.646   3.080 -32.456  1.00  0.00    -0.305 N 
HETATM    4  H   UNL     1      -6.807   3.407 -31.513  1.00  0.00     0.171 HD
ENDROOT
BRANCH   3   5
HETATM    5  C   UNL     1      -7.022   1.838 -32.696  1.00  0.00     0.151 A 
HETATM    6  N   UNL     1      -6.224   0.832 -33.055  1.00  0.00    -0.335 N 
HETATM    7  H   UNL     1      -5.220   1.004 -33.138  1.00  0.00     0.168 HD
HETATM    8  C   UNL     1      -6.887  -0.351 -33.327  1.00  0.00     0.051 A 
HETATM    9  C   UNL     1      -8.243  -0.240 -33.096  1.00  0.00     0.083 A 
HETATM   10  S   UNL     1      -8.675   1.354 -32.600  1.00  0.00    -0.063 SA
BRANCH   8  11
HETATM   11  C   UNL     1      -6.212  -1.551 -33.810  1.00  0.00    -0.006 A 
HETATM   12  C   UNL     1      -6.926  -2.530 -34.510  1.00  0.00     0.033 A 
HETATM   13  C   UNL     1      -6.260  -3.673 -34.922  1.00  0.00     0.117 A 
HETATM   14  N   UNL     1      -4.953  -3.898 -34.689  1.00  0.00    -0.273 NA
HETATM   15  C   UNL     1      -4.274  -2.947 -34.019  1.00  0.00     0.117 A 
HETATM   16  C   UNL     1      -4.851  -1.773 -33.563  1.00  0.00     0.033 A 
ENDBRANCH   8  11
ENDBRANCH   3   5
BRANCH   2  17
HETATM   17  C   UNL     1      -5.944   5.385 -33.062  1.00  0.00     0.245 C 
HETATM   18  C   UNL     1      -5.571   5.474 -31.591  1.00  0.00     0.218 C 
HETATM   19  O   UNL     1      -4.348   4.774 -31.340  1.00  0.00    -0.345 OA
HETATM   20  C   UNL     1      -3.383   5.094 -32.257  1.00  0.00     0.102 A 
HETATM   21  C   UNL     1      -2.073   4.753 -31.931  1.00  0.00     0.039 A 
HETATM   22  C   UNL     1      -3.669   5.701 -33.483  1.00  0.00     0.103 A 
HETATM   23  C   UNL     1      -1.040   5.048 -32.822  1.00  0.00     0.003 A 
HETATM   24  C   UNL     1      -1.321   5.683 -34.034  1.00  0.00     0.003 A 
HETATM   25  C   UNL     1      -2.637   6.012 -34.366  1.00  0.00     0.040 A 
HETATM   26  O   UNL     1      -4.946   5.988 -33.899  1.00  0.00    -0.331 OA
ENDBRANCH   2  17
TORSDOF 3
ENDMDL
MODEL 2
REMARK VINA RESULT:      -7.7      3.938      6.318
REMARK  3 active torsions:
REMARK  status: ('A' for Active; 'I' for Inactive)
REMARK       I    between atoms: C_2  and  N_3 
REMARK    1  A    between atoms: C_2  and  C_16 
REMARK    2  A    between atoms: N_3  and  C_4 
REMARK    3  A    between atoms: C_7  and  C_10 
ROOT
HETATM    1  O   UNL     1      -8.811   1.615 -31.738  1.00  0.00    -0.270 OA
HETATM    2  C   UNL     1      -8.720   2.459 -32.617  1.00  0.00     0.255 C 
HETATM    3  N   UNL     1      -7.740   2.276 -33.628  1.00  0.00    -0.305 N 
HETATM    4  H   UNL     1      -7.648   2.909 -34.411  1.00  0.00     0.171 HD
ENDROOT
BRANCH   3   5
HETATM    5  C   UNL     1      -6.817   1.337 -33.551  1.00  0.00     0.151 A 
HETATM    6  N   UNL     1      -6.920   0.095 -34.025  1.00  0.00    -0.335 N 
HETATM    7  H   UNL     1      -7.772  -0.175 -34.521  1.00  0.00     0.168 HD
HETATM    8  C   UNL     1      -5.838  -0.717 -33.737  1.00  0.00     0.051 A 
HETATM    9  C   UNL     1      -4.848  -0.027 -33.066  1.00  0.00     0.083 A 
HETATM   10  S   UNL     1      -5.308   1.606 -32.758  1.00  0.00    -0.063 SA
BRANCH   8  11
HETATM   11  C   UNL     1      -5.782  -2.130 -34.095  1.00  0.00    -0.006 A 
HETATM   12  C   UNL     1      -4.574  -2.831 -34.018  1.00  0.00     0.033 A 
HETATM   13  C   UNL     1      -4.551  -4.163 -34.402  1.00  0.00     0.117 A 
HETATM   14  N   UNL     1      -5.633  -4.828 -34.846  1.00  0.00    -0.273 NA
HETATM   15  C   UNL     1      -6.792  -4.145 -34.911  1.00  0.00     0.117 A 
HETATM   16  C   UNL     1      -6.916  -2.812 -34.554  1.00  0.00     0.033 A 
ENDBRANCH   8  11
ENDBRANCH   3   5
BRANCH   2  17
HETATM   17  C   UNL     1      -9.591   3.700 -32.781  1.00  0.00     0.245 C 
HETATM   18  C   UNL     1      -9.647   4.134 -34.237  1.00  0.00     0.218 C 
HETATM   19  O   UNL     1     -10.223   3.105 -35.047  1.00  0.00    -0.345 OA
HETATM   20  C   UNL     1     -11.371   2.605 -34.492  1.00  0.00     0.102 A 
HETATM   21  C   UNL     1     -12.195   1.858 -35.327  1.00  0.00     0.039 A 
HETATM   22  C   UNL     1     -11.710   2.790 -33.148  1.00  0.00     0.103 A 
HETATM   23  C   UNL     1     -13.380   1.316 -34.826  1.00  0.00     0.003 A 
HETATM   24  C   UNL     1     -13.735   1.526 -33.492  1.00  0.00     0.003 A 
HETATM   25  C   UNL     1     -12.901   2.265 -32.651  1.00  0.00     0.040 A 
HETATM   26  O   UNL     1     -10.902   3.447 -32.253  1.00  0.00    -0.331 OA
ENDBRANCH   2  17
TORSDOF 3
ENDMDL
MODEL 3
REMARK VINA RESULT:      -7.7      1.977      2.331
REMARK  3 active torsions:
REMARK  status: ('A' for Active; 'I' for Inactive)
REMARK       I    between atoms: C_2  and  N_3 
REMARK    1  A    between atoms: C_2  and  C_16 
REMARK    2  A    between atoms: N_3  and  C_4 
REMARK    3  A    between atoms: C_7  and  C_10 
ROOT
HETATM    1  O   UNL     1      -2.874   3.362 -32.915  1.00  0.00    -0.270 OA
HETATM    2  C   UNL     1      -3.810   4.125 -32.726  1.00  0.00     0.255 C 
HETATM    3  N   UNL     1      -4.985   3.611 -32.116  1.00  0.00    -0.305 N 
HETATM    4  H   UNL     1      -5.774   4.199 -31.885  1.00  0.00     0.171 HD
ENDROOT
BRANCH   3   5
HETATM    5  C   UNL     1      -5.166   2.320 -31.916  1.00  0.00     0.151 A 
HETATM    6  N   UNL     1      -5.102   1.365 -32.844  1.00  0.00    -0.335 N 
HETATM    7  H   UNL     1      -4.869   1.626 -33.805  1.00  0.00     0.168 HD
HETATM    8  C   UNL     1      -5.416   0.099 -32.383  1.00  0.00     0.051 A 
HETATM    9  C   UNL     1      -5.666   0.099 -31.025  1.00  0.00     0.083 A 
HETATM   10  S   UNL     1      -5.560   1.686 -30.360  1.00  0.00    -0.063 SA
BRANCH   8  11
HETATM   11  C   UNL     1      -5.482  -1.073 -33.249  1.00  0.00    -0.006 A 
HETATM   12  C   UNL     1      -6.706  -1.484 -33.789  1.00  0.00     0.033 A 
HETATM   13  C   UNL     1      -6.736  -2.623 -34.578  1.00  0.00     0.117 A 
HETATM   14  N   UNL     1      -5.647  -3.362 -34.861  1.00  0.00    -0.273 NA
HETATM   15  C   UNL     1      -4.474  -2.954 -34.341  1.00  0.00     0.117 A 
HETATM   16  C   UNL     1      -4.341  -1.832 -33.538  1.00  0.00     0.033 A 
ENDBRANCH   8  11
ENDBRANCH   3   5
BRANCH   2  17
HETATM   17  C   UNL     1      -3.848   5.616 -33.042  1.00  0.00     0.245 C 
HETATM   18  C   UNL     1      -4.510   6.392 -31.915  1.00  0.00     0.218 C 
HETATM   19  O   UNL     1      -3.775   6.236 -30.697  1.00  0.00    -0.345 OA
HETATM   20  C   UNL     1      -2.432   6.423 -30.888  1.00  0.00     0.102 A 
HETATM   21  C   UNL     1      -1.662   6.635 -29.748  1.00  0.00     0.039 A 
HETATM   22  C   UNL     1      -1.828   6.376 -32.148  1.00  0.00     0.103 A 
HETATM   23  C   UNL     1      -0.285   6.829 -29.870  1.00  0.00     0.003 A 
HETATM   24  C   UNL     1       0.314   6.814 -31.131  1.00  0.00     0.003 A 
HETATM   25  C   UNL     1      -0.457   6.588 -32.273  1.00  0.00     0.040 A 
HETATM   26  O   UNL     1      -2.517   6.091 -33.301  1.00  0.00    -0.331 OA
ENDBRANCH   2  17
TORSDOF 3
ENDMDL
MODEL 4
REMARK VINA RESULT:      -7.5      4.801      7.160
REMARK  3 active torsions:
REMARK  status: ('A' for Active; 'I' for Inactive)
REMARK       I    between atoms: C_2  and  N_3 
REMARK    1  A    between atoms: C_2  and  C_16 
REMARK    2  A    between atoms: N_3  and  C_4 
REMARK    3  A    between atoms: C_7  and  C_10 
ROOT
HETATM    1  O   UNL     1     -10.004   3.036 -34.662  1.00  0.00    -0.270 OA
HETATM    2  C   UNL     1     -10.934   2.250 -34.561  1.00  0.00     0.255 C 
HETATM    3  N   UNL     1     -10.751   1.090 -33.763  1.00  0.00    -0.305 N 
HETATM    4  H   UNL     1     -11.496   0.427 -33.596  1.00  0.00     0.171 HD
ENDROOT
BRANCH   3   5
HETATM    5  C   UNL     1      -9.571   0.745 -33.283  1.00  0.00     0.151 A 
HETATM    6  N   UNL     1      -8.671  -0.026 -33.893  1.00  0.00    -0.335 N 
HETATM    7  H   UNL     1      -8.877  -0.377 -34.831  1.00  0.00     0.168 HD
HETATM    8  C   UNL     1      -7.548  -0.302 -33.134  1.00  0.00     0.051 A 
HETATM    9  C   UNL     1      -7.584   0.349 -31.917  1.00  0.00     0.083 A 
HETATM   10  S   UNL     1      -9.042   1.247 -31.720  1.00  0.00    -0.063 SA
BRANCH   8  11
HETATM   11  C   UNL     1      -6.479  -1.187 -33.582  1.00  0.00    -0.006 A 
HETATM   12  C   UNL     1      -5.195  -1.076 -33.039  1.00  0.00     0.033 A 
HETATM   13  C   UNL     1      -4.195  -1.909 -33.515  1.00  0.00     0.117 A 
HETATM   14  N   UNL     1      -4.390  -2.831 -34.477  1.00  0.00    -0.273 NA
HETATM   15  C   UNL     1      -5.632  -2.934 -34.989  1.00  0.00     0.117 A 
HETATM   16  C   UNL     1      -6.695  -2.144 -34.582  1.00  0.00     0.033 A 
ENDBRANCH   8  11
ENDBRANCH   3   5
BRANCH   2  17
HETATM   17  C   UNL     1     -12.322   2.396 -35.176  1.00  0.00     0.245 C 
HETATM   18  C   UNL     1     -13.296   1.408 -34.556  1.00  0.00     0.218 C 
HETATM   19  O   UNL     1     -13.430   1.647 -33.151  1.00  0.00    -0.345 OA
HETATM   20  C   UNL     1     -13.619   2.975 -32.879  1.00  0.00     0.102 A 
HETATM   21  C   UNL     1     -14.096   3.292 -31.611  1.00  0.00     0.039 A 
HETATM   22  C   UNL     1     -13.325   3.990 -33.795  1.00  0.00     0.103 A 
HETATM   23  C   UNL     1     -14.308   4.628 -31.265  1.00  0.00     0.003 A 
HETATM   24  C   UNL     1     -14.044   5.640 -32.190  1.00  0.00     0.003 A 
HETATM   25  C   UNL     1     -13.554   5.322 -33.459  1.00  0.00     0.040 A 
HETATM   26  O   UNL     1     -12.777   3.750 -35.031  1.00  0.00    -0.331 OA
ENDBRANCH   2  17
TORSDOF 3
ENDMDL
MODEL 5
REMARK VINA RESULT:      -7.4      3.414      8.045
REMARK  3 active torsions:
REMARK  status: ('A' for Active; 'I' for Inactive)
REMARK       I    between atoms: C_2  and  N_3 
REMARK    1  A    between atoms: C_2  and  C_16 
REMARK    2  A    between atoms: N_3  and  C_4 
REMARK    3  A    between atoms: C_7  and  C_10 
ROOT
HETATM    1  O   UNL     1      -3.549   1.250 -31.319  1.00  0.00    -0.270 OA
HETATM    2  C   UNL     1      -4.686   1.676 -31.176  1.00  0.00     0.255 C 
HETATM    3  N   UNL     1      -4.931   3.046 -31.458  1.00  0.00    -0.305 N 
HETATM    4  H   UNL     1      -5.857   3.449 -31.411  1.00  0.00     0.171 HD
ENDROOT
BRANCH   3   5
HETATM    5  C   UNL     1      -3.955   3.903 -31.689  1.00  0.00     0.151 A 
HETATM    6  N   UNL     1      -3.093   4.372 -30.787  1.00  0.00    -0.335 N 
HETATM    7  H   UNL     1      -3.156   4.036 -29.823  1.00  0.00     0.168 HD
HETATM    8  C   UNL     1      -2.218   5.325 -31.276  1.00  0.00     0.051 A 
HETATM    9  C   UNL     1      -2.394   5.532 -32.629  1.00  0.00     0.083 A 
HETATM   10  S   UNL     1      -3.685   4.576 -33.255  1.00  0.00    -0.063 SA
BRANCH   8  11
HETATM   11  C   UNL     1      -1.247   6.022 -30.439  1.00  0.00    -0.006 A 
HETATM   12  C   UNL     1      -0.154   5.334 -29.901  1.00  0.00     0.033 A 
HETATM   13  C   UNL     1       0.727   6.020 -29.080  1.00  0.00     0.117 A 
HETATM   14  N   UNL     1       0.594   7.323 -28.771  1.00  0.00    -0.273 NA
HETATM   15  C   UNL     1      -0.458   7.977 -29.298  1.00  0.00     0.117 A 
HETATM   16  C   UNL     1      -1.395   7.380 -30.125  1.00  0.00     0.033 A 
ENDBRANCH   8  11
ENDBRANCH   3   5
BRANCH   2  17
HETATM   17  C   UNL     1      -5.914   0.875 -30.759  1.00  0.00     0.245 C 
HETATM   18  C   UNL     1      -7.188   1.665 -31.009  1.00  0.00     0.218 C 
HETATM   19  O   UNL     1      -7.331   1.962 -32.402  1.00  0.00    -0.345 OA
HETATM   20  C   UNL     1      -7.110   0.858 -33.180  1.00  0.00     0.102 A 
HETATM   21  C   UNL     1      -7.544   0.926 -34.501  1.00  0.00     0.039 A 
HETATM   22  C   UNL     1      -6.453  -0.285 -32.713  1.00  0.00     0.103 A 
HETATM   23  C   UNL     1      -7.347  -0.163 -35.351  1.00  0.00     0.003 A 
HETATM   24  C   UNL     1      -6.720  -1.316 -34.877  1.00  0.00     0.003 A 
HETATM   25  C   UNL     1      -6.272  -1.380 -33.555  1.00  0.00     0.040 A 
HETATM   26  O   UNL     1      -5.929  -0.385 -31.448  1.00  0.00    -0.331 OA
ENDBRANCH   2  17
TORSDOF 3
ENDMDL
MODEL 6
REMARK VINA RESULT:      -7.3      3.047      4.272
REMARK  3 active torsions:
REMARK  status: ('A' for Active; 'I' for Inactive)
REMARK       I    between atoms: C_2  and  N_3 
REMARK    1  A    between atoms: C_2  and  C_16 
REMARK    2  A    between atoms: N_3  and  C_4 
REMARK    3  A    between atoms: C_7  and  C_10 
ROOT
HETATM    1  O   UNL     1      -1.834   4.075 -31.626  1.00  0.00    -0.270 OA
HETATM    2  C   UNL     1      -2.093   5.040 -32.331  1.00  0.00     0.255 C 
HETATM    3  N   UNL     1      -3.444   5.249 -32.715  1.00  0.00    -0.305 N 
HETATM    4  H   UNL     1      -3.733   6.055 -33.253  1.00  0.00     0.171 HD
ENDROOT
BRANCH   3   5
HETATM    5  C   UNL     1      -4.386   4.353 -32.493  1.00  0.00     0.151 A 
HETATM    6  N   UNL     1      -4.552   3.208 -33.156  1.00  0.00    -0.335 N 
HETATM    7  H   UNL     1      -3.889   2.965 -33.895  1.00  0.00     0.168 HD
HETATM    8  C   UNL     1      -5.671   2.487 -32.778  1.00  0.00     0.051 A 
HETATM    9  C   UNL     1      -6.339   3.095 -31.734  1.00  0.00     0.083 A 
HETATM   10  S   UNL     1      -5.593   4.582 -31.281  1.00  0.00    -0.063 SA
BRANCH   8  11
HETATM   11  C   UNL     1      -6.079   1.248 -33.429  1.00  0.00    -0.006 A 
HETATM   12  C   UNL     1      -5.723   0.011 -32.880  1.00  0.00     0.033 A 
HETATM   13  C   UNL     1      -6.097  -1.146 -33.546  1.00  0.00     0.117 A 
HETATM   14  N   UNL     1      -6.793  -1.149 -34.698  1.00  0.00    -0.273 NA
HETATM   15  C   UNL     1      -7.136   0.047 -35.215  1.00  0.00     0.117 A 
HETATM   16  C   UNL     1      -6.806   1.257 -34.627  1.00  0.00     0.033 A 
ENDBRANCH   8  11
ENDBRANCH   3   5
BRANCH   2  17
HETATM   17  C   UNL     1      -1.112   6.097 -32.825  1.00  0.00     0.245 C 
HETATM   18  C   UNL     1      -1.828   7.404 -33.125  1.00  0.00     0.218 C 
HETATM   19  O   UNL     1      -2.446   7.921 -31.943  1.00  0.00    -0.345 OA
HETATM   20  C   UNL     1      -1.591   7.901 -30.873  1.00  0.00     0.102 A 
HETATM   21  C   UNL     1      -1.947   8.676 -29.774  1.00  0.00     0.039 A 
HETATM   22  C   UNL     1      -0.429   7.124 -30.842  1.00  0.00     0.103 A 
HETATM   23  C   UNL     1      -1.122   8.698 -28.648  1.00  0.00     0.003 A 
HETATM   24  C   UNL     1       0.054   7.948 -28.628  1.00  0.00     0.003 A 
HETATM   25  C   UNL     1       0.404   7.159 -29.726  1.00  0.00     0.040 A 
HETATM   26  O   UNL     1      -0.065   6.276 -31.859  1.00  0.00    -0.331 OA
ENDBRANCH   2  17
TORSDOF 3
ENDMDL
MODEL 7
REMARK VINA RESULT:      -7.3      3.022      7.648
REMARK  3 active torsions:
REMARK  status: ('A' for Active; 'I' for Inactive)
REMARK       I    between atoms: C_2  and  N_3 
REMARK    1  A    between atoms: C_2  and  C_16 
REMARK    2  A    between atoms: N_3  and  C_4 
REMARK    3  A    between atoms: C_7  and  C_10 
ROOT
HETATM    1  O   UNL     1      -3.654   1.627 -31.397  1.00  0.00    -0.270 OA
HETATM    2  C   UNL     1      -4.715   1.342 -30.863  1.00  0.00     0.255 C 
HETATM    3  N   UNL     1      -5.591   2.400 -30.499  1.00  0.00    -0.305 N 
HETATM    4  H   UNL     1      -6.505   2.230 -30.102  1.00  0.00     0.171 HD
ENDROOT
BRANCH   3   5
HETATM    5  C   UNL     1      -5.224   3.665 -30.551  1.00  0.00     0.151 A 
HETATM    6  N   UNL     1      -4.415   4.212 -31.459  1.00  0.00    -0.335 N 
HETATM    7  H   UNL     1      -4.050   3.624 -32.211  1.00  0.00     0.168 HD
HETATM    8  C   UNL     1      -4.125   5.546 -31.235  1.00  0.00     0.051 A 
HETATM    9  C   UNL     1      -4.803   6.037 -30.138  1.00  0.00     0.083 A 
HETATM   10  S   UNL     1      -5.746   4.813 -29.372  1.00  0.00    -0.063 SA
BRANCH   8  11
HETATM   11  C   UNL     1      -3.201   6.312 -32.064  1.00  0.00    -0.006 A 
HETATM   12  C   UNL     1      -2.502   7.398 -31.525  1.00  0.00     0.033 A 
HETATM   13  C   UNL     1      -1.660   8.125 -32.351  1.00  0.00     0.117 A 
HETATM   14  N   UNL     1      -1.470   7.842 -33.654  1.00  0.00    -0.273 NA
HETATM   15  C   UNL     1      -2.143   6.791 -34.161  1.00  0.00     0.117 A 
HETATM   16  C   UNL     1      -3.009   6.006 -33.418  1.00  0.00     0.033 A 
ENDBRANCH   8  11
ENDBRANCH   3   5
BRANCH   2  17
HETATM   17  C   UNL     1      -5.242  -0.059 -30.571  1.00  0.00     0.245 C 
HETATM   18  C   UNL     1      -6.735  -0.030 -30.291  1.00  0.00     0.218 C 
HETATM   19  O   UNL     1      -7.451   0.462 -31.429  1.00  0.00    -0.345 OA
HETATM   20  C   UNL     1      -7.037  -0.140 -32.587  1.00  0.00     0.102 A 
HETATM   21  C   UNL     1      -7.870  -0.006 -33.693  1.00  0.00     0.039 A 
HETATM   22  C   UNL     1      -5.828  -0.834 -32.695  1.00  0.00     0.103 A 
HETATM   23  C   UNL     1      -7.507  -0.592 -34.907  1.00  0.00     0.003 A 
HETATM   24  C   UNL     1      -6.315  -1.312 -35.008  1.00  0.00     0.003 A 
HETATM   25  C   UNL     1      -5.474  -1.435 -33.900  1.00  0.00     0.040 A 
HETATM   26  O   UNL     1      -4.925  -0.934 -31.665  1.00  0.00    -0.331 OA
ENDBRANCH   2  17
TORSDOF 3
ENDMDL
MODEL 8
REMARK VINA RESULT:      -7.3      3.746      5.720
REMARK  3 active torsions:
REMARK  status: ('A' for Active; 'I' for Inactive)
REMARK       I    between atoms: C_2  and  N_3 
REMARK    1  A    between atoms: C_2  and  C_16 
REMARK    2  A    between atoms: N_3  and  C_4 
REMARK    3  A    between atoms: C_7  and  C_10 
ROOT
HETATM    1  O   UNL     1      -7.534   2.552 -34.056  1.00  0.00    -0.270 OA
HETATM    2  C   UNL     1      -7.889   2.399 -32.897  1.00  0.00     0.255 C 
HETATM    3  N   UNL     1      -7.188   1.458 -32.097  1.00  0.00    -0.305 N 
HETATM    4  H   UNL     1      -7.397   1.321 -31.117  1.00  0.00     0.171 HD
ENDROOT
BRANCH   3   5
HETATM    5  C   UNL     1      -6.301   0.625 -32.606  1.00  0.00     0.151 A 
HETATM    6  N   UNL     1      -6.561  -0.561 -33.156  1.00  0.00    -0.335 N 
HETATM    7  H   UNL     1      -7.534  -0.869 -33.224  1.00  0.00     0.168 HD
HETATM    8  C   UNL     1      -5.438  -1.272 -33.537  1.00  0.00     0.051 A 
HETATM    9  C   UNL     1      -4.281  -0.553 -33.318  1.00  0.00     0.083 A 
HETATM   10  S   UNL     1      -4.611   0.975 -32.589  1.00  0.00    -0.063 SA
BRANCH   8  11
HETATM   11  C   UNL     1      -5.497  -2.622 -34.086  1.00  0.00    -0.006 A 
HETATM   12  C   UNL     1      -6.660  -3.079 -34.716  1.00  0.00     0.033 A 
HETATM   13  C   UNL     1      -6.691  -4.380 -35.193  1.00  0.00     0.117 A 
HETATM   14  N   UNL     1      -5.658  -5.236 -35.089  1.00  0.00    -0.273 NA
HETATM   15  C   UNL     1      -4.542  -4.785 -34.486  1.00  0.00     0.117 A 
HETATM   16  C   UNL     1      -4.414  -3.504 -33.974  1.00  0.00     0.033 A 
ENDBRANCH   8  11
ENDBRANCH   3   5
BRANCH   2  17
HETATM   17  C   UNL     1      -9.003   3.153 -32.178  1.00  0.00     0.245 C 
HETATM   18  C   UNL     1      -9.199   4.534 -32.780  1.00  0.00     0.218 C 
HETATM   19  O   UNL     1      -9.578   4.433 -34.157  1.00  0.00    -0.345 OA
HETATM   20  C   UNL     1     -10.577   3.516 -34.342  1.00  0.00     0.102 A 
HETATM   21  C   UNL     1     -11.259   3.569 -35.554  1.00  0.00     0.039 A 
HETATM   22  C   UNL     1     -10.900   2.539 -33.394  1.00  0.00     0.103 A 
HETATM   23  C   UNL     1     -12.287   2.660 -35.810  1.00  0.00     0.003 A 
HETATM   24  C   UNL     1     -12.631   1.705 -34.852  1.00  0.00     0.003 A 
HETATM   25  C   UNL     1     -11.938   1.643 -33.640  1.00  0.00     0.040 A 
HETATM   26  O   UNL     1     -10.214   2.381 -32.215  1.00  0.00    -0.331 OA
ENDBRANCH   2  17
TORSDOF 3
ENDMDL
MODEL 9
REMARK VINA RESULT:      -7.3      2.906      7.091
REMARK  3 active torsions:
REMARK  status: ('A' for Active; 'I' for Inactive)
REMARK       I    between atoms: C_2  and  N_3 
REMARK    1  A    between atoms: C_2  and  C_16 
REMARK    2  A    between atoms: N_3  and  C_4 
REMARK    3  A    between atoms: C_7  and  C_10 
ROOT
HETATM    1  O   UNL     1      -8.368   3.988 -32.478  1.00  0.00    -0.270 OA
HETATM    2  C   UNL     1      -8.148   3.024 -31.761  1.00  0.00     0.255 C 
HETATM    3  N   UNL     1      -7.021   3.069 -30.898  1.00  0.00    -0.305 N 
HETATM    4  H   UNL     1      -6.813   2.328 -30.243  1.00  0.00     0.171 HD
ENDROOT
BRANCH   3   5
HETATM    5  C   UNL     1      -6.114   4.025 -30.975  1.00  0.00     0.151 A 
HETATM    6  N   UNL     1      -5.304   4.257 -32.008  1.00  0.00    -0.335 N 
HETATM    7  H   UNL     1      -5.387   3.671 -32.841  1.00  0.00     0.168 HD
HETATM    8  C   UNL     1      -4.387   5.271 -31.797  1.00  0.00     0.051 A 
HETATM    9  C   UNL     1      -4.564   5.869 -30.565  1.00  0.00     0.083 A 
HETATM   10  S   UNL     1      -5.833   5.119 -29.671  1.00  0.00    -0.063 SA
BRANCH   8  11
HETATM   11  C   UNL     1      -3.360   5.633 -32.767  1.00  0.00    -0.006 A 
HETATM   12  C   UNL     1      -2.902   4.692 -33.696  1.00  0.00     0.033 A 
HETATM   13  C   UNL     1      -1.899   5.061 -34.579  1.00  0.00     0.117 A 
HETATM   14  N   UNL     1      -1.338   6.284 -34.597  1.00  0.00    -0.273 NA
HETATM   15  C   UNL     1      -1.790   7.184 -33.703  1.00  0.00     0.117 A 
HETATM   16  C   UNL     1      -2.785   6.910 -32.779  1.00  0.00     0.033 A 
ENDBRANCH   8  11
ENDBRANCH   3   5
BRANCH   2  17
HETATM   17  C   UNL     1      -8.991   1.758 -31.653  1.00  0.00     0.245 C 
HETATM   18  C   UNL     1      -9.943   1.638 -32.831  1.00  0.00     0.218 C 
HETATM   19  O   UNL     1      -9.214   1.557 -34.060  1.00  0.00    -0.345 OA
HETATM   20  C   UNL     1      -8.189   0.652 -33.983  1.00  0.00     0.102 A 
HETATM   21  C   UNL     1      -7.630   0.235 -35.187  1.00  0.00     0.039 A 
HETATM   22  C   UNL     1      -7.682   0.178 -32.769  1.00  0.00     0.103 A 
HETATM   23  C   UNL     1      -6.579  -0.683 -35.181  1.00  0.00     0.003 A 
HETATM   24  C   UNL     1      -6.093  -1.181 -33.971  1.00  0.00     0.003 A 
HETATM   25  C   UNL     1      -6.645  -0.752 -32.762  1.00  0.00     0.040 A 
HETATM   26  O   UNL     1      -8.133   0.611 -31.546  1.00  0.00    -0.331 OA
ENDBRANCH   2  17
TORSDOF 3
ENDMDL
MODEL 10
REMARK VINA RESULT:      -7.0      2.703      7.055
REMARK  3 active torsions:
REMARK  status: ('A' for Active; 'I' for Inactive)
REMARK       I    between atoms: C_2  and  N_3 
REMARK    1  A    between atoms: C_2  and  C_16 
REMARK    2  A    between atoms: N_3  and  C_4 
REMARK    3  A    between atoms: C_7  and  C_10 
ROOT
HETATM    1  O   UNL     1      -7.776   2.491 -33.975  1.00  0.00    -0.270 OA
HETATM    2  C   UNL     1      -7.801   2.156 -32.800  1.00  0.00     0.255 C 
HETATM    3  N   UNL     1      -7.353   3.087 -31.826  1.00  0.00    -0.305 N 
HETATM    4  H   UNL     1      -7.396   2.893 -30.834  1.00  0.00     0.171 HD
ENDROOT
BRANCH   3   5
HETATM    5  C   UNL     1      -6.750   4.213 -32.154  1.00  0.00     0.151 A 
HETATM    6  N   UNL     1      -5.536   4.325 -32.694  1.00  0.00    -0.335 N 
HETATM    7  H   UNL     1      -5.010   3.475 -32.906  1.00  0.00     0.168 HD
HETATM    8  C   UNL     1      -5.105   5.629 -32.863  1.00  0.00     0.051 A 
HETATM    9  C   UNL     1      -6.073   6.538 -32.488  1.00  0.00     0.083 A 
HETATM   10  S   UNL     1      -7.481   5.751 -31.879  1.00  0.00    -0.063 SA
BRANCH   8  11
HETATM   11  C   UNL     1      -3.779   5.973 -33.364  1.00  0.00    -0.006 A 
HETATM   12  C   UNL     1      -3.205   5.238 -34.407  1.00  0.00     0.033 A 
HETATM   13  C   UNL     1      -1.929   5.570 -34.833  1.00  0.00     0.117 A 
HETATM   14  N   UNL     1      -1.203   6.569 -34.298  1.00  0.00    -0.273 NA
HETATM   15  C   UNL     1      -1.766   7.274 -33.298  1.00  0.00     0.117 A 
HETATM   16  C   UNL     1      -3.033   7.017 -32.801  1.00  0.00     0.033 A 
ENDBRANCH   8  11
ENDBRANCH   3   5
BRANCH   2  17
HETATM   17  C   UNL     1      -8.311   0.833 -32.240  1.00  0.00     0.245 C 
HETATM   18  C   UNL     1      -8.774  -0.087 -33.358  1.00  0.00     0.218 C 
HETATM   19  O   UNL     1      -7.689  -0.391 -34.241  1.00  0.00    -0.345 OA
HETATM   20  C   UNL     1      -6.562  -0.752 -33.553  1.00  0.00     0.102 A 
HETATM   21  C   UNL     1      -5.562  -1.390 -34.281  1.00  0.00     0.039 A 
HETATM   22  C   UNL     1      -6.378  -0.477 -32.195  1.00  0.00     0.103 A 
HETATM   23  C   UNL     1      -4.385  -1.782 -33.643  1.00  0.00     0.003 A 
HETATM   24  C   UNL     1      -4.213  -1.536 -32.280  1.00  0.00     0.003 A 
HETATM   25  C   UNL     1      -5.211  -0.884 -31.552  1.00  0.00     0.040 A 
HETATM   26  O   UNL     1      -7.289   0.219 -31.439  1.00  0.00    -0.331 OA
ENDBRANCH   2  17
TORSDOF 3
ENDMDL
