MODEL 1
REMARK VINA RESULT:      -8.2      0.000      0.000
REMARK  6 active torsions:
REMARK  status: ('A' for Active; 'I' for Inactive)
REMARK    1  A    between atoms: C_2  and  N_3 
REMARK    2  A    between atoms: C_5  and  C_6 
REMARK    3  A    between atoms: C_6  and  N_7 
REMARK       I    between atoms: N_7  and  C_8 
REMARK    4  A    between atoms: C_8  and  C_9 
REMARK    5  A    between atoms: C_9  and  C_10 
REMARK    6  A    between atoms: C_11  and  C_12 
ROOT
HETATM    1  C   UNL     1      -7.725   1.158 -31.788  1.00  0.00     0.006 C 
HETATM    2  C   UNL     1      -6.514   0.554 -32.295  1.00  0.00     0.096 C 
HETATM    3  N   UNL     1      -5.457   1.291 -31.912  1.00  0.00    -0.173 NA
HETATM    4  N   UNL     1      -5.931   2.200 -31.065  1.00  0.00    -0.282 N 
HETATM    5  H   UNL     1      -5.266   2.803 -30.588  1.00  0.00     0.189 HD
HETATM    6  C   UNL     1      -7.289   2.195 -30.971  1.00  0.00     0.033 C 
HETATM    7  C   UNL     1      -8.001   3.146 -30.083  1.00  0.00     0.070 C 
ENDROOT
BRANCH   1   8
HETATM    8  C   UNL     1      -9.156   0.792 -32.013  1.00  0.00     0.146 C 
BRANCH   8   9
HETATM    9  C   UNL     1      -9.818   1.782 -32.963  1.00  0.00     0.222 C 
HETATM   10  N   UNL     1     -10.774   2.606 -32.414  1.00  0.00    -0.359 N 
HETATM   11  H   UNL     1     -11.083   2.412 -31.467  1.00  0.00     0.162 HD
HETATM   12  O   UNL     1      -9.484   1.932 -34.140  1.00  0.00    -0.273 OA
BRANCH  10  13
HETATM   13  C   UNL     1     -11.541   3.562 -33.207  1.00  0.00     0.155 C 
BRANCH  13  14
HETATM   14  C   UNL     1     -12.957   3.105 -33.653  1.00  0.00     0.206 C 
HETATM   15  N   UNL     1     -13.580   2.125 -32.661  1.00  0.00    -0.066 N 
HETATM   16  H   UNL     1     -12.824   1.846 -32.000  1.00  0.00     0.280 HD
HETATM   17  C   UNL     1     -13.953   0.872 -33.419  1.00  0.00     0.235 C 
HETATM   18  C   UNL     1     -13.049   0.896 -34.631  1.00  0.00     0.030 C 
HETATM   19  C   UNL     1     -12.982   2.366 -34.991  1.00  0.00     0.036 C 
BRANCH  15  20
HETATM   20  C   UNL     1     -14.664   2.708 -31.806  1.00  0.00     0.231 C 
HETATM   21  C   UNL     1     -16.028   2.229 -32.266  1.00  0.00     0.034 C 
ENDBRANCH  15  20
ENDBRANCH  13  14
ENDBRANCH  10  13
ENDBRANCH   8   9
ENDBRANCH   1   8
BRANCH   2  22
HETATM   22  C   UNL     1      -6.259  -0.652 -33.116  1.00  0.00    -0.005 A 
HETATM   23  C   UNL     1      -7.244  -1.308 -33.865  1.00  0.00     0.017 A 
HETATM   24  C   UNL     1      -6.940  -2.450 -34.621  1.00  0.00     0.043 A 
HETATM   25  C   UNL     1      -5.649  -2.955 -34.626  1.00  0.00     0.116 A 
HETATM   26  F   UNL     1      -5.367  -4.045 -35.349  1.00  0.00    -0.206 F 
HETATM   27  C   UNL     1      -4.651  -2.339 -33.890  1.00  0.00     0.043 A 
HETATM   28  C   UNL     1      -4.956  -1.197 -33.143  1.00  0.00     0.017 A 
ENDBRANCH   2  22
TORSDOF 6
ENDMDL
MODEL 2
REMARK VINA RESULT:      -8.1      4.107      6.592
REMARK  6 active torsions:
REMARK  status: ('A' for Active; 'I' for Inactive)
REMARK    1  A    between atoms: C_2  and  N_3 
REMARK    2  A    between atoms: C_5  and  C_6 
REMARK    3  A    between atoms: C_6  and  N_7 
REMARK       I    between atoms: N_7  and  C_8 
REMARK    4  A    between atoms: C_8  and  C_9 
REMARK    5  A    between atoms: C_9  and  C_10 
REMARK    6  A    between atoms: C_11  and  C_12 
ROOT
HETATM    1  C   UNL     1      -7.034   2.100 -31.593  1.00  0.00     0.006 C 
HETATM    2  C   UNL     1      -6.405   0.800 -31.563  1.00  0.00     0.096 C 
HETATM    3  N   UNL     1      -5.971   0.546 -30.316  1.00  0.00    -0.173 NA
HETATM    4  N   UNL     1      -6.447   1.527 -29.555  1.00  0.00    -0.282 N 
HETATM    5  H   UNL     1      -6.304   1.466 -28.551  1.00  0.00     0.189 HD
HETATM    6  C   UNL     1      -7.067   2.510 -30.265  1.00  0.00     0.033 C 
HETATM    7  C   UNL     1      -7.653   3.693 -29.588  1.00  0.00     0.070 C 
ENDROOT
BRANCH   1   8
HETATM    8  C   UNL     1      -7.583   2.883 -32.742  1.00  0.00     0.146 C 
BRANCH   8   9
HETATM    9  C   UNL     1      -6.645   4.029 -33.104  1.00  0.00     0.222 C 
HETATM   10  N   UNL     1      -5.795   3.807 -34.164  1.00  0.00    -0.359 N 
HETATM   11  H   UNL     1      -5.738   2.866 -34.539  1.00  0.00     0.162 HD
HETATM   12  O   UNL     1      -6.674   5.136 -32.565  1.00  0.00    -0.273 OA
BRANCH  10  13
HETATM   13  C   UNL     1      -4.796   4.781 -34.591  1.00  0.00     0.155 C 
BRANCH  13  14
HETATM   14  C   UNL     1      -3.410   4.694 -33.895  1.00  0.00     0.206 C 
HETATM   15  N   UNL     1      -3.386   5.453 -32.570  1.00  0.00    -0.066 N 
HETATM   16  H   UNL     1      -4.264   6.014 -32.531  1.00  0.00     0.280 HD
HETATM   17  C   UNL     1      -2.255   6.454 -32.630  1.00  0.00     0.235 C 
HETATM   18  C   UNL     1      -2.040   6.674 -34.110  1.00  0.00     0.030 C 
HETATM   19  C   UNL     1      -2.264   5.300 -34.706  1.00  0.00     0.036 C 
BRANCH  15  20
HETATM   20  C   UNL     1      -3.413   4.581 -31.351  1.00  0.00     0.231 C 
HETATM   21  C   UNL     1      -3.210   3.126 -31.727  1.00  0.00     0.034 C 
ENDBRANCH  15  20
ENDBRANCH  13  14
ENDBRANCH  10  13
ENDBRANCH   8   9
ENDBRANCH   1   8
BRANCH   2  22
HETATM   22  C   UNL     1      -6.167  -0.226 -32.604  1.00  0.00    -0.005 A 
HETATM   23  C   UNL     1      -7.170  -0.741 -33.436  1.00  0.00     0.017 A 
HETATM   24  C   UNL     1      -6.882  -1.715 -34.402  1.00  0.00     0.043 A 
HETATM   25  C   UNL     1      -5.588  -2.194 -34.540  1.00  0.00     0.116 A 
HETATM   26  F   UNL     1      -5.321  -3.125 -35.464  1.00  0.00    -0.206 F 
HETATM   27  C   UNL     1      -4.572  -1.716 -33.730  1.00  0.00     0.043 A 
HETATM   28  C   UNL     1      -4.862  -0.740 -32.771  1.00  0.00     0.017 A 
ENDBRANCH   2  22
TORSDOF 6
ENDMDL
MODEL 3
REMARK VINA RESULT:      -8.0      3.630      6.649
REMARK  6 active torsions:
REMARK  status: ('A' for Active; 'I' for Inactive)
REMARK    1  A    between atoms: C_2  and  N_3 
REMARK    2  A    between atoms: C_5  and  C_6 
REMARK    3  A    between atoms: C_6  and  N_7 
REMARK       I    between atoms: N_7  and  C_8 
REMARK    4  A    between atoms: C_8  and  C_9 
REMARK    5  A    between atoms: C_9  and  C_10 
REMARK    6  A    between atoms: C_11  and  C_12 
ROOT
HETATM    1  C   UNL     1      -7.428   0.181 -33.042  1.00  0.00     0.006 C 
HETATM    2  C   UNL     1      -7.122  -0.669 -34.169  1.00  0.00     0.096 C 
HETATM    3  N   UNL     1      -7.636  -0.127 -35.287  1.00  0.00    -0.173 NA
HETATM    4  N   UNL     1      -8.080   1.078 -34.939  1.00  0.00    -0.282 N 
HETATM    5  H   UNL     1      -8.426   1.690 -35.672  1.00  0.00     0.189 HD
HETATM    6  C   UNL     1      -8.015   1.312 -33.599  1.00  0.00     0.033 C 
HETATM    7  C   UNL     1      -8.476   2.598 -33.022  1.00  0.00     0.070 C 
ENDROOT
BRANCH   1   8
HETATM    8  C   UNL     1      -7.174  -0.018 -31.583  1.00  0.00     0.146 C 
BRANCH   8   9
HETATM    9  C   UNL     1      -6.015   0.857 -31.118  1.00  0.00     0.222 C 
HETATM   10  N   UNL     1      -4.920   0.907 -31.951  1.00  0.00    -0.359 N 
HETATM   11  H   UNL     1      -4.886   0.260 -32.732  1.00  0.00     0.162 HD
HETATM   12  O   UNL     1      -6.050   1.563 -30.110  1.00  0.00    -0.273 OA
BRANCH  10  13
HETATM   13  C   UNL     1      -3.708   1.647 -31.616  1.00  0.00     0.155 C 
BRANCH  13  14
HETATM   14  C   UNL     1      -3.532   3.026 -32.309  1.00  0.00     0.206 C 
HETATM   15  N   UNL     1      -3.203   4.131 -31.308  1.00  0.00    -0.066 N 
HETATM   16  H   UNL     1      -3.355   3.731 -30.358  1.00  0.00     0.280 HD
HETATM   17  C   UNL     1      -4.232   5.225 -31.470  1.00  0.00     0.235 C 
HETATM   18  C   UNL     1      -5.419   4.521 -32.088  1.00  0.00     0.030 C 
HETATM   19  C   UNL     1      -4.783   3.524 -33.035  1.00  0.00     0.036 C 
BRANCH  15  20
HETATM   20  C   UNL     1      -1.773   4.583 -31.327  1.00  0.00     0.231 C 
HETATM   21  C   UNL     1      -1.399   5.126 -32.694  1.00  0.00     0.034 C 
ENDBRANCH  15  20
ENDBRANCH  13  14
ENDBRANCH  10  13
ENDBRANCH   8   9
ENDBRANCH   1   8
BRANCH   2  22
HETATM   22  C   UNL     1      -6.395  -1.954 -34.291  1.00  0.00    -0.005 A 
HETATM   23  C   UNL     1      -6.998  -3.159 -34.673  1.00  0.00     0.017 A 
HETATM   24  C   UNL     1      -6.255  -4.344 -34.768  1.00  0.00     0.043 A 
HETATM   25  C   UNL     1      -4.901  -4.340 -34.469  1.00  0.00     0.116 A 
HETATM   26  F   UNL     1      -4.199  -5.476 -34.561  1.00  0.00    -0.206 F 
HETATM   27  C   UNL     1      -4.272  -3.170 -34.079  1.00  0.00     0.043 A 
HETATM   28  C   UNL     1      -5.015  -1.989 -33.992  1.00  0.00     0.017 A 
ENDBRANCH   2  22
TORSDOF 6
ENDMDL
MODEL 4
REMARK VINA RESULT:      -8.0      4.008      6.587
REMARK  6 active torsions:
REMARK  status: ('A' for Active; 'I' for Inactive)
REMARK    1  A    between atoms: C_2  and  N_3 
REMARK    2  A    between atoms: C_5  and  C_6 
REMARK    3  A    between atoms: C_6  and  N_7 
REMARK       I    between atoms: N_7  and  C_8 
REMARK    4  A    between atoms: C_8  and  C_9 
REMARK    5  A    between atoms: C_9  and  C_10 
REMARK    6  A    between atoms: C_11  and  C_12 
ROOT
HETATM    1  C   UNL     1      -7.007   1.920 -31.599  1.00  0.00     0.006 C 
HETATM    2  C   UNL     1      -6.302   0.659 -31.565  1.00  0.00     0.096 C 
HETATM    3  N   UNL     1      -5.834   0.446 -30.322  1.00  0.00    -0.173 NA
HETATM    4  N   UNL     1      -6.355   1.407 -29.565  1.00  0.00    -0.282 N 
HETATM    5  H   UNL     1      -6.193   1.367 -28.562  1.00  0.00     0.189 HD
HETATM    6  C   UNL     1      -7.043   2.343 -30.276  1.00  0.00     0.033 C 
HETATM    7  C   UNL     1      -7.686   3.497 -29.603  1.00  0.00     0.070 C 
ENDROOT
BRANCH   1   8
HETATM    8  C   UNL     1      -7.619   2.655 -32.747  1.00  0.00     0.146 C 
BRANCH   8   9
HETATM    9  C   UNL     1      -6.618   3.633 -33.351  1.00  0.00     0.222 C 
HETATM   10  N   UNL     1      -6.460   4.828 -32.687  1.00  0.00    -0.359 N 
HETATM   11  H   UNL     1      -7.109   5.046 -31.938  1.00  0.00     0.162 HD
HETATM   12  O   UNL     1      -5.906   3.374 -34.322  1.00  0.00    -0.273 OA
BRANCH  10  13
HETATM   13  C   UNL     1      -5.587   5.891 -33.173  1.00  0.00     0.155 C 
BRANCH  13  14
HETATM   14  C   UNL     1      -4.110   5.840 -32.695  1.00  0.00     0.206 C 
HETATM   15  N   UNL     1      -3.238   4.995 -33.621  1.00  0.00    -0.066 N 
HETATM   16  H   UNL     1      -3.885   4.493 -34.266  1.00  0.00     0.280 HD
HETATM   17  C   UNL     1      -2.572   3.928 -32.784  1.00  0.00     0.235 C 
HETATM   18  C   UNL     1      -3.475   3.792 -31.579  1.00  0.00     0.030 C 
HETATM   19  C   UNL     1      -3.922   5.214 -31.313  1.00  0.00     0.036 C 
BRANCH  15  20
HETATM   20  C   UNL     1      -2.323   5.785 -34.508  1.00  0.00     0.231 C 
HETATM   21  C   UNL     1      -1.886   7.067 -33.824  1.00  0.00     0.034 C 
ENDBRANCH  15  20
ENDBRANCH  13  14
ENDBRANCH  10  13
ENDBRANCH   8   9
ENDBRANCH   1   8
BRANCH   2  22
HETATM   22  C   UNL     1      -6.021  -0.365 -32.598  1.00  0.00    -0.005 A 
HETATM   23  C   UNL     1      -4.751  -0.904 -32.837  1.00  0.00     0.017 A 
HETATM   24  C   UNL     1      -4.548  -1.870 -33.833  1.00  0.00     0.043 A 
HETATM   25  C   UNL     1      -5.614  -2.298 -34.610  1.00  0.00     0.116 A 
HETATM   26  F   UNL     1      -5.412  -3.219 -35.560  1.00  0.00    -0.206 F 
HETATM   27  C   UNL     1      -6.882  -1.781 -34.410  1.00  0.00     0.043 A 
HETATM   28  C   UNL     1      -7.081  -0.823 -33.411  1.00  0.00     0.017 A 
ENDBRANCH   2  22
TORSDOF 6
ENDMDL
MODEL 5
REMARK VINA RESULT:      -7.9      4.880      7.911
REMARK  6 active torsions:
REMARK  status: ('A' for Active; 'I' for Inactive)
REMARK    1  A    between atoms: C_2  and  N_3 
REMARK    2  A    between atoms: C_5  and  C_6 
REMARK    3  A    between atoms: C_6  and  N_7 
REMARK       I    between atoms: N_7  and  C_8 
REMARK    4  A    between atoms: C_8  and  C_9 
REMARK    5  A    between atoms: C_9  and  C_10 
REMARK    6  A    between atoms: C_11  and  C_12 
ROOT
HETATM    1  C   UNL     1      -5.620   1.946 -31.607  1.00  0.00     0.006 C 
HETATM    2  C   UNL     1      -5.837   0.519 -31.556  1.00  0.00     0.096 C 
HETATM    3  N   UNL     1      -6.180   0.166 -30.305  1.00  0.00    -0.173 NA
HETATM    4  N   UNL     1      -6.353   1.304 -29.638  1.00  0.00    -0.282 N 
HETATM    5  H   UNL     1      -6.708   1.252 -28.687  1.00  0.00     0.189 HD
HETATM    6  C   UNL     1      -6.002   2.408 -30.352  1.00  0.00     0.033 C 
HETATM    7  C   UNL     1      -6.116   3.768 -29.770  1.00  0.00     0.070 C 
ENDROOT
BRANCH   1   8
HETATM    8  C   UNL     1      -5.132   2.812 -32.723  1.00  0.00     0.146 C 
BRANCH   8   9
HETATM    9  C   UNL     1      -3.694   3.251 -32.469  1.00  0.00     0.222 C 
HETATM   10  N   UNL     1      -3.228   4.286 -33.247  1.00  0.00    -0.359 N 
HETATM   11  H   UNL     1      -3.802   4.592 -34.027  1.00  0.00     0.162 HD
HETATM   12  O   UNL     1      -2.986   2.794 -31.571  1.00  0.00    -0.273 OA
BRANCH  10  13
HETATM   13  C   UNL     1      -1.856   4.777 -33.168  1.00  0.00     0.155 C 
BRANCH  13  14
HETATM   14  C   UNL     1      -1.621   6.016 -32.261  1.00  0.00     0.206 C 
HETATM   15  N   UNL     1      -1.668   5.655 -30.777  1.00  0.00    -0.066 N 
HETATM   16  H   UNL     1      -2.034   4.681 -30.717  1.00  0.00     0.280 HD
HETATM   17  C   UNL     1      -2.708   6.532 -30.120  1.00  0.00     0.235 C 
HETATM   18  C   UNL     1      -3.621   6.932 -31.257  1.00  0.00     0.030 C 
HETATM   19  C   UNL     1      -2.671   7.116 -32.422  1.00  0.00     0.036 C 
BRANCH  15  20
HETATM   20  C   UNL     1      -0.330   5.623 -30.101  1.00  0.00     0.231 C 
HETATM   21  C   UNL     1       0.670   6.487 -30.847  1.00  0.00     0.034 C 
ENDBRANCH  15  20
ENDBRANCH  13  14
ENDBRANCH  10  13
ENDBRANCH   8   9
ENDBRANCH   1   8
BRANCH   2  22
HETATM   22  C   UNL     1      -5.744  -0.549 -32.579  1.00  0.00    -0.005 A 
HETATM   23  C   UNL     1      -4.581  -1.285 -32.834  1.00  0.00     0.017 A 
HETATM   24  C   UNL     1      -4.556  -2.283 -33.819  1.00  0.00     0.043 A 
HETATM   25  C   UNL     1      -5.693  -2.548 -34.568  1.00  0.00     0.116 A 
HETATM   26  F   UNL     1      -5.661  -3.501 -35.506  1.00  0.00    -0.206 F 
HETATM   27  C   UNL     1      -6.859  -1.833 -34.350  1.00  0.00     0.043 A 
HETATM   28  C   UNL     1      -6.882  -0.844 -33.363  1.00  0.00     0.017 A 
ENDBRANCH   2  22
TORSDOF 6
ENDMDL
MODEL 6
REMARK VINA RESULT:      -7.9      4.626      8.002
REMARK  6 active torsions:
REMARK  status: ('A' for Active; 'I' for Inactive)
REMARK    1  A    between atoms: C_2  and  N_3 
REMARK    2  A    between atoms: C_5  and  C_6 
REMARK    3  A    between atoms: C_6  and  N_7 
REMARK       I    between atoms: N_7  and  C_8 
REMARK    4  A    between atoms: C_8  and  C_9 
REMARK    5  A    between atoms: C_9  and  C_10 
REMARK    6  A    between atoms: C_11  and  C_12 
ROOT
HETATM    1  C   UNL     1      -6.321   1.912 -32.263  1.00  0.00     0.006 C 
HETATM    2  C   UNL     1      -6.688   0.515 -32.241  1.00  0.00     0.096 C 
HETATM    3  N   UNL     1      -7.517   0.290 -31.206  1.00  0.00    -0.173 NA
HETATM    4  N   UNL     1      -7.812   1.486 -30.706  1.00  0.00    -0.282 N 
HETATM    5  H   UNL     1      -8.506   1.537 -29.966  1.00  0.00     0.189 HD
HETATM    6  C   UNL     1      -7.103   2.500 -31.275  1.00  0.00     0.033 C 
HETATM    7  C   UNL     1      -7.289   3.905 -30.839  1.00  0.00     0.070 C 
ENDROOT
BRANCH   1   8
HETATM    8  C   UNL     1      -5.358   2.646 -33.139  1.00  0.00     0.146 C 
BRANCH   8   9
HETATM    9  C   UNL     1      -4.009   2.791 -32.444  1.00  0.00     0.222 C 
HETATM   10  N   UNL     1      -3.623   4.074 -32.127  1.00  0.00    -0.359 N 
HETATM   11  H   UNL     1      -4.174   4.842 -32.496  1.00  0.00     0.162 HD
HETATM   12  O   UNL     1      -3.314   1.838 -32.088  1.00  0.00    -0.273 OA
BRANCH  10  13
HETATM   13  C   UNL     1      -2.333   4.381 -31.518  1.00  0.00     0.155 C 
BRANCH  13  14
HETATM   14  C   UNL     1      -1.271   5.026 -32.449  1.00  0.00     0.206 C 
HETATM   15  N   UNL     1      -0.943   6.460 -32.036  1.00  0.00    -0.066 N 
HETATM   16  H   UNL     1      -1.654   6.737 -31.326  1.00  0.00     0.280 HD
HETATM   17  C   UNL     1      -1.179   7.352 -33.233  1.00  0.00     0.235 C 
HETATM   18  C   UNL     1      -2.157   6.572 -34.083  1.00  0.00     0.030 C 
HETATM   19  C   UNL     1      -1.705   5.137 -33.911  1.00  0.00     0.036 C 
BRANCH  15  20
HETATM   20  C   UNL     1       0.384   6.626 -31.359  1.00  0.00     0.231 C 
HETATM   21  C   UNL     1       0.203   7.120 -29.936  1.00  0.00     0.034 C 
ENDBRANCH  15  20
ENDBRANCH  13  14
ENDBRANCH  10  13
ENDBRANCH   8   9
ENDBRANCH   1   8
BRANCH   2  22
HETATM   22  C   UNL     1      -6.324  -0.634 -33.102  1.00  0.00    -0.005 A 
HETATM   23  C   UNL     1      -7.237  -1.326 -33.906  1.00  0.00     0.017 A 
HETATM   24  C   UNL     1      -6.831  -2.410 -34.699  1.00  0.00     0.043 A 
HETATM   25  C   UNL     1      -5.506  -2.820 -34.686  1.00  0.00     0.116 A 
HETATM   26  F   UNL     1      -5.127  -3.856 -35.444  1.00  0.00    -0.206 F 
HETATM   27  C   UNL     1      -4.576  -2.166 -33.896  1.00  0.00     0.043 A 
HETATM   28  C   UNL     1      -4.984  -1.082 -33.112  1.00  0.00     0.017 A 
ENDBRANCH   2  22
TORSDOF 6
ENDMDL
MODEL 7
REMARK VINA RESULT:      -7.8      1.439      2.128
REMARK  6 active torsions:
REMARK  status: ('A' for Active; 'I' for Inactive)
REMARK    1  A    between atoms: C_2  and  N_3 
REMARK    2  A    between atoms: C_5  and  C_6 
REMARK    3  A    between atoms: C_6  and  N_7 
REMARK       I    between atoms: N_7  and  C_8 
REMARK    4  A    between atoms: C_8  and  C_9 
REMARK    5  A    between atoms: C_9  and  C_10 
REMARK    6  A    between atoms: C_11  and  C_12 
ROOT
HETATM    1  C   UNL     1      -5.928   1.274 -32.922  1.00  0.00     0.006 C 
HETATM    2  C   UNL     1      -5.252  -0.002 -32.906  1.00  0.00     0.096 C 
HETATM    3  N   UNL     1      -4.206   0.059 -32.063  1.00  0.00    -0.173 NA
HETATM    4  N   UNL     1      -4.307   1.230 -31.439  1.00  0.00    -0.282 N 
HETATM    5  H   UNL     1      -3.654   1.429 -30.687  1.00  0.00     0.189 HD
HETATM    6  C   UNL     1      -5.300   2.020 -31.931  1.00  0.00     0.033 C 
HETATM    7  C   UNL     1      -5.558   3.368 -31.368  1.00  0.00     0.070 C 
ENDROOT
BRANCH   1   8
HETATM    8  C   UNL     1      -7.072   1.753 -33.756  1.00  0.00     0.146 C 
BRANCH   8   9
HETATM    9  C   UNL     1      -8.400   1.366 -33.115  1.00  0.00     0.222 C 
HETATM   10  N   UNL     1      -9.427   1.063 -33.979  1.00  0.00    -0.359 N 
HETATM   11  H   UNL     1      -9.290   1.253 -34.966  1.00  0.00     0.162 HD
HETATM   12  O   UNL     1      -8.562   1.232 -31.901  1.00  0.00    -0.273 OA
BRANCH  10  13
HETATM   13  C   UNL     1     -10.773   0.736 -33.520  1.00  0.00     0.155 C 
BRANCH  13  14
HETATM   14  C   UNL     1     -11.899   1.719 -33.940  1.00  0.00     0.206 C 
HETATM   15  N   UNL     1     -12.537   2.407 -32.735  1.00  0.00    -0.066 N 
HETATM   16  H   UNL     1     -12.187   1.912 -31.887  1.00  0.00     0.280 HD
HETATM   17  C   UNL     1     -14.025   2.145 -32.785  1.00  0.00     0.235 C 
HETATM   18  C   UNL     1     -14.146   0.887 -33.616  1.00  0.00     0.030 C 
HETATM   19  C   UNL     1     -13.069   1.056 -34.668  1.00  0.00     0.036 C 
BRANCH  15  20
HETATM   20  C   UNL     1     -12.140   3.841 -32.553  1.00  0.00     0.231 C 
HETATM   21  C   UNL     1     -10.964   3.957 -31.602  1.00  0.00     0.034 C 
ENDBRANCH  15  20
ENDBRANCH  13  14
ENDBRANCH  10  13
ENDBRANCH   8   9
ENDBRANCH   1   8
BRANCH   2  22
HETATM   22  C   UNL     1      -5.496  -1.278 -33.619  1.00  0.00    -0.005 A 
HETATM   23  C   UNL     1      -6.769  -1.748 -33.965  1.00  0.00     0.017 A 
HETATM   24  C   UNL     1      -6.934  -2.967 -34.638  1.00  0.00     0.043 A 
HETATM   25  C   UNL     1      -5.827  -3.736 -34.962  1.00  0.00     0.116 A 
HETATM   26  F   UNL     1      -5.994  -4.899 -35.603  1.00  0.00    -0.206 F 
HETATM   27  C   UNL     1      -4.553  -3.309 -34.627  1.00  0.00     0.043 A 
HETATM   28  C   UNL     1      -4.392  -2.090 -33.962  1.00  0.00     0.017 A 
ENDBRANCH   2  22
TORSDOF 6
ENDMDL
MODEL 8
REMARK VINA RESULT:      -7.7      1.721      2.136
REMARK  6 active torsions:
REMARK  status: ('A' for Active; 'I' for Inactive)
REMARK    1  A    between atoms: C_2  and  N_3 
REMARK    2  A    between atoms: C_5  and  C_6 
REMARK    3  A    between atoms: C_6  and  N_7 
REMARK       I    between atoms: N_7  and  C_8 
REMARK    4  A    between atoms: C_8  and  C_9 
REMARK    5  A    between atoms: C_9  and  C_10 
REMARK    6  A    between atoms: C_11  and  C_12 
ROOT
HETATM    1  C   UNL     1      -6.005   0.633 -32.053  1.00  0.00     0.006 C 
HETATM    2  C   UNL     1      -5.147  -0.226 -32.835  1.00  0.00     0.096 C 
HETATM    3  N   UNL     1      -3.909   0.299 -32.875  1.00  0.00    -0.173 NA
HETATM    4  N   UNL     1      -3.920   1.325 -32.028  1.00  0.00    -0.282 N 
HETATM    5  H   UNL     1      -3.042   1.803 -31.845  1.00  0.00     0.189 HD
HETATM    6  C   UNL     1      -5.155   1.599 -31.526  1.00  0.00     0.033 C 
HETATM    7  C   UNL     1      -5.365   2.716 -30.573  1.00  0.00     0.070 C 
ENDROOT
BRANCH   1   8
HETATM    8  C   UNL     1      -7.474   0.554 -31.791  1.00  0.00     0.146 C 
BRANCH   8   9
HETATM    9  C   UNL     1      -8.241   1.429 -32.776  1.00  0.00     0.222 C 
HETATM   10  N   UNL     1      -9.012   2.429 -32.229  1.00  0.00    -0.359 N 
HETATM   11  H   UNL     1      -9.140   2.434 -31.222  1.00  0.00     0.162 HD
HETATM   12  O   UNL     1      -8.135   1.337 -34.000  1.00  0.00    -0.273 OA
BRANCH  10  13
HETATM   13  C   UNL     1      -9.852   3.308 -33.035  1.00  0.00     0.155 C 
BRANCH  13  14
HETATM   14  C   UNL     1     -11.326   2.860 -33.229  1.00  0.00     0.206 C 
HETATM   15  N   UNL     1     -11.444   1.677 -34.187  1.00  0.00    -0.066 N 
HETATM   16  H   UNL     1     -10.510   1.561 -34.636  1.00  0.00     0.280 HD
HETATM   17  C   UNL     1     -12.393   2.070 -35.295  1.00  0.00     0.235 C 
HETATM   18  C   UNL     1     -12.342   3.581 -35.301  1.00  0.00     0.030 C 
HETATM   19  C   UNL     1     -12.232   3.935 -33.832  1.00  0.00     0.036 C 
BRANCH  15  20
HETATM   20  C   UNL     1     -11.734   0.364 -33.524  1.00  0.00     0.231 C 
HETATM   21  C   UNL     1     -13.199   0.000 -33.671  1.00  0.00     0.034 C 
ENDBRANCH  15  20
ENDBRANCH  13  14
ENDBRANCH  10  13
ENDBRANCH   8   9
ENDBRANCH   1   8
BRANCH   2  22
HETATM   22  C   UNL     1      -5.385  -1.497 -33.558  1.00  0.00    -0.005 A 
HETATM   23  C   UNL     1      -6.630  -1.880 -34.072  1.00  0.00     0.017 A 
HETATM   24  C   UNL     1      -6.793  -3.100 -34.745  1.00  0.00     0.043 A 
HETATM   25  C   UNL     1      -5.713  -3.956 -34.900  1.00  0.00     0.116 A 
HETATM   26  F   UNL     1      -5.877  -5.118 -35.543  1.00  0.00    -0.206 F 
HETATM   27  C   UNL     1      -4.469  -3.615 -34.397  1.00  0.00     0.043 A 
HETATM   28  C   UNL     1      -4.309  -2.396 -33.733  1.00  0.00     0.017 A 
ENDBRANCH   2  22
TORSDOF 6
ENDMDL
MODEL 9
REMARK VINA RESULT:      -7.4     15.159     17.981
REMARK  6 active torsions:
REMARK  status: ('A' for Active; 'I' for Inactive)
REMARK    1  A    between atoms: C_2  and  N_3 
REMARK    2  A    between atoms: C_5  and  C_6 
REMARK    3  A    between atoms: C_6  and  N_7 
REMARK       I    between atoms: N_7  and  C_8 
REMARK    4  A    between atoms: C_8  and  C_9 
REMARK    5  A    between atoms: C_9  and  C_10 
REMARK    6  A    between atoms: C_11  and  C_12 
ROOT
HETATM    1  C   UNL     1      -5.834 -12.704 -39.106  1.00  0.00     0.006 C 
HETATM    2  C   UNL     1      -7.111 -13.133 -38.587  1.00  0.00     0.096 C 
HETATM    3  N   UNL     1      -6.982 -13.437 -37.284  1.00  0.00    -0.173 NA
HETATM    4  N   UNL     1      -5.754 -13.057 -36.940  1.00  0.00    -0.282 N 
HETATM    5  H   UNL     1      -5.491 -13.119 -35.960  1.00  0.00     0.189 HD
HETATM    6  C   UNL     1      -5.002 -12.638 -37.994  1.00  0.00     0.033 C 
HETATM    7  C   UNL     1      -3.602 -12.186 -37.807  1.00  0.00     0.070 C 
ENDROOT
BRANCH   1   8
HETATM    8  C   UNL     1      -5.423 -12.356 -40.501  1.00  0.00     0.146 C 
BRANCH   8   9
HETATM    9  C   UNL     1      -4.645 -13.506 -41.131  1.00  0.00     0.222 C 
HETATM   10  N   UNL     1      -3.275 -13.449 -41.015  1.00  0.00    -0.359 N 
HETATM   11  H   UNL     1      -2.863 -12.593 -40.657  1.00  0.00     0.162 HD
HETATM   12  O   UNL     1      -5.175 -14.493 -41.644  1.00  0.00    -0.273 OA
BRANCH  10  13
HETATM   13  C   UNL     1      -2.391 -14.440 -41.619  1.00  0.00     0.155 C 
BRANCH  13  14
HETATM   14  C   UNL     1      -1.592 -15.338 -40.635  1.00  0.00     0.206 C 
HETATM   15  N   UNL     1      -2.192 -15.321 -39.230  1.00  0.00    -0.066 N 
HETATM   16  H   UNL     1      -2.900 -14.557 -39.216  1.00  0.00     0.280 HD
HETATM   17  C   UNL     1      -1.106 -14.902 -38.267  1.00  0.00     0.235 C 
HETATM   18  C   UNL     1      -0.126 -14.141 -39.131  1.00  0.00     0.030 C 
HETATM   19  C   UNL     1      -0.138 -14.908 -40.436  1.00  0.00     0.036 C 
BRANCH  15  20
HETATM   20  C   UNL     1      -2.940 -16.567 -38.858  1.00  0.00     0.231 C 
HETATM   21  C   UNL     1      -4.406 -16.261 -38.618  1.00  0.00     0.034 C 
ENDBRANCH  15  20
ENDBRANCH  13  14
ENDBRANCH  10  13
ENDBRANCH   8   9
ENDBRANCH   1   8
BRANCH   2  22
HETATM   22  C   UNL     1      -8.448 -13.290 -39.207  1.00  0.00    -0.005 A 
HETATM   23  C   UNL     1      -9.060 -14.528 -39.438  1.00  0.00     0.017 A 
HETATM   24  C   UNL     1     -10.327 -14.612 -40.032  1.00  0.00     0.043 A 
HETATM   25  C   UNL     1     -10.991 -13.456 -40.414  1.00  0.00     0.116 A 
HETATM   26  F   UNL     1     -12.200 -13.544 -40.982  1.00  0.00    -0.206 F 
HETATM   27  C   UNL     1     -10.414 -12.214 -40.211  1.00  0.00     0.043 A 
HETATM   28  C   UNL     1      -9.153 -12.135 -39.612  1.00  0.00     0.017 A 
ENDBRANCH   2  22
TORSDOF 6
ENDMDL
MODEL 10
REMARK VINA RESULT:      -7.4      2.378      3.200
REMARK  6 active torsions:
REMARK  status: ('A' for Active; 'I' for Inactive)
REMARK    1  A    between atoms: C_2  and  N_3 
REMARK    2  A    between atoms: C_5  and  C_6 
REMARK    3  A    between atoms: C_6  and  N_7 
REMARK       I    between atoms: N_7  and  C_8 
REMARK    4  A    between atoms: C_8  and  C_9 
REMARK    5  A    between atoms: C_9  and  C_10 
REMARK    6  A    between atoms: C_11  and  C_12 
ROOT
HETATM    1  C   UNL     1      -5.023   0.959 -32.778  1.00  0.00     0.006 C 
HETATM    2  C   UNL     1      -4.636  -0.430 -32.857  1.00  0.00     0.096 C 
HETATM    3  N   UNL     1      -3.539  -0.628 -32.104  1.00  0.00    -0.173 NA
HETATM    4  N   UNL     1      -3.340   0.507 -31.441  1.00  0.00    -0.282 N 
HETATM    5  H   UNL     1      -2.604   0.529 -30.741  1.00  0.00     0.189 HD
HETATM    6  C   UNL     1      -4.177   1.510 -31.823  1.00  0.00     0.033 C 
HETATM    7  C   UNL     1      -4.097   2.855 -31.202  1.00  0.00     0.070 C 
ENDROOT
BRANCH   1   8
HETATM    8  C   UNL     1      -6.099   1.706 -33.499  1.00  0.00     0.146 C 
BRANCH   8   9
HETATM    9  C   UNL     1      -7.449   1.476 -32.828  1.00  0.00     0.222 C 
HETATM   10  N   UNL     1      -8.533   1.359 -33.668  1.00  0.00    -0.359 N 
HETATM   11  H   UNL     1      -8.399   1.573 -34.651  1.00  0.00     0.162 HD
HETATM   12  O   UNL     1      -7.593   1.311 -31.616  1.00  0.00    -0.273 OA
BRANCH  10  13
HETATM   13  C   UNL     1      -9.897   1.200 -33.177  1.00  0.00     0.155 C 
BRANCH  13  14
HETATM   14  C   UNL     1     -10.778   2.479 -33.172  1.00  0.00     0.206 C 
HETATM   15  N   UNL     1     -10.537   3.345 -34.407  1.00  0.00    -0.066 N 
HETATM   16  H   UNL     1      -9.692   2.961 -34.881  1.00  0.00     0.280 HD
HETATM   17  C   UNL     1     -10.157   4.729 -33.936  1.00  0.00     0.235 C 
HETATM   18  C   UNL     1      -9.622   4.506 -32.539  1.00  0.00     0.030 C 
HETATM   19  C   UNL     1     -10.517   3.414 -31.990  1.00  0.00     0.036 C 
BRANCH  15  20
HETATM   20  C   UNL     1     -11.631   3.289 -35.431  1.00  0.00     0.231 C 
HETATM   21  C   UNL     1     -12.667   4.365 -35.169  1.00  0.00     0.034 C 
ENDBRANCH  15  20
ENDBRANCH  13  14
ENDBRANCH  10  13
ENDBRANCH   8   9
ENDBRANCH   1   8
BRANCH   2  22
HETATM   22  C   UNL     1      -5.199  -1.592 -33.583  1.00  0.00    -0.005 A 
HETATM   23  C   UNL     1      -6.551  -1.717 -33.924  1.00  0.00     0.017 A 
HETATM   24  C   UNL     1      -7.025  -2.844 -34.611  1.00  0.00     0.043 A 
HETATM   25  C   UNL     1      -6.152  -3.866 -34.953  1.00  0.00     0.116 A 
HETATM   26  F   UNL     1      -6.612  -4.939 -35.607  1.00  0.00    -0.206 F 
HETATM   27  C   UNL     1      -4.809  -3.782 -34.624  1.00  0.00     0.043 A 
HETATM   28  C   UNL     1      -4.340  -2.653 -33.946  1.00  0.00     0.017 A 
ENDBRANCH   2  22
TORSDOF 6
ENDMDL
