MODEL 1
REMARK VINA RESULT:      -8.3      0.000      0.000
REMARK  4 active torsions:
REMARK  status: ('A' for Active; 'I' for Inactive)
REMARK    1  A    between atoms: N_2  and  C_3 
REMARK    2  A    between atoms: C_9  and  N_10 
REMARK       I    between atoms: N_10  and  C_11 
REMARK    3  A    between atoms: C_11  and  C_12 
REMARK    4  A    between atoms: C_12  and  C_13 
ROOT
HETATM    1  N   UNL     1      -5.172   2.699 -33.313  1.00  0.00    -0.327 N 
HETATM    2  C   UNL     1      -6.031   1.766 -32.756  1.00  0.00     0.227 C 
HETATM    3  O   UNL     1      -6.195   1.558 -31.554  1.00  0.00    -0.273 OA
HETATM    4  H   UNL     1      -5.084   2.718 -34.324  1.00  0.00     0.169 HD
ENDROOT
BRANCH   1   5
HETATM    5  C   UNL     1      -4.369   3.643 -32.631  1.00  0.00     0.037 A 
HETATM    6  C   UNL     1      -3.009   3.445 -32.355  1.00  0.00     0.069 A 
HETATM    7  C   UNL     1      -2.376   4.457 -31.638  1.00  0.00     0.110 A 
HETATM    8  O   UNL     1      -1.077   4.490 -31.227  1.00  0.00    -0.276 OA
HETATM    9  C   UNL     1      -2.982   5.620 -31.203  1.00  0.00     0.095 A 
HETATM   10  C   UNL     1      -0.967   5.679 -30.547  1.00  0.00     0.249 A 
HETATM   11  N   UNL     1      -2.079   6.388 -30.520  1.00  0.00    -0.206 NA
HETATM   12  C   UNL     1      -4.332   5.825 -31.493  1.00  0.00     0.037 A 
HETATM   13  C   UNL     1      -5.013   4.821 -32.205  1.00  0.00     0.032 A 
BRANCH  10  14
HETATM   14  N   UNL     1       0.228   5.967 -29.978  1.00  0.00    -0.354 N 
HETATM   15  C   UNL     1       0.405   7.261 -29.343  1.00  0.00     0.152 C 
HETATM   16  C   UNL     1       0.953   4.850 -29.394  1.00  0.00     0.152 C 
ENDBRANCH  10  14
ENDBRANCH   1   5
BRANCH   2  17
HETATM   17  C   UNL     1      -6.804   0.987 -33.806  1.00  0.00     0.161 C 
BRANCH  17  18
HETATM   18  C   UNL     1      -6.319  -0.402 -33.985  1.00  0.00     0.035 A 
HETATM   19  N   UNL     1      -7.079  -1.436 -34.523  1.00  0.00    -0.344 N 
HETATM   20  H   UNL     1      -8.046  -1.310 -34.844  1.00  0.00     0.167 HD
HETATM   21  C   UNL     1      -6.396  -2.573 -34.554  1.00  0.00     0.111 A 
HETATM   22  N   UNL     1      -5.172  -2.314 -34.055  1.00  0.00    -0.317 N 
HETATM   23  C   UNL     1      -6.774  -3.930 -35.013  1.00  0.00     0.049 A 
HETATM   24  C   UNL     1      -5.096  -0.979 -33.701  1.00  0.00     0.123 A 
HETATM   25  C   UNL     1      -4.196  -3.284 -33.945  1.00  0.00     0.098 A 
HETATM   26  C   UNL     1      -4.512  -4.528 -34.355  1.00  0.00     0.018 A 
HETATM   27  C   UNL     1      -5.823  -4.876 -34.901  1.00  0.00     0.005 A 
ENDBRANCH  17  18
ENDBRANCH   2  17
TORSDOF 4
ENDMDL
MODEL 2
REMARK VINA RESULT:      -8.2      4.711      8.126
REMARK  4 active torsions:
REMARK  status: ('A' for Active; 'I' for Inactive)
REMARK    1  A    between atoms: N_2  and  C_3 
REMARK    2  A    between atoms: C_9  and  N_10 
REMARK       I    between atoms: N_10  and  C_11 
REMARK    3  A    between atoms: C_11  and  C_12 
REMARK    4  A    between atoms: C_12  and  C_13 
ROOT
HETATM    1  N   UNL     1      -7.667   1.778 -33.542  1.00  0.00    -0.327 N 
HETATM    2  C   UNL     1      -6.818   1.211 -32.606  1.00  0.00     0.227 C 
HETATM    3  O   UNL     1      -7.084   0.991 -31.425  1.00  0.00    -0.273 OA
HETATM    4  H   UNL     1      -7.295   1.966 -34.467  1.00  0.00     0.169 HD
ENDROOT
BRANCH   1   5
HETATM    5  C   UNL     1      -9.020   2.150 -33.361  1.00  0.00     0.037 A 
HETATM    6  C   UNL     1     -10.096   1.274 -33.565  1.00  0.00     0.069 A 
HETATM    7  C   UNL     1     -11.367   1.814 -33.383  1.00  0.00     0.110 A 
HETATM    8  O   UNL     1     -12.563   1.181 -33.542  1.00  0.00    -0.276 OA
HETATM    9  C   UNL     1     -11.630   3.119 -33.013  1.00  0.00     0.095 A 
HETATM   10  C   UNL     1     -13.498   2.150 -33.269  1.00  0.00     0.249 A 
HETATM   11  N   UNL     1     -12.981   3.317 -32.938  1.00  0.00    -0.206 NA
HETATM   12  C   UNL     1     -10.557   3.986 -32.794  1.00  0.00     0.037 A 
HETATM   13  C   UNL     1      -9.256   3.485 -32.979  1.00  0.00     0.032 A 
BRANCH  10  14
HETATM   14  N   UNL     1     -14.804   1.813 -33.392  1.00  0.00    -0.354 N 
HETATM   15  C   UNL     1     -15.159   0.700 -34.257  1.00  0.00     0.152 C 
HETATM   16  C   UNL     1     -15.639   2.019 -32.220  1.00  0.00     0.152 C 
ENDBRANCH  10  14
ENDBRANCH   1   5
BRANCH   2  17
HETATM   17  C   UNL     1      -5.463   0.854 -33.192  1.00  0.00     0.161 C 
BRANCH  17  18
HETATM   18  C   UNL     1      -5.332  -0.581 -33.544  1.00  0.00     0.035 A 
HETATM   19  N   UNL     1      -6.290  -1.309 -34.242  1.00  0.00    -0.344 N 
HETATM   20  H   UNL     1      -7.171  -0.899 -34.573  1.00  0.00     0.167 HD
HETATM   21  C   UNL     1      -5.913  -2.570 -34.407  1.00  0.00     0.111 A 
HETATM   22  N   UNL     1      -4.699  -2.698 -33.839  1.00  0.00    -0.317 N 
HETATM   23  C   UNL     1      -6.588  -3.717 -35.059  1.00  0.00     0.049 A 
HETATM   24  C   UNL     1      -4.314  -1.483 -33.304  1.00  0.00     0.123 A 
HETATM   25  C   UNL     1      -4.006  -3.894 -33.832  1.00  0.00     0.098 A 
HETATM   26  C   UNL     1      -4.597  -4.953 -34.418  1.00  0.00     0.018 A 
HETATM   27  C   UNL     1      -5.914  -4.882 -35.048  1.00  0.00     0.005 A 
ENDBRANCH  17  18
ENDBRANCH   2  17
TORSDOF 4
ENDMDL
MODEL 3
REMARK VINA RESULT:      -7.9      2.038      8.557
REMARK  4 active torsions:
REMARK  status: ('A' for Active; 'I' for Inactive)
REMARK    1  A    between atoms: N_2  and  C_3 
REMARK    2  A    between atoms: C_9  and  N_10 
REMARK       I    between atoms: N_10  and  C_11 
REMARK    3  A    between atoms: C_11  and  C_12 
REMARK    4  A    between atoms: C_12  and  C_13 
ROOT
HETATM    1  N   UNL     1      -6.156   2.803 -33.270  1.00  0.00    -0.327 N 
HETATM    2  C   UNL     1      -6.581   3.316 -32.057  1.00  0.00     0.227 C 
HETATM    3  O   UNL     1      -7.071   2.673 -31.129  1.00  0.00    -0.273 OA
HETATM    4  H   UNL     1      -5.834   3.459 -33.975  1.00  0.00     0.169 HD
ENDROOT
BRANCH   1   5
HETATM    5  C   UNL     1      -6.126   1.446 -33.666  1.00  0.00     0.037 A 
HETATM    6  C   UNL     1      -5.202   0.516 -33.167  1.00  0.00     0.069 A 
HETATM    7  C   UNL     1      -5.285  -0.771 -33.694  1.00  0.00     0.110 A 
HETATM    8  O   UNL     1      -4.492  -1.838 -33.393  1.00  0.00    -0.276 OA
HETATM    9  C   UNL     1      -6.200  -1.184 -34.643  1.00  0.00     0.095 A 
HETATM   10  C   UNL     1      -4.968  -2.849 -34.194  1.00  0.00     0.249 A 
HETATM   11  N   UNL     1      -5.994  -2.502 -34.945  1.00  0.00    -0.206 NA
HETATM   12  C   UNL     1      -7.130  -0.262 -35.127  1.00  0.00     0.037 A 
HETATM   13  C   UNL     1      -7.075   1.053 -34.631  1.00  0.00     0.032 A 
BRANCH  10  14
HETATM   14  N   UNL     1      -4.331  -4.043 -34.139  1.00  0.00    -0.354 N 
HETATM   15  C   UNL     1      -3.384  -4.280 -33.063  1.00  0.00     0.152 C 
HETATM   16  C   UNL     1      -5.076  -5.197 -34.618  1.00  0.00     0.152 C 
ENDBRANCH  10  14
ENDBRANCH   1   5
BRANCH   2  17
HETATM   17  C   UNL     1      -6.373   4.818 -31.955  1.00  0.00     0.161 C 
BRANCH  17  18
HETATM   18  C   UNL     1      -4.947   5.221 -32.014  1.00  0.00     0.035 A 
HETATM   19  N   UNL     1      -4.429   6.149 -32.912  1.00  0.00    -0.344 N 
HETATM   20  H   UNL     1      -5.007   6.633 -33.608  1.00  0.00     0.167 HD
HETATM   21  C   UNL     1      -3.123   6.306 -32.745  1.00  0.00     0.111 A 
HETATM   22  N   UNL     1      -2.753   5.503 -31.729  1.00  0.00    -0.317 N 
HETATM   23  C   UNL     1      -2.140   7.155 -33.458  1.00  0.00     0.049 A 
HETATM   24  C   UNL     1      -3.863   4.825 -31.256  1.00  0.00     0.123 A 
HETATM   25  C   UNL     1      -1.448   5.422 -31.285  1.00  0.00     0.098 A 
HETATM   26  C   UNL     1      -0.533   6.183 -31.916  1.00  0.00     0.018 A 
HETATM   27  C   UNL     1      -0.867   7.072 -33.027  1.00  0.00     0.005 A 
ENDBRANCH  17  18
ENDBRANCH   2  17
TORSDOF 4
ENDMDL
MODEL 4
REMARK VINA RESULT:      -7.8      1.628      9.030
REMARK  4 active torsions:
REMARK  status: ('A' for Active; 'I' for Inactive)
REMARK    1  A    between atoms: N_2  and  C_3 
REMARK    2  A    between atoms: C_9  and  N_10 
REMARK       I    between atoms: N_10  and  C_11 
REMARK    3  A    between atoms: C_11  and  C_12 
REMARK    4  A    between atoms: C_12  and  C_13 
ROOT
HETATM    1  N   UNL     1      -5.689   3.010 -32.365  1.00  0.00    -0.327 N 
HETATM    2  C   UNL     1      -5.130   4.170 -32.873  1.00  0.00     0.227 C 
HETATM    3  O   UNL     1      -4.673   4.320 -34.006  1.00  0.00    -0.273 OA
HETATM    4  H   UNL     1      -5.965   3.004 -31.388  1.00  0.00     0.169 HD
ENDROOT
BRANCH   1   5
HETATM    5  C   UNL     1      -5.917   1.794 -33.051  1.00  0.00     0.037 A 
HETATM    6  C   UNL     1      -5.180   0.624 -32.817  1.00  0.00     0.069 A 
HETATM    7  C   UNL     1      -5.507  -0.474 -33.609  1.00  0.00     0.110 A 
HETATM    8  O   UNL     1      -4.925  -1.706 -33.592  1.00  0.00    -0.276 OA
HETATM    9  C   UNL     1      -6.491  -0.489 -34.579  1.00  0.00     0.095 A 
HETATM   10  C   UNL     1      -5.588  -2.407 -34.571  1.00  0.00     0.249 A 
HETATM   11  N   UNL     1      -6.538  -1.719 -35.174  1.00  0.00    -0.206 NA
HETATM   12  C   UNL     1      -7.236   0.671 -34.800  1.00  0.00     0.037 A 
HETATM   13  C   UNL     1      -6.931   1.808 -34.030  1.00  0.00     0.032 A 
BRANCH  10  14
HETATM   14  N   UNL     1      -5.186  -3.677 -34.813  1.00  0.00    -0.354 N 
HETATM   15  C   UNL     1      -4.054  -4.205 -34.070  1.00  0.00     0.152 C 
HETATM   16  C   UNL     1      -6.225  -4.627 -35.179  1.00  0.00     0.152 C 
ENDBRANCH  10  14
ENDBRANCH   1   5
BRANCH   2  17
HETATM   17  C   UNL     1      -5.137   5.308 -31.866  1.00  0.00     0.161 C 
BRANCH  17  18
HETATM   18  C   UNL     1      -3.781   5.709 -31.420  1.00  0.00     0.035 A 
HETATM   19  N   UNL     1      -2.599   5.160 -31.906  1.00  0.00    -0.344 N 
HETATM   20  H   UNL     1      -2.579   4.426 -32.624  1.00  0.00     0.167 HD
HETATM   21  C   UNL     1      -1.538   5.701 -31.322  1.00  0.00     0.111 A 
HETATM   22  N   UNL     1      -1.991   6.625 -30.454  1.00  0.00    -0.317 N 
HETATM   23  C   UNL     1      -0.089   5.439 -31.487  1.00  0.00     0.049 A 
HETATM   24  C   UNL     1      -3.374   6.654 -30.499  1.00  0.00     0.123 A 
HETATM   25  C   UNL     1      -1.145   7.386 -29.672  1.00  0.00     0.098 A 
HETATM   26  C   UNL     1       0.178   7.169 -29.803  1.00  0.00     0.018 A 
HETATM   27  C   UNL     1       0.735   6.179 -30.723  1.00  0.00     0.005 A 
ENDBRANCH  17  18
ENDBRANCH   2  17
TORSDOF 4
ENDMDL
MODEL 5
REMARK VINA RESULT:      -7.8      3.280      4.720
REMARK  4 active torsions:
REMARK  status: ('A' for Active; 'I' for Inactive)
REMARK    1  A    between atoms: N_2  and  C_3 
REMARK    2  A    between atoms: C_9  and  N_10 
REMARK       I    between atoms: N_10  and  C_11 
REMARK    3  A    between atoms: C_11  and  C_12 
REMARK    4  A    between atoms: C_12  and  C_13 
ROOT
HETATM    1  N   UNL     1      -6.075   1.606 -32.756  1.00  0.00    -0.327 N 
HETATM    2  C   UNL     1      -7.139   1.489 -31.878  1.00  0.00     0.227 C 
HETATM    3  O   UNL     1      -7.362   2.213 -30.907  1.00  0.00    -0.273 OA
HETATM    4  H   UNL     1      -5.974   0.897 -33.476  1.00  0.00     0.169 HD
ENDROOT
BRANCH   1   5
HETATM    5  C   UNL     1      -5.077   2.608 -32.769  1.00  0.00     0.037 A 
HETATM    6  C   UNL     1      -3.914   2.550 -31.987  1.00  0.00     0.069 A 
HETATM    7  C   UNL     1      -3.054   3.641 -32.088  1.00  0.00     0.110 A 
HETATM    8  O   UNL     1      -1.883   3.833 -31.419  1.00  0.00    -0.276 OA
HETATM    9  C   UNL     1      -3.261   4.743 -32.895  1.00  0.00     0.095 A 
HETATM   10  C   UNL     1      -1.443   5.061 -31.852  1.00  0.00     0.249 A 
HETATM   11  N   UNL     1      -2.231   5.631 -32.742  1.00  0.00    -0.206 NA
HETATM   12  C   UNL     1      -4.411   4.793 -33.686  1.00  0.00     0.037 A 
HETATM   13  C   UNL     1      -5.313   3.717 -33.606  1.00  0.00     0.032 A 
BRANCH  10  14
HETATM   14  N   UNL     1      -0.297   5.542 -31.313  1.00  0.00    -0.354 N 
HETATM   15  C   UNL     1       0.077   6.920 -31.583  1.00  0.00     0.152 C 
HETATM   16  C   UNL     1       0.083   5.005 -30.016  1.00  0.00     0.152 C 
ENDBRANCH  10  14
ENDBRANCH   1   5
BRANCH   2  17
HETATM   17  C   UNL     1      -8.064   0.338 -32.236  1.00  0.00     0.161 C 
BRANCH  17  18
HETATM   18  C   UNL     1      -9.317   0.773 -32.898  1.00  0.00     0.035 A 
HETATM   19  N   UNL     1     -10.532   0.101 -32.801  1.00  0.00    -0.344 N 
HETATM   20  H   UNL     1     -10.652  -0.757 -32.251  1.00  0.00     0.167 HD
HETATM   21  C   UNL     1     -11.478   0.709 -33.504  1.00  0.00     0.111 A 
HETATM   22  N   UNL     1     -10.918   1.797 -34.065  1.00  0.00    -0.317 N 
HETATM   23  C   UNL     1     -12.905   0.372 -33.723  1.00  0.00     0.049 A 
HETATM   24  C   UNL     1      -9.585   1.864 -33.702  1.00  0.00     0.123 A 
HETATM   25  C   UNL     1     -11.630   2.667 -34.869  1.00  0.00     0.098 A 
HETATM   26  C   UNL     1     -12.929   2.385 -35.084  1.00  0.00     0.018 A 
HETATM   27  C   UNL     1     -13.596   1.218 -34.509  1.00  0.00     0.005 A 
ENDBRANCH  17  18
ENDBRANCH   2  17
TORSDOF 4
ENDMDL
MODEL 6
REMARK VINA RESULT:      -7.6      3.956      7.136
REMARK  4 active torsions:
REMARK  status: ('A' for Active; 'I' for Inactive)
REMARK    1  A    between atoms: N_2  and  C_3 
REMARK    2  A    between atoms: C_9  and  N_10 
REMARK       I    between atoms: N_10  and  C_11 
REMARK    3  A    between atoms: C_11  and  C_12 
REMARK    4  A    between atoms: C_12  and  C_13 
ROOT
HETATM    1  N   UNL     1      -6.208   1.300 -31.666  1.00  0.00    -0.327 N 
HETATM    2  C   UNL     1      -5.085   1.757 -32.334  1.00  0.00     0.227 C 
HETATM    3  O   UNL     1      -5.050   2.681 -33.147  1.00  0.00    -0.273 OA
HETATM    4  H   UNL     1      -6.107   0.482 -31.073  1.00  0.00     0.169 HD
ENDROOT
BRANCH   1   5
HETATM    5  C   UNL     1      -7.517   1.834 -31.720  1.00  0.00     0.037 A 
HETATM    6  C   UNL     1      -8.470   1.450 -32.674  1.00  0.00     0.069 A 
HETATM    7  C   UNL     1      -9.698   2.105 -32.611  1.00  0.00     0.110 A 
HETATM    8  O   UNL     1     -10.769   1.930 -33.434  1.00  0.00    -0.276 OA
HETATM    9  C   UNL     1     -10.033   3.076 -31.687  1.00  0.00     0.095 A 
HETATM   10  C   UNL     1     -11.704   2.823 -32.966  1.00  0.00     0.249 A 
HETATM   11  N   UNL     1     -11.307   3.516 -31.918  1.00  0.00    -0.206 NA
HETATM   12  C   UNL     1      -9.089   3.445 -30.726  1.00  0.00     0.037 A 
HETATM   13  C   UNL     1      -7.832   2.817 -30.761  1.00  0.00     0.032 A 
BRANCH  10  14
HETATM   14  N   UNL     1     -12.881   2.903 -33.631  1.00  0.00    -0.354 N 
HETATM   15  C   UNL     1     -12.868   2.839 -35.083  1.00  0.00     0.152 C 
HETATM   16  C   UNL     1     -14.042   2.335 -32.964  1.00  0.00     0.152 C 
ENDBRANCH  10  14
ENDBRANCH   1   5
BRANCH   2  17
HETATM   17  C   UNL     1      -3.829   0.991 -31.953  1.00  0.00     0.161 C 
BRANCH  17  18
HETATM   18  C   UNL     1      -3.853  -0.429 -32.377  1.00  0.00     0.035 A 
HETATM   19  N   UNL     1      -4.589  -0.916 -33.452  1.00  0.00    -0.344 N 
HETATM   20  H   UNL     1      -5.176  -0.317 -34.043  1.00  0.00     0.167 HD
HETATM   21  C   UNL     1      -4.429  -2.225 -33.593  1.00  0.00     0.111 A 
HETATM   22  N   UNL     1      -3.579  -2.628 -32.631  1.00  0.00    -0.317 N 
HETATM   23  C   UNL     1      -5.009  -3.183 -34.564  1.00  0.00     0.049 A 
HETATM   24  C   UNL     1      -3.203  -1.537 -31.868  1.00  0.00     0.123 A 
HETATM   25  C   UNL     1      -3.189  -3.945 -32.489  1.00  0.00     0.098 A 
HETATM   26  C   UNL     1      -3.700  -4.837 -33.358  1.00  0.00     0.018 A 
HETATM   27  C   UNL     1      -4.631  -4.467 -34.423  1.00  0.00     0.005 A 
ENDBRANCH  17  18
ENDBRANCH   2  17
TORSDOF 4
ENDMDL
MODEL 7
REMARK VINA RESULT:      -7.4      1.845      9.121
REMARK  4 active torsions:
REMARK  status: ('A' for Active; 'I' for Inactive)
REMARK    1  A    between atoms: N_2  and  C_3 
REMARK    2  A    between atoms: C_9  and  N_10 
REMARK       I    between atoms: N_10  and  C_11 
REMARK    3  A    between atoms: C_11  and  C_12 
REMARK    4  A    between atoms: C_12  and  C_13 
ROOT
HETATM    1  N   UNL     1      -4.288   2.591 -31.768  1.00  0.00    -0.327 N 
HETATM    2  C   UNL     1      -4.919   3.597 -32.480  1.00  0.00     0.227 C 
HETATM    3  O   UNL     1      -5.428   3.487 -33.595  1.00  0.00    -0.273 OA
HETATM    4  H   UNL     1      -3.851   2.837 -30.886  1.00  0.00     0.169 HD
ENDROOT
BRANCH   1   5
HETATM    5  C   UNL     1      -4.160   1.230 -32.133  1.00  0.00     0.037 A 
HETATM    6  C   UNL     1      -4.997   0.598 -33.063  1.00  0.00     0.069 A 
HETATM    7  C   UNL     1      -4.761  -0.758 -33.277  1.00  0.00     0.110 A 
HETATM    8  O   UNL     1      -5.447  -1.595 -34.105  1.00  0.00    -0.276 OA
HETATM    9  C   UNL     1      -3.773  -1.499 -32.657  1.00  0.00     0.095 A 
HETATM   10  C   UNL     1      -4.839  -2.816 -33.932  1.00  0.00     0.249 A 
HETATM   11  N   UNL     1      -3.828  -2.797 -33.085  1.00  0.00    -0.206 NA
HETATM   12  C   UNL     1      -2.928  -0.865 -31.743  1.00  0.00     0.037 A 
HETATM   13  C   UNL     1      -3.140   0.502 -31.488  1.00  0.00     0.032 A 
BRANCH  10  14
HETATM   14  N   UNL     1      -5.347  -3.870 -34.611  1.00  0.00    -0.354 N 
HETATM   15  C   UNL     1      -4.768  -5.185 -34.396  1.00  0.00     0.152 C 
HETATM   16  C   UNL     1      -6.771  -3.826 -34.905  1.00  0.00     0.152 C 
ENDBRANCH  10  14
ENDBRANCH   1   5
BRANCH   2  17
HETATM   17  C   UNL     1      -4.944   4.915 -31.726  1.00  0.00     0.161 C 
BRANCH  17  18
HETATM   18  C   UNL     1      -3.594   5.462 -31.448  1.00  0.00     0.035 A 
HETATM   19  N   UNL     1      -3.136   5.821 -30.185  1.00  0.00    -0.344 N 
HETATM   20  H   UNL     1      -3.707   5.729 -29.337  1.00  0.00     0.167 HD
HETATM   21  C   UNL     1      -1.896   6.289 -30.235  1.00  0.00     0.111 A 
HETATM   22  N   UNL     1      -1.503   6.236 -31.522  1.00  0.00    -0.317 N 
HETATM   23  C   UNL     1      -1.000   6.805 -29.173  1.00  0.00     0.049 A 
HETATM   24  C   UNL     1      -2.532   5.723 -32.292  1.00  0.00     0.123 A 
HETATM   25  C   UNL     1      -0.251   6.648 -31.933  1.00  0.00     0.098 A 
HETATM   26  C   UNL     1       0.584   7.122 -30.989  1.00  0.00     0.018 A 
HETATM   27  C   UNL     1       0.219   7.211 -29.576  1.00  0.00     0.005 A 
ENDBRANCH  17  18
ENDBRANCH   2  17
TORSDOF 4
ENDMDL
MODEL 8
REMARK VINA RESULT:      -7.4      2.409      9.772
REMARK  4 active torsions:
REMARK  status: ('A' for Active; 'I' for Inactive)
REMARK    1  A    between atoms: N_2  and  C_3 
REMARK    2  A    between atoms: C_9  and  N_10 
REMARK       I    between atoms: N_10  and  C_11 
REMARK    3  A    between atoms: C_11  and  C_12 
REMARK    4  A    between atoms: C_12  and  C_13 
ROOT
HETATM    1  N   UNL     1      -2.307   4.158 -32.552  1.00  0.00    -0.327 N 
HETATM    2  C   UNL     1      -1.949   5.067 -31.570  1.00  0.00     0.227 C 
HETATM    3  O   UNL     1      -2.722   5.698 -30.849  1.00  0.00    -0.273 OA
HETATM    4  H   UNL     1      -1.567   3.759 -33.120  1.00  0.00     0.169 HD
ENDROOT
BRANCH   1   5
HETATM    5  C   UNL     1      -3.610   3.716 -32.879  1.00  0.00     0.037 A 
HETATM    6  C   UNL     1      -4.133   2.481 -32.467  1.00  0.00     0.069 A 
HETATM    7  C   UNL     1      -5.419   2.182 -32.911  1.00  0.00     0.110 A 
HETATM    8  O   UNL     1      -6.132   1.046 -32.671  1.00  0.00    -0.276 OA
HETATM    9  C   UNL     1      -6.197   3.006 -33.702  1.00  0.00     0.095 A 
HETATM   10  C   UNL     1      -7.314   1.239 -33.346  1.00  0.00     0.249 A 
HETATM   11  N   UNL     1      -7.396   2.401 -33.964  1.00  0.00    -0.206 NA
HETATM   12  C   UNL     1      -5.682   4.242 -34.098  1.00  0.00     0.037 A 
HETATM   13  C   UNL     1      -4.382   4.579 -33.681  1.00  0.00     0.032 A 
BRANCH  10  14
HETATM   14  N   UNL     1      -8.220   0.234 -33.320  1.00  0.00    -0.354 N 
HETATM   15  C   UNL     1      -7.793  -1.102 -33.700  1.00  0.00     0.152 C 
HETATM   16  C   UNL     1      -9.256   0.322 -32.303  1.00  0.00     0.152 C 
ENDBRANCH  10  14
ENDBRANCH   1   5
BRANCH   2  17
HETATM   17  C   UNL     1      -0.443   5.220 -31.441  1.00  0.00     0.161 C 
BRANCH  17  18
HETATM   18  C   UNL     1      -0.028   5.976 -30.235  1.00  0.00     0.035 A 
HETATM   19  N   UNL     1      -0.294   5.579 -28.928  1.00  0.00    -0.344 N 
HETATM   20  H   UNL     1      -0.801   4.716 -28.700  1.00  0.00     0.167 HD
HETATM   21  C   UNL     1       0.185   6.451 -28.051  1.00  0.00     0.111 A 
HETATM   22  N   UNL     1       0.787   7.430 -28.752  1.00  0.00    -0.317 N 
HETATM   23  C   UNL     1       0.139   6.475 -26.570  1.00  0.00     0.049 A 
HETATM   24  C   UNL     1       0.674   7.158 -30.104  1.00  0.00     0.123 A 
HETATM   25  C   UNL     1       1.400   8.508 -28.145  1.00  0.00     0.098 A 
HETATM   26  C   UNL     1       1.373   8.556 -26.799  1.00  0.00     0.018 A 
HETATM   27  C   UNL     1       0.733   7.529 -25.979  1.00  0.00     0.005 A 
ENDBRANCH  17  18
ENDBRANCH   2  17
TORSDOF 4
ENDMDL
MODEL 9
REMARK VINA RESULT:      -7.2      3.325      9.383
REMARK  4 active torsions:
REMARK  status: ('A' for Active; 'I' for Inactive)
REMARK    1  A    between atoms: N_2  and  C_3 
REMARK    2  A    between atoms: C_9  and  N_10 
REMARK       I    between atoms: N_10  and  C_11 
REMARK    3  A    between atoms: C_11  and  C_12 
REMARK    4  A    between atoms: C_12  and  C_13 
ROOT
HETATM    1  N   UNL     1      -5.657   1.748 -32.683  1.00  0.00    -0.327 N 
HETATM    2  C   UNL     1      -5.113   2.239 -31.508  1.00  0.00     0.227 C 
HETATM    3  O   UNL     1      -5.742   2.602 -30.513  1.00  0.00    -0.273 OA
HETATM    4  H   UNL     1      -5.025   1.551 -33.451  1.00  0.00     0.169 HD
ENDROOT
BRANCH   1   5
HETATM    5  C   UNL     1      -7.021   1.495 -32.958  1.00  0.00     0.037 A 
HETATM    6  C   UNL     1      -7.853   2.396 -33.639  1.00  0.00     0.069 A 
HETATM    7  C   UNL     1      -9.182   2.008 -33.790  1.00  0.00     0.110 A 
HETATM    8  O   UNL     1     -10.184   2.712 -34.387  1.00  0.00    -0.276 OA
HETATM    9  C   UNL     1      -9.718   0.819 -33.335  1.00  0.00     0.095 A 
HETATM   10  C   UNL     1     -11.291   1.908 -34.250  1.00  0.00     0.249 A 
HETATM   11  N   UNL     1     -11.051   0.764 -33.639  1.00  0.00    -0.206 NA
HETATM   12  C   UNL     1      -8.886  -0.086 -32.673  1.00  0.00     0.037 A 
HETATM   13  C   UNL     1      -7.539   0.272 -32.487  1.00  0.00     0.032 A 
BRANCH  10  14
HETATM   14  N   UNL     1     -12.469   2.378 -34.723  1.00  0.00    -0.354 N 
HETATM   15  C   UNL     1     -13.546   2.637 -33.782  1.00  0.00     0.152 C 
HETATM   16  C   UNL     1     -12.399   3.247 -35.887  1.00  0.00     0.152 C 
ENDBRANCH  10  14
ENDBRANCH   1   5
BRANCH   2  17
HETATM   17  C   UNL     1      -3.595   2.286 -31.545  1.00  0.00     0.161 C 
BRANCH  17  18
HETATM   18  C   UNL     1      -3.052   3.646 -31.777  1.00  0.00     0.035 A 
HETATM   19  N   UNL     1      -3.222   4.719 -30.909  1.00  0.00    -0.344 N 
HETATM   20  H   UNL     1      -3.742   4.646 -30.027  1.00  0.00     0.167 HD
HETATM   21  C   UNL     1      -2.639   5.815 -31.375  1.00  0.00     0.111 A 
HETATM   22  N   UNL     1      -2.061   5.489 -32.546  1.00  0.00    -0.317 N 
HETATM   23  C   UNL     1      -2.560   7.190 -30.828  1.00  0.00     0.049 A 
HETATM   24  C   UNL     1      -2.296   4.153 -32.816  1.00  0.00     0.123 A 
HETATM   25  C   UNL     1      -1.358   6.404 -33.306  1.00  0.00     0.098 A 
HETATM   26  C   UNL     1      -1.270   7.662 -32.833  1.00  0.00     0.018 A 
HETATM   27  C   UNL     1      -1.878   8.082 -31.571  1.00  0.00     0.005 A 
ENDBRANCH  17  18
ENDBRANCH   2  17
TORSDOF 4
ENDMDL
MODEL 10
REMARK VINA RESULT:      -7.2      3.675      4.972
REMARK  4 active torsions:
REMARK  status: ('A' for Active; 'I' for Inactive)
REMARK    1  A    between atoms: N_2  and  C_3 
REMARK    2  A    between atoms: C_9  and  N_10 
REMARK       I    between atoms: N_10  and  C_11 
REMARK    3  A    between atoms: C_11  and  C_12 
REMARK    4  A    between atoms: C_12  and  C_13 
ROOT
HETATM    1  N   UNL     1      -4.998   1.295 -30.521  1.00  0.00    -0.327 N 
HETATM    2  C   UNL     1      -3.987   1.271 -31.467  1.00  0.00     0.227 C 
HETATM    3  O   UNL     1      -3.812   2.097 -32.363  1.00  0.00    -0.273 OA
HETATM    4  H   UNL     1      -5.066   0.511 -29.880  1.00  0.00     0.169 HD
ENDROOT
BRANCH   1   5
HETATM    5  C   UNL     1      -5.981   2.296 -30.339  1.00  0.00     0.037 A 
HETATM    6  C   UNL     1      -5.739   3.504 -29.668  1.00  0.00     0.069 A 
HETATM    7  C   UNL     1      -6.828   4.362 -29.541  1.00  0.00     0.110 A 
HETATM    8  O   UNL     1      -6.857   5.572 -28.916  1.00  0.00    -0.276 OA
HETATM    9  C   UNL     1      -8.096   4.113 -30.031  1.00  0.00     0.095 A 
HETATM   10  C   UNL     1      -8.159   5.992 -29.051  1.00  0.00     0.249 A 
HETATM   11  N   UNL     1      -8.927   5.155 -29.721  1.00  0.00    -0.206 NA
HETATM   12  C   UNL     1      -8.332   2.919 -30.714  1.00  0.00     0.037 A 
HETATM   13  C   UNL     1      -7.262   2.017 -30.854  1.00  0.00     0.032 A 
BRANCH  10  14
HETATM   14  N   UNL     1      -8.499   7.171 -28.477  1.00  0.00    -0.354 N 
HETATM   15  C   UNL     1      -7.463   8.166 -28.258  1.00  0.00     0.152 C 
HETATM   16  C   UNL     1      -9.833   7.673 -28.770  1.00  0.00     0.152 C 
ENDBRANCH  10  14
ENDBRANCH   1   5
BRANCH   2  17
HETATM   17  C   UNL     1      -3.057   0.082 -31.294  1.00  0.00     0.161 C 
BRANCH  17  18
HETATM   18  C   UNL     1      -3.469  -1.108 -32.076  1.00  0.00     0.035 A 
HETATM   19  N   UNL     1      -4.431  -1.094 -33.081  1.00  0.00    -0.344 N 
HETATM   20  H   UNL     1      -4.932  -0.243 -33.362  1.00  0.00     0.167 HD
HETATM   21  C   UNL     1      -4.604  -2.302 -33.601  1.00  0.00     0.111 A 
HETATM   22  N   UNL     1      -3.756  -3.133 -32.967  1.00  0.00    -0.317 N 
HETATM   23  C   UNL     1      -5.513  -2.788 -34.666  1.00  0.00     0.049 A 
HETATM   24  C   UNL     1      -3.038  -2.420 -32.023  1.00  0.00     0.123 A 
HETATM   25  C   UNL     1      -3.672  -4.478 -33.267  1.00  0.00     0.098 A 
HETATM   26  C   UNL     1      -4.487  -4.947 -34.231  1.00  0.00     0.018 A 
HETATM   27  C   UNL     1      -5.434  -4.100 -34.955  1.00  0.00     0.005 A 
ENDBRANCH  17  18
ENDBRANCH   2  17
TORSDOF 4
ENDMDL
