MODEL 1
REMARK VINA RESULT:      -9.0      0.000      0.000
REMARK  6 active torsions:
REMARK  status: ('A' for Active; 'I' for Inactive)
REMARK    1  A    between atoms: N_2  and  C_4 
REMARK    2  A    between atoms: C_4  and  C_5 
REMARK       I    between atoms: C_5  and  N_7 
REMARK    3  A    between atoms: N_7  and  C_8 
REMARK    4  A    between atoms: C_8  and  C_9 
REMARK    5  A    between atoms: C_8  and  C_26 
REMARK    6  A    between atoms: C_14  and  C_20 
ROOT
HETATM    1  C   UNL     1      -6.257   3.060 -33.399  1.00  0.00     0.135 A 
HETATM    2  N   UNL     1      -6.836   2.275 -34.254  1.00  0.00    -0.232 NA
HETATM    3  C   UNL     1      -6.496   0.912 -34.226  1.00  0.00     0.074 A 
HETATM    4  C   UNL     1      -7.078   0.055 -35.159  1.00  0.00     0.033 A 
HETATM    5  C   UNL     1      -6.725  -1.299 -35.200  1.00  0.00     0.014 A 
HETATM    6  C   UNL     1      -5.778  -1.820 -34.307  1.00  0.00    -0.022 A 
HETATM    7  C   UNL     1      -5.210  -0.969 -33.351  1.00  0.00     0.031 A 
HETATM    8  C   UNL     1      -5.573   0.384 -33.322  1.00  0.00     0.061 A 
HETATM    9  C   UNL     1      -4.979   1.307 -32.341  1.00  0.00     0.259 A 
HETATM   10  O   UNL     1      -4.215   0.924 -31.464  1.00  0.00    -0.267 OA
HETATM   11  N   UNL     1      -5.337   2.620 -32.481  1.00  0.00    -0.309 N 
HETATM   12  H   UNL     1      -5.010   3.254 -31.765  1.00  0.00     0.170 HD
ENDROOT
BRANCH   1  13
HETATM   13  C   UNL     1      -6.505   4.579 -33.446  1.00  0.00     0.187 C 
BRANCH  13  14
HETATM   14  N   UNL     1      -7.319   5.072 -32.338  1.00  0.00    -0.344 N 
HETATM   15  C   UNL     1      -8.631   5.456 -32.404  1.00  0.00     0.247 C 
HETATM   16  O   UNL     1      -9.068   6.187 -31.513  1.00  0.00    -0.272 OA
HETATM   17  H   UNL     1      -6.841   5.592 -31.611  1.00  0.00     0.163 HD
BRANCH  15  18
HETATM   18  C   UNL     1      -9.527   4.945 -33.536  1.00  0.00     0.373 C 
BRANCH  18  19
HETATM   19  N   UNL     1     -10.032   3.590 -33.237  1.00  0.00     0.088 N 
HETATM   20  C   UNL     1     -11.245   3.644 -32.415  1.00  0.00     0.310 C 
HETATM   21  C   UNL     1     -10.316   2.880 -34.488  1.00  0.00     0.310 C 
ENDBRANCH  18  19
ENDBRANCH  15  18
ENDBRANCH  13  14
BRANCH  13  22
HETATM   22  C   UNL     1      -5.160   5.299 -33.514  1.00  0.00    -0.028 A 
HETATM   23  C   UNL     1      -4.318   5.081 -34.618  1.00  0.00     0.011 A 
HETATM   24  C   UNL     1      -3.055   5.676 -34.683  1.00  0.00     0.024 A 
HETATM   25  C   UNL     1      -2.620   6.493 -33.642  1.00  0.00     0.034 A 
HETATM   26 CL   UNL     1      -1.063   7.219 -33.717  1.00  0.00    -0.084 Cl
HETATM   27  C   UNL     1      -3.435   6.714 -32.535  1.00  0.00     0.024 A 
HETATM   28  C   UNL     1      -4.696   6.116 -32.466  1.00  0.00     0.011 A 
ENDBRANCH  13  22
ENDBRANCH   1  13
BRANCH   6  29
HETATM   29  C   UNL     1      -5.388  -3.216 -34.393  1.00  0.00     0.010 A 
HETATM   30  C   UNL     1      -6.065  -4.339 -34.923  1.00  0.00     0.152 A 
HETATM   31  N   UNL     1      -5.344  -5.461 -34.849  1.00  0.00    -0.187 NA
HETATM   32  N   UNL     1      -4.198  -5.061 -34.275  1.00  0.00    -0.289 N 
HETATM   33  H   UNL     1      -3.471  -5.750 -34.119  1.00  0.00     0.188 HD
HETATM   34  C   UNL     1      -4.173  -3.727 -33.985  1.00  0.00     0.123 A 
ENDBRANCH   6  29
TORSDOF 6
ENDMDL
MODEL 2
REMARK VINA RESULT:      -8.8      2.931      4.879
REMARK  6 active torsions:
REMARK  status: ('A' for Active; 'I' for Inactive)
REMARK    1  A    between atoms: N_2  and  C_4 
REMARK    2  A    between atoms: C_4  and  C_5 
REMARK       I    between atoms: C_5  and  N_7 
REMARK    3  A    between atoms: N_7  and  C_8 
REMARK    4  A    between atoms: C_8  and  C_9 
REMARK    5  A    between atoms: C_8  and  C_26 
REMARK    6  A    between atoms: C_14  and  C_20 
ROOT
HETATM    1  C   UNL     1      -4.436   2.756 -32.198  1.00  0.00     0.135 A 
HETATM    2  N   UNL     1      -5.334   2.251 -32.987  1.00  0.00    -0.232 NA
HETATM    3  C   UNL     1      -5.290   0.868 -33.227  1.00  0.00     0.074 A 
HETATM    4  C   UNL     1      -6.221   0.308 -34.100  1.00  0.00     0.033 A 
HETATM    5  C   UNL     1      -6.178  -1.057 -34.409  1.00  0.00     0.014 A 
HETATM    6  C   UNL     1      -5.196  -1.887 -33.849  1.00  0.00    -0.022 A 
HETATM    7  C   UNL     1      -4.275  -1.334 -32.952  1.00  0.00     0.031 A 
HETATM    8  C   UNL     1      -4.330   0.033 -32.653  1.00  0.00     0.061 A 
HETATM    9  C   UNL     1      -3.364   0.646 -31.727  1.00  0.00     0.259 A 
HETATM   10  O   UNL     1      -2.531  -0.016 -31.120  1.00  0.00    -0.267 OA
HETATM   11  N   UNL     1      -3.458   2.005 -31.597  1.00  0.00    -0.309 N 
HETATM   12  H   UNL     1      -2.863   2.433 -30.901  1.00  0.00     0.170 HD
ENDROOT
BRANCH   1  13
HETATM   13  C   UNL     1      -4.363   4.278 -31.977  1.00  0.00     0.187 C 
BRANCH  13  14
HETATM   14  N   UNL     1      -4.076   5.032 -33.194  1.00  0.00    -0.344 N 
HETATM   15  C   UNL     1      -2.881   5.613 -33.525  1.00  0.00     0.247 C 
HETATM   16  O   UNL     1      -2.886   6.511 -34.370  1.00  0.00    -0.272 OA
HETATM   17  H   UNL     1      -4.842   5.554 -33.605  1.00  0.00     0.163 HD
BRANCH  15  18
HETATM   18  C   UNL     1      -1.581   5.118 -32.886  1.00  0.00     0.373 C 
BRANCH  18  19
HETATM   19  N   UNL     1      -1.245   5.915 -31.689  1.00  0.00     0.088 N 
HETATM   20  C   UNL     1      -0.540   5.104 -30.690  1.00  0.00     0.310 C 
HETATM   21  C   UNL     1      -0.411   7.057 -32.073  1.00  0.00     0.310 C 
ENDBRANCH  18  19
ENDBRANCH  15  18
ENDBRANCH  13  14
BRANCH  13  22
HETATM   22  C   UNL     1      -5.661   4.747 -31.324  1.00  0.00    -0.028 A 
HETATM   23  C   UNL     1      -6.465   5.689 -31.991  1.00  0.00     0.011 A 
HETATM   24  C   UNL     1      -7.628   6.185 -31.395  1.00  0.00     0.024 A 
HETATM   25  C   UNL     1      -7.998   5.748 -30.126  1.00  0.00     0.034 A 
HETATM   26 CL   UNL     1      -9.425   6.363 -29.390  1.00  0.00    -0.084 Cl
HETATM   27  C   UNL     1      -7.211   4.823 -29.445  1.00  0.00     0.024 A 
HETATM   28  C   UNL     1      -6.045   4.329 -30.037  1.00  0.00     0.011 A 
ENDBRANCH  13  22
ENDBRANCH   1  13
BRANCH   6  29
HETATM   29  C   UNL     1      -5.136  -3.290 -34.216  1.00  0.00     0.010 A 
HETATM   30  C   UNL     1      -6.036  -4.099 -34.949  1.00  0.00     0.152 A 
HETATM   31  N   UNL     1      -5.596  -5.350 -35.109  1.00  0.00    -0.187 NA
HETATM   32  N   UNL     1      -4.408  -5.348 -34.482  1.00  0.00    -0.289 N 
HETATM   33  H   UNL     1      -3.865  -6.205 -34.475  1.00  0.00     0.188 HD
HETATM   34  C   UNL     1      -4.086  -4.140 -33.933  1.00  0.00     0.123 A 
ENDBRANCH   6  29
TORSDOF 6
ENDMDL
MODEL 3
REMARK VINA RESULT:      -8.6      1.715      2.171
REMARK  6 active torsions:
REMARK  status: ('A' for Active; 'I' for Inactive)
REMARK    1  A    between atoms: N_2  and  C_4 
REMARK    2  A    between atoms: C_4  and  C_5 
REMARK       I    between atoms: C_5  and  N_7 
REMARK    3  A    between atoms: N_7  and  C_8 
REMARK    4  A    between atoms: C_8  and  C_9 
REMARK    5  A    between atoms: C_8  and  C_26 
REMARK    6  A    between atoms: C_14  and  C_20 
ROOT
HETATM    1  C   UNL     1      -5.833   2.797 -32.745  1.00  0.00     0.135 A 
HETATM    2  N   UNL     1      -4.889   1.999 -32.349  1.00  0.00    -0.232 NA
HETATM    3  C   UNL     1      -4.888   0.687 -32.852  1.00  0.00     0.074 A 
HETATM    4  C   UNL     1      -3.906  -0.199 -32.414  1.00  0.00     0.033 A 
HETATM    5  C   UNL     1      -3.902  -1.530 -32.849  1.00  0.00     0.014 A 
HETATM    6  C   UNL     1      -4.886  -1.999 -33.731  1.00  0.00    -0.022 A 
HETATM    7  C   UNL     1      -5.859  -1.105 -34.193  1.00  0.00     0.031 A 
HETATM    8  C   UNL     1      -5.851   0.223 -33.750  1.00  0.00     0.061 A 
HETATM    9  C   UNL     1      -6.873   1.181 -34.205  1.00  0.00     0.259 A 
HETATM   10  O   UNL     1      -7.714   0.887 -35.044  1.00  0.00    -0.267 OA
HETATM   11  N   UNL     1      -6.818   2.417 -33.621  1.00  0.00    -0.309 N 
HETATM   12  H   UNL     1      -7.454   3.114 -33.983  1.00  0.00     0.170 HD
ENDROOT
BRANCH   1  13
HETATM   13  C   UNL     1      -5.954   4.212 -32.151  1.00  0.00     0.187 C 
BRANCH  13  14
HETATM   14  N   UNL     1      -6.245   4.222 -30.720  1.00  0.00    -0.344 N 
HETATM   15  C   UNL     1      -7.407   4.645 -30.132  1.00  0.00     0.247 C 
HETATM   16  O   UNL     1      -7.377   4.949 -28.937  1.00  0.00    -0.272 OA
HETATM   17  H   UNL     1      -5.464   4.370 -30.091  1.00  0.00     0.163 HD
BRANCH  15  18
HETATM   18  C   UNL     1      -8.707   4.692 -30.940  1.00  0.00     0.373 C 
BRANCH  18  19
HETATM   19  N   UNL     1      -9.659   3.668 -30.465  1.00  0.00     0.088 N 
HETATM   20  C   UNL     1     -11.047   4.078 -30.708  1.00  0.00     0.310 C 
HETATM   21  C   UNL     1      -9.397   2.395 -31.141  1.00  0.00     0.310 C 
ENDBRANCH  18  19
ENDBRANCH  15  18
ENDBRANCH  13  14
BRANCH  13  22
HETATM   22  C   UNL     1      -4.679   4.992 -32.465  1.00  0.00    -0.028 A 
HETATM   23  C   UNL     1      -4.355   5.269 -33.805  1.00  0.00     0.011 A 
HETATM   24  C   UNL     1      -3.166   5.927 -34.131  1.00  0.00     0.024 A 
HETATM   25  C   UNL     1      -2.288   6.312 -33.122  1.00  0.00     0.034 A 
HETATM   26 CL   UNL     1      -0.821   7.115 -33.524  1.00  0.00    -0.084 Cl
HETATM   27  C   UNL     1      -2.585   6.039 -31.789  1.00  0.00     0.024 A 
HETATM   28  C   UNL     1      -3.771   5.377 -31.461  1.00  0.00     0.011 A 
ENDBRANCH  13  22
ENDBRANCH   1  13
BRANCH   6  29
HETATM   29  C   UNL     1      -4.895  -3.393 -34.135  1.00  0.00     0.010 A 
HETATM   30  C   UNL     1      -5.826  -4.133 -34.900  1.00  0.00     0.152 A 
HETATM   31  N   UNL     1      -5.451  -5.401 -35.089  1.00  0.00    -0.187 NA
HETATM   32  N   UNL     1      -4.274  -5.478 -34.449  1.00  0.00    -0.289 N 
HETATM   33  H   UNL     1      -3.777  -6.363 -34.459  1.00  0.00     0.188 HD
HETATM   34  C   UNL     1      -3.896  -4.304 -33.863  1.00  0.00     0.123 A 
ENDBRANCH   6  29
TORSDOF 6
ENDMDL
MODEL 4
REMARK VINA RESULT:      -8.1      2.372      3.147
REMARK  6 active torsions:
REMARK  status: ('A' for Active; 'I' for Inactive)
REMARK    1  A    between atoms: N_2  and  C_4 
REMARK    2  A    between atoms: C_4  and  C_5 
REMARK       I    between atoms: C_5  and  N_7 
REMARK    3  A    between atoms: N_7  and  C_8 
REMARK    4  A    between atoms: C_8  and  C_9 
REMARK    5  A    between atoms: C_8  and  C_26 
REMARK    6  A    between atoms: C_14  and  C_20 
ROOT
HETATM    1  C   UNL     1      -5.345   2.688 -31.659  1.00  0.00     0.135 A 
HETATM    2  N   UNL     1      -6.056   2.333 -32.685  1.00  0.00    -0.232 NA
HETATM    3  C   UNL     1      -6.029   0.981 -33.063  1.00  0.00     0.074 A 
HETATM    4  C   UNL     1      -6.755   0.582 -34.184  1.00  0.00     0.033 A 
HETATM    5  C   UNL     1      -6.711  -0.746 -34.626  1.00  0.00     0.014 A 
HETATM    6  C   UNL     1      -5.935  -1.700 -33.953  1.00  0.00    -0.022 A 
HETATM    7  C   UNL     1      -5.225  -1.310 -32.812  1.00  0.00     0.031 A 
HETATM    8  C   UNL     1      -5.277   0.022 -32.381  1.00  0.00     0.061 A 
HETATM    9  C   UNL     1      -4.526   0.465 -31.195  1.00  0.00     0.259 A 
HETATM   10  O   UNL     1      -3.896  -0.314 -30.492  1.00  0.00    -0.267 OA
HETATM   11  N   UNL     1      -4.577   1.809 -30.938  1.00  0.00    -0.309 N 
HETATM   12  H   UNL     1      -4.142   2.120 -30.081  1.00  0.00     0.170 HD
ENDROOT
BRANCH   1  13
HETATM   13  C   UNL     1      -5.247   4.171 -31.257  1.00  0.00     0.187 C 
BRANCH  13  14
HETATM   14  N   UNL     1      -5.150   4.380 -29.815  1.00  0.00    -0.344 N 
HETATM   15  C   UNL     1      -5.617   5.463 -29.120  1.00  0.00     0.247 C 
HETATM   16  O   UNL     1      -5.146   5.683 -28.001  1.00  0.00    -0.272 OA
HETATM   17  H   UNL     1      -4.341   3.989 -29.346  1.00  0.00     0.163 HD
BRANCH  15  18
HETATM   18  C   UNL     1      -6.726   6.338 -29.710  1.00  0.00     0.373 C 
BRANCH  18  19
HETATM   19  N   UNL     1      -7.245   7.283 -28.701  1.00  0.00     0.088 N 
HETATM   20  C   UNL     1      -7.471   8.611 -29.281  1.00  0.00     0.310 C 
HETATM   21  C   UNL     1      -8.500   6.771 -28.142  1.00  0.00     0.310 C 
ENDBRANCH  18  19
ENDBRANCH  15  18
ENDBRANCH  13  14
BRANCH  13  22
HETATM   22  C   UNL     1      -4.070   4.807 -31.993  1.00  0.00    -0.028 A 
HETATM   23  C   UNL     1      -2.782   4.715 -31.438  1.00  0.00     0.011 A 
HETATM   24  C   UNL     1      -1.692   5.338 -32.054  1.00  0.00     0.024 A 
HETATM   25  C   UNL     1      -1.880   6.061 -33.229  1.00  0.00     0.034 A 
HETATM   26 CL   UNL     1      -0.542   6.833 -33.983  1.00  0.00    -0.084 Cl
HETATM   27  C   UNL     1      -3.150   6.173 -33.790  1.00  0.00     0.024 A 
HETATM   28  C   UNL     1      -4.241   5.555 -33.173  1.00  0.00     0.011 A 
ENDBRANCH  13  22
ENDBRANCH   1  13
BRANCH   6  29
HETATM   29  C   UNL     1      -5.863  -3.061 -34.452  1.00  0.00     0.010 A 
HETATM   30  C   UNL     1      -4.820  -4.015 -34.403  1.00  0.00     0.152 A 
HETATM   31  N   UNL     1      -5.162  -5.186 -34.948  1.00  0.00    -0.187 NA
HETATM   32  N   UNL     1      -6.430  -4.989 -35.344  1.00  0.00    -0.289 N 
HETATM   33  H   UNL     1      -6.920  -5.758 -35.789  1.00  0.00     0.188 HD
HETATM   34  C   UNL     1      -6.896  -3.736 -35.069  1.00  0.00     0.123 A 
ENDBRANCH   6  29
TORSDOF 6
ENDMDL
MODEL 5
REMARK VINA RESULT:      -8.1      2.712      4.825
REMARK  6 active torsions:
REMARK  status: ('A' for Active; 'I' for Inactive)
REMARK    1  A    between atoms: N_2  and  C_4 
REMARK    2  A    between atoms: C_4  and  C_5 
REMARK       I    between atoms: C_5  and  N_7 
REMARK    3  A    between atoms: N_7  and  C_8 
REMARK    4  A    between atoms: C_8  and  C_9 
REMARK    5  A    between atoms: C_8  and  C_26 
REMARK    6  A    between atoms: C_14  and  C_20 
ROOT
HETATM    1  C   UNL     1      -5.973   2.897 -32.338  1.00  0.00     0.135 A 
HETATM    2  N   UNL     1      -6.486   2.372 -33.408  1.00  0.00    -0.232 NA
HETATM    3  C   UNL     1      -6.307   0.993 -33.610  1.00  0.00     0.074 A 
HETATM    4  C   UNL     1      -6.817   0.413 -34.770  1.00  0.00     0.033 A 
HETATM    5  C   UNL     1      -6.613  -0.947 -35.035  1.00  0.00     0.014 A 
HETATM    6  C   UNL     1      -5.890  -1.751 -34.143  1.00  0.00    -0.022 A 
HETATM    7  C   UNL     1      -5.398  -1.178 -32.965  1.00  0.00     0.031 A 
HETATM    8  C   UNL     1      -5.609   0.183 -32.712  1.00  0.00     0.061 A 
HETATM    9  C   UNL     1      -5.088   0.818 -31.490  1.00  0.00     0.259 A 
HETATM   10  O   UNL     1      -4.525   0.177 -30.611  1.00  0.00    -0.267 OA
HETATM   11  N   UNL     1      -5.271   2.172 -31.409  1.00  0.00    -0.309 N 
HETATM   12  H   UNL     1      -4.999   2.611 -30.541  1.00  0.00     0.170 HD
ENDROOT
BRANCH   1  13
HETATM   13  C   UNL     1      -6.041   4.418 -32.110  1.00  0.00     0.187 C 
BRANCH  13  14
HETATM   14  N   UNL     1      -5.261   5.189 -33.074  1.00  0.00    -0.344 N 
HETATM   15  C   UNL     1      -4.025   5.739 -32.861  1.00  0.00     0.247 C 
HETATM   16  O   UNL     1      -3.662   6.655 -33.603  1.00  0.00    -0.272 OA
HETATM   17  H   UNL     1      -5.777   5.744 -33.747  1.00  0.00     0.163 HD
BRANCH  15  18
HETATM   18  C   UNL     1      -3.116   5.188 -31.759  1.00  0.00     0.373 C 
BRANCH  18  19
HETATM   19  N   UNL     1      -1.906   6.022 -31.610  1.00  0.00     0.088 N 
HETATM   20  C   UNL     1      -1.730   6.460 -30.221  1.00  0.00     0.310 C 
HETATM   21  C   UNL     1      -0.727   5.265 -32.040  1.00  0.00     0.310 C 
ENDBRANCH  18  19
ENDBRANCH  15  18
ENDBRANCH  13  14
BRANCH  13  22
HETATM   22  C   UNL     1      -7.505   4.853 -32.103  1.00  0.00    -0.028 A 
HETATM   23  C   UNL     1      -8.398   4.251 -31.200  1.00  0.00     0.011 A 
HETATM   24  C   UNL     1      -9.756   4.581 -31.209  1.00  0.00     0.024 A 
HETATM   25  C   UNL     1     -10.236   5.516 -32.122  1.00  0.00     0.034 A 
HETATM   26 CL   UNL     1     -11.907   5.917 -32.139  1.00  0.00    -0.084 Cl
HETATM   27  C   UNL     1      -9.370   6.118 -33.032  1.00  0.00     0.024 A 
HETATM   28  C   UNL     1      -8.012   5.785 -33.028  1.00  0.00     0.011 A 
ENDBRANCH  13  22
ENDBRANCH   1  13
BRANCH   6  29
HETATM   29  C   UNL     1      -5.647  -3.147 -34.456  1.00  0.00     0.010 A 
HETATM   30  C   UNL     1      -6.449  -4.104 -35.120  1.00  0.00     0.152 A 
HETATM   31  N   UNL     1      -5.844  -5.289 -35.248  1.00  0.00    -0.187 NA
HETATM   32  N   UNL     1      -4.649  -5.095 -34.669  1.00  0.00    -0.289 N 
HETATM   33  H   UNL     1      -3.992  -5.867 -34.649  1.00  0.00     0.188 HD
HETATM   34  C   UNL     1      -4.481  -3.830 -34.181  1.00  0.00     0.123 A 
ENDBRANCH   6  29
TORSDOF 6
ENDMDL
MODEL 6
REMARK VINA RESULT:      -8.0      2.977      3.695
REMARK  6 active torsions:
REMARK  status: ('A' for Active; 'I' for Inactive)
REMARK    1  A    between atoms: N_2  and  C_4 
REMARK    2  A    between atoms: C_4  and  C_5 
REMARK       I    between atoms: C_5  and  N_7 
REMARK    3  A    between atoms: N_7  and  C_8 
REMARK    4  A    between atoms: C_8  and  C_9 
REMARK    5  A    between atoms: C_8  and  C_26 
REMARK    6  A    between atoms: C_14  and  C_20 
ROOT
HETATM    1  C   UNL     1      -9.259   2.409 -32.473  1.00  0.00     0.135 A 
HETATM    2  N   UNL     1      -8.067   2.304 -32.974  1.00  0.00    -0.232 NA
HETATM    3  C   UNL     1      -7.636   1.028 -33.374  1.00  0.00     0.074 A 
HETATM    4  C   UNL     1      -6.346   0.884 -33.882  1.00  0.00     0.033 A 
HETATM    5  C   UNL     1      -5.859  -0.379 -34.241  1.00  0.00     0.014 A 
HETATM    6  C   UNL     1      -6.656  -1.523 -34.095  1.00  0.00    -0.022 A 
HETATM    7  C   UNL     1      -7.961  -1.379 -33.609  1.00  0.00     0.031 A 
HETATM    8  C   UNL     1      -8.435  -0.110 -33.254  1.00  0.00     0.061 A 
HETATM    9  C   UNL     1      -9.797   0.069 -32.724  1.00  0.00     0.259 A 
HETATM   10  O   UNL     1     -10.595  -0.856 -32.648  1.00  0.00    -0.267 OA
HETATM   11  N   UNL     1     -10.105   1.339 -32.318  1.00  0.00    -0.309 N 
HETATM   12  H   UNL     1     -11.061   1.502 -32.034  1.00  0.00     0.170 HD
ENDROOT
BRANCH   1  13
HETATM   13  C   UNL     1      -9.753   3.758 -31.918  1.00  0.00     0.187 C 
BRANCH  13  14
HETATM   14  N   UNL     1     -10.948   3.645 -31.086  1.00  0.00    -0.344 N 
HETATM   15  C   UNL     1     -12.203   4.088 -31.406  1.00  0.00     0.247 C 
HETATM   16  O   UNL     1     -13.008   4.267 -30.489  1.00  0.00    -0.272 OA
HETATM   17  H   UNL     1     -10.815   3.673 -30.082  1.00  0.00     0.163 HD
BRANCH  15  18
HETATM   18  C   UNL     1     -12.593   4.307 -32.871  1.00  0.00     0.373 C 
BRANCH  18  19
HETATM   19  N   UNL     1     -12.745   3.016 -33.574  1.00  0.00     0.088 N 
HETATM   20  C   UNL     1     -13.963   2.319 -33.147  1.00  0.00     0.310 C 
HETATM   21  C   UNL     1     -12.790   3.243 -35.021  1.00  0.00     0.310 C 
ENDBRANCH  18  19
ENDBRANCH  15  18
ENDBRANCH  13  14
BRANCH  13  22
HETATM   22  C   UNL     1      -8.610   4.431 -31.162  1.00  0.00    -0.028 A 
HETATM   23  C   UNL     1      -8.033   5.601 -31.687  1.00  0.00     0.011 A 
HETATM   24  C   UNL     1      -6.945   6.208 -31.053  1.00  0.00     0.024 A 
HETATM   25  C   UNL     1      -6.421   5.651 -29.890  1.00  0.00     0.034 A 
HETATM   26 CL   UNL     1      -5.079   6.393 -29.113  1.00  0.00    -0.084 Cl
HETATM   27  C   UNL     1      -6.972   4.487 -29.359  1.00  0.00     0.024 A 
HETATM   28  C   UNL     1      -8.057   3.875 -29.994  1.00  0.00     0.011 A 
ENDBRANCH  13  22
ENDBRANCH   1  13
BRANCH   6  29
HETATM   29  C   UNL     1      -6.119  -2.830 -34.427  1.00  0.00     0.010 A 
HETATM   30  C   UNL     1      -6.753  -4.001 -34.904  1.00  0.00     0.152 A 
HETATM   31  N   UNL     1      -5.895  -5.000 -35.129  1.00  0.00    -0.187 NA
HETATM   32  N   UNL     1      -4.705  -4.471 -34.801  1.00  0.00    -0.289 N 
HETATM   33  H   UNL     1      -3.877  -5.050 -34.898  1.00  0.00     0.188 HD
HETATM   34  C   UNL     1      -4.785  -3.176 -34.376  1.00  0.00     0.123 A 
ENDBRANCH   6  29
TORSDOF 6
ENDMDL
MODEL 7
REMARK VINA RESULT:      -7.9      3.430      8.029
REMARK  6 active torsions:
REMARK  status: ('A' for Active; 'I' for Inactive)
REMARK    1  A    between atoms: N_2  and  C_4 
REMARK    2  A    between atoms: C_4  and  C_5 
REMARK       I    between atoms: C_5  and  N_7 
REMARK    3  A    between atoms: N_7  and  C_8 
REMARK    4  A    between atoms: C_8  and  C_9 
REMARK    5  A    between atoms: C_8  and  C_26 
REMARK    6  A    between atoms: C_14  and  C_20 
ROOT
HETATM    1  C   UNL     1      -6.992   1.813 -32.996  1.00  0.00     0.135 A 
HETATM    2  N   UNL     1      -7.844   1.930 -33.968  1.00  0.00    -0.232 NA
HETATM    3  C   UNL     1      -9.126   2.413 -33.658  1.00  0.00     0.074 A 
HETATM    4  C   UNL     1     -10.070   2.513 -34.679  1.00  0.00     0.033 A 
HETATM    5  C   UNL     1     -11.376   2.937 -34.403  1.00  0.00     0.014 A 
HETATM    6  C   UNL     1     -11.761   3.268 -33.096  1.00  0.00    -0.022 A 
HETATM    7  C   UNL     1     -10.808   3.194 -32.073  1.00  0.00     0.031 A 
HETATM    8  C   UNL     1      -9.507   2.767 -32.363  1.00  0.00     0.061 A 
HETATM    9  C   UNL     1      -8.489   2.662 -31.304  1.00  0.00     0.259 A 
HETATM   10  O   UNL     1      -8.706   3.016 -30.152  1.00  0.00    -0.267 OA
HETATM   11  N   UNL     1      -7.288   2.136 -31.696  1.00  0.00    -0.309 N 
HETATM   12  H   UNL     1      -6.550   2.137 -31.006  1.00  0.00     0.170 HD
ENDROOT
BRANCH   1  13
HETATM   13  C   UNL     1      -5.606   1.191 -33.248  1.00  0.00     0.187 C 
BRANCH  13  14
HETATM   14  N   UNL     1      -4.700   1.303 -32.109  1.00  0.00    -0.344 N 
HETATM   15  C   UNL     1      -3.697   2.223 -31.959  1.00  0.00     0.247 C 
HETATM   16  O   UNL     1      -2.794   1.973 -31.157  1.00  0.00    -0.272 OA
HETATM   17  H   UNL     1      -4.461   0.446 -31.624  1.00  0.00     0.163 HD
BRANCH  15  18
HETATM   18  C   UNL     1      -3.735   3.539 -32.741  1.00  0.00     0.373 C 
BRANCH  18  19
HETATM   19  N   UNL     1      -2.516   4.335 -32.492  1.00  0.00     0.088 N 
HETATM   20  C   UNL     1      -1.916   4.796 -33.748  1.00  0.00     0.310 C 
HETATM   21  C   UNL     1      -2.842   5.489 -31.650  1.00  0.00     0.310 C 
ENDBRANCH  18  19
ENDBRANCH  15  18
ENDBRANCH  13  14
BRANCH  13  22
HETATM   22  C   UNL     1      -5.786  -0.264 -33.675  1.00  0.00    -0.028 A 
HETATM   23  C   UNL     1      -4.675  -1.125 -33.668  1.00  0.00     0.011 A 
HETATM   24  C   UNL     1      -4.792  -2.446 -34.111  1.00  0.00     0.024 A 
HETATM   25  C   UNL     1      -6.019  -2.918 -34.568  1.00  0.00     0.034 A 
HETATM   26 CL   UNL     1      -6.162  -4.540 -35.119  1.00  0.00    -0.084 Cl
HETATM   27  C   UNL     1      -7.130  -2.079 -34.592  1.00  0.00     0.024 A 
HETATM   28  C   UNL     1      -7.014  -0.756 -34.154  1.00  0.00     0.011 A 
ENDBRANCH  13  22
ENDBRANCH   1  13
BRANCH   6  29
HETATM   29  C   UNL     1     -13.130   3.661 -32.819  1.00  0.00     0.010 A 
HETATM   30  C   UNL     1     -14.167   2.994 -32.125  1.00  0.00     0.152 A 
HETATM   31  N   UNL     1     -15.288   3.716 -32.050  1.00  0.00    -0.187 NA
HETATM   32  N   UNL     1     -14.974   4.852 -32.693  1.00  0.00    -0.289 N 
HETATM   33  H   UNL     1     -15.680   5.577 -32.762  1.00  0.00     0.188 HD
HETATM   34  C   UNL     1     -13.695   4.870 -33.170  1.00  0.00     0.123 A 
ENDBRANCH   6  29
TORSDOF 6
ENDMDL
MODEL 8
REMARK VINA RESULT:      -7.8      3.278      7.535
REMARK  6 active torsions:
REMARK  status: ('A' for Active; 'I' for Inactive)
REMARK    1  A    between atoms: N_2  and  C_4 
REMARK    2  A    between atoms: C_4  and  C_5 
REMARK       I    between atoms: C_5  and  N_7 
REMARK    3  A    between atoms: N_7  and  C_8 
REMARK    4  A    between atoms: C_8  and  C_9 
REMARK    5  A    between atoms: C_8  and  C_26 
REMARK    6  A    between atoms: C_14  and  C_20 
ROOT
HETATM    1  C   UNL     1      -6.530   1.696 -32.635  1.00  0.00     0.135 A 
HETATM    2  N   UNL     1      -6.058   2.456 -33.576  1.00  0.00    -0.232 NA
HETATM    3  C   UNL     1      -5.317   3.586 -33.193  1.00  0.00     0.074 A 
HETATM    4  C   UNL     1      -4.830   4.437 -34.183  1.00  0.00     0.033 A 
HETATM    5  C   UNL     1      -4.134   5.602 -33.842  1.00  0.00     0.014 A 
HETATM    6  C   UNL     1      -3.915   5.939 -32.499  1.00  0.00    -0.022 A 
HETATM    7  C   UNL     1      -4.379   5.074 -31.502  1.00  0.00     0.031 A 
HETATM    8  C   UNL     1      -5.074   3.912 -31.857  1.00  0.00     0.061 A 
HETATM    9  C   UNL     1      -5.590   2.992 -30.829  1.00  0.00     0.259 A 
HETATM   10  O   UNL     1      -5.368   3.156 -29.636  1.00  0.00    -0.267 OA
HETATM   11  N   UNL     1      -6.340   1.948 -31.300  1.00  0.00    -0.309 N 
HETATM   12  H   UNL     1      -6.629   1.259 -30.620  1.00  0.00     0.170 HD
ENDROOT
BRANCH   1  13
HETATM   13  C   UNL     1      -7.439   0.502 -32.983  1.00  0.00     0.187 C 
BRANCH  13  14
HETATM   14  N   UNL     1      -8.459   0.817 -33.980  1.00  0.00    -0.344 N 
HETATM   15  C   UNL     1      -9.687   1.371 -33.737  1.00  0.00     0.247 C 
HETATM   16  O   UNL     1     -10.566   1.232 -34.591  1.00  0.00    -0.272 OA
HETATM   17  H   UNL     1      -8.503   0.220 -34.799  1.00  0.00     0.163 HD
BRANCH  15  18
HETATM   18  C   UNL     1      -9.930   2.174 -32.456  1.00  0.00     0.373 C 
BRANCH  18  19
HETATM   19  N   UNL     1     -10.078   3.612 -32.757  1.00  0.00     0.088 N 
HETATM   20  C   UNL     1      -9.207   4.016 -33.866  1.00  0.00     0.310 C 
HETATM   21  C   UNL     1     -11.473   3.906 -33.096  1.00  0.00     0.310 C 
ENDBRANCH  18  19
ENDBRANCH  15  18
ENDBRANCH  13  14
BRANCH  13  22
HETATM   22  C   UNL     1      -6.569  -0.671 -33.427  1.00  0.00    -0.028 A 
HETATM   23  C   UNL     1      -7.123  -1.665 -34.252  1.00  0.00     0.011 A 
HETATM   24  C   UNL     1      -6.372  -2.783 -34.627  1.00  0.00     0.024 A 
HETATM   25  C   UNL     1      -5.062  -2.920 -34.179  1.00  0.00     0.034 A 
HETATM   26 CL   UNL     1      -4.140  -4.299 -34.633  1.00  0.00    -0.084 Cl
HETATM   27  C   UNL     1      -4.497  -1.952 -33.353  1.00  0.00     0.024 A 
HETATM   28  C   UNL     1      -5.247  -0.835 -32.973  1.00  0.00     0.011 A 
ENDBRANCH  13  22
ENDBRANCH   1  13
BRANCH   6  29
HETATM   29  C   UNL     1      -3.233   7.175 -32.162  1.00  0.00     0.010 A 
HETATM   30  C   UNL     1      -2.093   7.793 -32.728  1.00  0.00     0.152 A 
HETATM   31  N   UNL     1      -1.797   8.961 -32.153  1.00  0.00    -0.187 NA
HETATM   32  N   UNL     1      -2.749   9.100 -31.216  1.00  0.00    -0.289 N 
HETATM   33  H   UNL     1      -2.739   9.935 -30.640  1.00  0.00     0.188 HD
HETATM   34  C   UNL     1      -3.633   8.060 -31.182  1.00  0.00     0.123 A 
ENDBRANCH   6  29
TORSDOF 6
ENDMDL
MODEL 9
REMARK VINA RESULT:      -7.7      3.496      7.145
REMARK  6 active torsions:
REMARK  status: ('A' for Active; 'I' for Inactive)
REMARK    1  A    between atoms: N_2  and  C_4 
REMARK    2  A    between atoms: C_4  and  C_5 
REMARK       I    between atoms: C_5  and  N_7 
REMARK    3  A    between atoms: N_7  and  C_8 
REMARK    4  A    between atoms: C_8  and  C_9 
REMARK    5  A    between atoms: C_8  and  C_26 
REMARK    6  A    between atoms: C_14  and  C_20 
ROOT
HETATM    1  C   UNL     1      -6.207   1.305 -32.857  1.00  0.00     0.135 A 
HETATM    2  N   UNL     1      -6.859   2.067 -33.680  1.00  0.00    -0.232 NA
HETATM    3  C   UNL     1      -8.259   2.087 -33.583  1.00  0.00     0.074 A 
HETATM    4  C   UNL     1      -8.984   2.870 -34.480  1.00  0.00     0.033 A 
HETATM    5  C   UNL     1     -10.383   2.876 -34.453  1.00  0.00     0.014 A 
HETATM    6  C   UNL     1     -11.085   2.093 -33.525  1.00  0.00    -0.022 A 
HETATM    7  C   UNL     1     -10.361   1.325 -32.606  1.00  0.00     0.031 A 
HETATM    8  C   UNL     1      -8.962   1.328 -32.645  1.00  0.00     0.061 A 
HETATM    9  C   UNL     1      -8.174   0.517 -31.702  1.00  0.00     0.259 A 
HETATM   10  O   UNL     1      -8.696  -0.125 -30.800  1.00  0.00    -0.267 OA
HETATM   11  N   UNL     1      -6.822   0.526 -31.909  1.00  0.00    -0.309 N 
HETATM   12  H   UNL     1      -6.258   0.047 -31.221  1.00  0.00     0.170 HD
ENDROOT
BRANCH   1  13
HETATM   13  C   UNL     1      -4.679   1.156 -32.979  1.00  0.00     0.187 C 
BRANCH  13  14
HETATM   14  N   UNL     1      -3.940   1.829 -31.915  1.00  0.00    -0.344 N 
HETATM   15  C   UNL     1      -3.259   3.012 -32.025  1.00  0.00     0.247 C 
HETATM   16  O   UNL     1      -2.392   3.263 -31.185  1.00  0.00    -0.272 OA
HETATM   17  H   UNL     1      -3.505   1.242 -31.213  1.00  0.00     0.163 HD
BRANCH  15  18
HETATM   18  C   UNL     1      -3.610   4.003 -33.138  1.00  0.00     0.373 C 
BRANCH  18  19
HETATM   19  N   UNL     1      -4.669   4.935 -32.699  1.00  0.00     0.088 N 
HETATM   20  C   UNL     1      -4.096   6.153 -32.115  1.00  0.00     0.310 C 
HETATM   21  C   UNL     1      -5.520   5.289 -33.839  1.00  0.00     0.310 C 
ENDBRANCH  18  19
ENDBRANCH  15  18
ENDBRANCH  13  14
BRANCH  13  22
HETATM   22  C   UNL     1      -4.330  -0.329 -33.046  1.00  0.00    -0.028 A 
HETATM   23  C   UNL     1      -4.885  -1.121 -34.066  1.00  0.00     0.011 A 
HETATM   24  C   UNL     1      -4.636  -2.495 -34.122  1.00  0.00     0.024 A 
HETATM   25  C   UNL     1      -3.830  -3.092 -33.156  1.00  0.00     0.034 A 
HETATM   26 CL   UNL     1      -3.528  -4.784 -33.218  1.00  0.00    -0.084 Cl
HETATM   27  C   UNL     1      -3.277  -2.328 -32.131  1.00  0.00     0.024 A 
HETATM   28  C   UNL     1      -3.530  -0.954 -32.072  1.00  0.00     0.011 A 
ENDBRANCH  13  22
ENDBRANCH   1  13
BRANCH   6  29
HETATM   29  C   UNL     1     -12.536   2.073 -33.541  1.00  0.00     0.010 A 
HETATM   30  C   UNL     1     -13.451   1.000 -33.658  1.00  0.00     0.152 A 
HETATM   31  N   UNL     1     -14.725   1.395 -33.589  1.00  0.00    -0.187 NA
HETATM   32  N   UNL     1     -14.633   2.724 -33.422  1.00  0.00    -0.289 N 
HETATM   33  H   UNL     1     -15.491   3.259 -33.333  1.00  0.00     0.188 HD
HETATM   34  C   UNL     1     -13.346   3.179 -33.385  1.00  0.00     0.123 A 
ENDBRANCH   6  29
TORSDOF 6
ENDMDL
MODEL 10
REMARK VINA RESULT:      -7.6      3.394      5.492
REMARK  6 active torsions:
REMARK  status: ('A' for Active; 'I' for Inactive)
REMARK    1  A    between atoms: N_2  and  C_4 
REMARK    2  A    between atoms: C_4  and  C_5 
REMARK       I    between atoms: C_5  and  N_7 
REMARK    3  A    between atoms: N_7  and  C_8 
REMARK    4  A    between atoms: C_8  and  C_9 
REMARK    5  A    between atoms: C_8  and  C_26 
REMARK    6  A    between atoms: C_14  and  C_20 
ROOT
HETATM    1  C   UNL     1      -4.724   4.159 -31.691  1.00  0.00     0.135 A 
HETATM    2  N   UNL     1      -3.942   3.127 -31.605  1.00  0.00    -0.232 NA
HETATM    3  C   UNL     1      -4.339   1.949 -32.257  1.00  0.00     0.074 A 
HETATM    4  C   UNL     1      -3.533   0.817 -32.149  1.00  0.00     0.033 A 
HETATM    5  C   UNL     1      -3.920  -0.393 -32.738  1.00  0.00     0.014 A 
HETATM    6  C   UNL     1      -5.126  -0.492 -33.446  1.00  0.00    -0.022 A 
HETATM    7  C   UNL     1      -5.926   0.650 -33.579  1.00  0.00     0.031 A 
HETATM    8  C   UNL     1      -5.527   1.853 -32.985  1.00  0.00     0.061 A 
HETATM    9  C   UNL     1      -6.356   3.064 -33.092  1.00  0.00     0.259 A 
HETATM   10  O   UNL     1      -7.378   3.098 -33.767  1.00  0.00    -0.267 OA
HETATM   11  N   UNL     1      -5.909   4.146 -32.383  1.00  0.00    -0.309 N 
HETATM   12  H   UNL     1      -6.415   5.010 -32.513  1.00  0.00     0.170 HD
ENDROOT
BRANCH   1  13
HETATM   13  C   UNL     1      -4.400   5.448 -30.913  1.00  0.00     0.187 C 
BRANCH  13  14
HETATM   14  N   UNL     1      -3.924   6.537 -31.760  1.00  0.00    -0.344 N 
HETATM   15  C   UNL     1      -2.764   7.245 -31.594  1.00  0.00     0.247 C 
HETATM   16  O   UNL     1      -2.675   8.350 -32.135  1.00  0.00    -0.272 OA
HETATM   17  H   UNL     1      -4.626   7.120 -32.201  1.00  0.00     0.163 HD
BRANCH  15  18
HETATM   18  C   UNL     1      -1.603   6.646 -30.795  1.00  0.00     0.373 C 
BRANCH  18  19
HETATM   19  N   UNL     1      -0.522   6.194 -31.694  1.00  0.00     0.088 N 
HETATM   20  C   UNL     1       0.574   5.576 -30.939  1.00  0.00     0.310 C 
HETATM   21  C   UNL     1      -1.054   5.233 -32.664  1.00  0.00     0.310 C 
ENDBRANCH  18  19
ENDBRANCH  15  18
ENDBRANCH  13  14
BRANCH  13  22
HETATM   22  C   UNL     1      -5.630   5.864 -30.109  1.00  0.00    -0.028 A 
HETATM   23  C   UNL     1      -6.288   7.064 -30.431  1.00  0.00     0.011 A 
HETATM   24  C   UNL     1      -7.380   7.505 -29.677  1.00  0.00     0.024 A 
HETATM   25  C   UNL     1      -7.823   6.752 -28.593  1.00  0.00     0.034 A 
HETATM   26 CL   UNL     1      -9.161   7.298 -27.661  1.00  0.00    -0.084 Cl
HETATM   27  C   UNL     1      -7.180   5.565 -28.252  1.00  0.00     0.024 A 
HETATM   28  C   UNL     1      -6.085   5.125 -29.002  1.00  0.00     0.011 A 
ENDBRANCH  13  22
ENDBRANCH   1  13
BRANCH   6  29
HETATM   29  C   UNL     1      -5.536  -1.764 -34.011  1.00  0.00     0.010 A 
HETATM   30  C   UNL     1      -6.815  -2.259 -34.358  1.00  0.00     0.152 A 
HETATM   31  N   UNL     1      -6.770  -3.481 -34.895  1.00  0.00    -0.187 NA
HETATM   32  N   UNL     1      -5.459  -3.775 -34.898  1.00  0.00    -0.289 N 
HETATM   33  H   UNL     1      -5.167  -4.670 -35.275  1.00  0.00     0.188 HD
HETATM   34  C   UNL     1      -4.679  -2.780 -34.381  1.00  0.00     0.123 A 
ENDBRANCH   6  29
TORSDOF 6
ENDMDL
