MODEL 1
REMARK VINA RESULT:     -10.8      0.000      0.000
REMARK  4 active torsions:
REMARK  status: ('A' for Active; 'I' for Inactive)
REMARK    1  A    between atoms: C_2  and  C_3 
REMARK    2  A    between atoms: N_16  and  C_17 
REMARK    3  A    between atoms: C_17  and  C_18 
REMARK       I    between atoms: C_18  and  N_19 
REMARK    4  A    between atoms: N_19  and  C_20 
ROOT
HETATM    1  C   UNL     1      -8.872   0.863 -34.283  1.00  0.00     0.054 C 
HETATM    2  C   UNL     1      -7.432   1.099 -33.825  1.00  0.00     0.140 C 
HETATM    3  N   UNL     1      -6.856   2.180 -34.598  1.00  0.00    -0.321 N 
HETATM    4  C   UNL     1      -6.330   3.169 -33.802  1.00  0.00     0.326 C 
HETATM    5  O   UNL     1      -5.635   4.076 -34.225  1.00  0.00    -0.247 OA
HETATM    6  N   UNL     1      -6.693   2.931 -32.515  1.00  0.00    -0.259 N 
HETATM    7  C   UNL     1      -7.402   1.766 -32.426  1.00  0.00     0.261 C 
HETATM    8  O   UNL     1      -7.894   1.313 -31.400  1.00  0.00    -0.270 OA
HETATM    9  H   UNL     1      -6.613   2.126 -35.578  1.00  0.00     0.165 HD
ENDROOT
BRANCH   6  10
HETATM   10  C   UNL     1      -6.250   3.732 -31.396  1.00  0.00     0.240 C 
BRANCH  10  11
HETATM   11  C   UNL     1      -4.730   3.803 -31.295  1.00  0.00     0.240 C 
HETATM   12  N   UNL     1      -4.194   5.043 -31.577  1.00  0.00    -0.324 N 
HETATM   13  H   UNL     1      -4.819   5.848 -31.628  1.00  0.00     0.169 HD
HETATM   14  O   UNL     1      -4.097   2.840 -30.861  1.00  0.00    -0.271 OA
BRANCH  12  15
HETATM   15  C   UNL     1      -2.819   5.399 -31.547  1.00  0.00     0.064 A 
HETATM   16  C   UNL     1      -2.427   6.325 -30.567  1.00  0.00     0.093 A 
HETATM   17  C   UNL     1      -1.061   6.684 -30.491  1.00  0.00    -0.005 A 
HETATM   18  N   UNL     1      -3.344   6.838 -29.712  1.00  0.00    -0.258 NA
HETATM   19  C   UNL     1      -0.663   7.582 -29.492  1.00  0.00     0.015 A 
HETATM   20  C   UNL     1      -0.130   6.142 -31.390  1.00  0.00     0.014 A 
HETATM   21  C   UNL     1      -1.603   8.094 -28.608  1.00  0.00     0.020 A 
HETATM   22  C   UNL     1      -2.918   7.697 -28.759  1.00  0.00     0.117 A 
HETATM   23  C   UNL     1      -0.541   5.243 -32.367  1.00  0.00     0.003 A 
HETATM   24  C   UNL     1      -1.882   4.872 -32.445  1.00  0.00     0.032 A 
ENDBRANCH  12  15
ENDBRANCH  10  11
ENDBRANCH   6  10
BRANCH   2  25
HETATM   25  C   UNL     1      -6.555  -0.158 -33.841  1.00  0.00    -0.020 A 
HETATM   26  C   UNL     1      -7.019  -1.388 -34.353  1.00  0.00     0.022 A 
HETATM   27  C   UNL     1      -6.207  -2.537 -34.394  1.00  0.00    -0.025 A 
HETATM   28  C   UNL     1      -4.884  -2.464 -33.915  1.00  0.00    -0.026 A 
HETATM   29  C   UNL     1      -6.684  -3.755 -34.910  1.00  0.00     0.012 A 
HETATM   30  C   UNL     1      -4.408  -1.244 -33.417  1.00  0.00     0.013 A 
HETATM   31  C   UNL     1      -4.071  -3.611 -33.957  1.00  0.00     0.012 A 
HETATM   32  C   UNL     1      -5.226  -0.109 -33.389  1.00  0.00     0.011 A 
HETATM   33  C   UNL     1      -4.561  -4.813 -34.470  1.00  0.00     0.001 A 
HETATM   34  C   UNL     1      -5.866  -4.885 -34.947  1.00  0.00     0.001 A 
ENDBRANCH   2  25
TORSDOF 4
ENDMDL
MODEL 2
REMARK VINA RESULT:     -10.7      3.714      8.141
REMARK  4 active torsions:
REMARK  status: ('A' for Active; 'I' for Inactive)
REMARK    1  A    between atoms: C_2  and  C_3 
REMARK    2  A    between atoms: N_16  and  C_17 
REMARK    3  A    between atoms: C_17  and  C_18 
REMARK       I    between atoms: C_18  and  N_19 
REMARK    4  A    between atoms: N_19  and  C_20 
ROOT
HETATM    1  C   UNL     1      -4.786   2.296 -31.972  1.00  0.00     0.054 C 
HETATM    2  C   UNL     1      -6.229   1.885 -32.265  1.00  0.00     0.140 C 
HETATM    3  N   UNL     1      -7.007   1.968 -31.045  1.00  0.00    -0.321 N 
HETATM    4  C   UNL     1      -8.134   2.739 -31.196  1.00  0.00     0.326 C 
HETATM    5  O   UNL     1      -9.026   2.798 -30.369  1.00  0.00    -0.247 OA
HETATM    6  N   UNL     1      -8.075   3.366 -32.400  1.00  0.00    -0.259 N 
HETATM    7  C   UNL     1      -6.957   2.981 -33.085  1.00  0.00     0.261 C 
HETATM    8  O   UNL     1      -6.616   3.407 -34.182  1.00  0.00    -0.270 OA
HETATM    9  H   UNL     1      -6.913   1.345 -30.254  1.00  0.00     0.165 HD
ENDROOT
BRANCH   6  10
HETATM   10  C   UNL     1      -9.134   4.201 -32.922  1.00  0.00     0.240 C 
BRANCH  10  11
HETATM   11  C   UNL     1     -10.240   3.390 -33.590  1.00  0.00     0.240 C 
HETATM   12  N   UNL     1     -11.108   2.772 -32.712  1.00  0.00    -0.324 N 
HETATM   13  H   UNL     1     -11.090   3.048 -31.729  1.00  0.00     0.169 HD
HETATM   14  O   UNL     1     -10.379   3.429 -34.812  1.00  0.00    -0.271 OA
BRANCH  12  15
HETATM   15  C   UNL     1     -12.231   1.971 -33.052  1.00  0.00     0.064 A 
HETATM   16  C   UNL     1     -13.493   2.467 -32.690  1.00  0.00     0.093 A 
HETATM   17  C   UNL     1     -14.636   1.709 -33.035  1.00  0.00    -0.005 A 
HETATM   18  N   UNL     1     -13.598   3.653 -32.044  1.00  0.00    -0.258 NA
HETATM   19  C   UNL     1     -15.898   2.218 -32.705  1.00  0.00     0.015 A 
HETATM   20  C   UNL     1     -14.503   0.481 -33.701  1.00  0.00     0.014 A 
HETATM   21  C   UNL     1     -16.002   3.442 -32.055  1.00  0.00     0.020 A 
HETATM   22  C   UNL     1     -14.834   4.112 -31.749  1.00  0.00     0.117 A 
HETATM   23  C   UNL     1     -13.243  -0.003 -34.032  1.00  0.00     0.003 A 
HETATM   24  C   UNL     1     -12.109   0.740 -33.709  1.00  0.00     0.032 A 
ENDBRANCH  12  15
ENDBRANCH  10  11
ENDBRANCH   6  10
BRANCH   2  25
HETATM   25  C   UNL     1      -6.367   0.520 -32.949  1.00  0.00    -0.020 A 
HETATM   26  C   UNL     1      -5.280  -0.372 -33.064  1.00  0.00     0.022 A 
HETATM   27  C   UNL     1      -5.410  -1.638 -33.667  1.00  0.00    -0.025 A 
HETATM   28  C   UNL     1      -6.664  -2.037 -34.171  1.00  0.00    -0.026 A 
HETATM   29  C   UNL     1      -4.317  -2.516 -33.771  1.00  0.00     0.012 A 
HETATM   30  C   UNL     1      -7.753  -1.164 -34.050  1.00  0.00     0.013 A 
HETATM   31  C   UNL     1      -6.794  -3.301 -34.772  1.00  0.00     0.012 A 
HETATM   32  C   UNL     1      -7.609   0.088 -33.442  1.00  0.00     0.011 A 
HETATM   33  C   UNL     1      -5.699  -4.160 -34.870  1.00  0.00     0.001 A 
HETATM   34  C   UNL     1      -4.461  -3.769 -34.369  1.00  0.00     0.001 A 
ENDBRANCH   2  25
TORSDOF 4
ENDMDL
MODEL 3
REMARK VINA RESULT:     -10.6      1.899      3.396
REMARK  4 active torsions:
REMARK  status: ('A' for Active; 'I' for Inactive)
REMARK    1  A    between atoms: C_2  and  C_3 
REMARK    2  A    between atoms: N_16  and  C_17 
REMARK    3  A    between atoms: C_17  and  C_18 
REMARK       I    between atoms: C_18  and  N_19 
REMARK    4  A    between atoms: N_19  and  C_20 
ROOT
HETATM    1  C   UNL     1      -5.201   3.017 -30.580  1.00  0.00     0.054 C 
HETATM    2  C   UNL     1      -4.727   2.860 -32.025  1.00  0.00     0.140 C 
HETATM    3  N   UNL     1      -5.542   3.689 -32.889  1.00  0.00    -0.321 N 
HETATM    4  C   UNL     1      -4.788   4.530 -33.670  1.00  0.00     0.326 C 
HETATM    5  O   UNL     1      -5.242   5.178 -34.596  1.00  0.00    -0.247 OA
HETATM    6  N   UNL     1      -3.498   4.477 -33.248  1.00  0.00    -0.259 N 
HETATM    7  C   UNL     1      -3.364   3.567 -32.237  1.00  0.00     0.261 C 
HETATM    8  O   UNL     1      -2.326   3.330 -31.631  1.00  0.00    -0.270 OA
HETATM    9  H   UNL     1      -6.513   3.515 -33.112  1.00  0.00     0.165 HD
ENDROOT
BRANCH   6  10
HETATM   10  C   UNL     1      -2.413   5.180 -33.894  1.00  0.00     0.240 C 
BRANCH  10  11
HETATM   11  C   UNL     1      -2.034   6.466 -33.165  1.00  0.00     0.240 C 
HETATM   12  N   UNL     1      -2.331   6.468 -31.817  1.00  0.00    -0.324 N 
HETATM   13  H   UNL     1      -2.577   5.585 -31.367  1.00  0.00     0.169 HD
HETATM   14  O   UNL     1      -1.398   7.341 -33.752  1.00  0.00    -0.271 OA
BRANCH  12  15
HETATM   15  C   UNL     1      -2.078   7.519 -30.895  1.00  0.00     0.064 A 
HETATM   16  C   UNL     1      -1.138   7.261 -29.885  1.00  0.00     0.093 A 
HETATM   17  C   UNL     1      -0.841   8.293 -28.965  1.00  0.00    -0.005 A 
HETATM   18  N   UNL     1      -0.524   6.055 -29.821  1.00  0.00    -0.258 NA
HETATM   19  C   UNL     1       0.122   8.048 -27.978  1.00  0.00     0.015 A 
HETATM   20  C   UNL     1      -1.492   9.533 -29.050  1.00  0.00     0.014 A 
HETATM   21  C   UNL     1       0.759   6.815 -27.923  1.00  0.00     0.020 A 
HETATM   22  C   UNL     1       0.403   5.861 -28.857  1.00  0.00     0.117 A 
HETATM   23  C   UNL     1      -2.436   9.762 -30.044  1.00  0.00     0.003 A 
HETATM   24  C   UNL     1      -2.728   8.758 -30.965  1.00  0.00     0.032 A 
ENDBRANCH  12  15
ENDBRANCH  10  11
ENDBRANCH   6  10
BRANCH   2  25
HETATM   25  C   UNL     1      -4.660   1.407 -32.509  1.00  0.00    -0.020 A 
HETATM   26  C   UNL     1      -5.731   0.797 -33.195  1.00  0.00     0.022 A 
HETATM   27  C   UNL     1      -5.663  -0.528 -33.666  1.00  0.00    -0.025 A 
HETATM   28  C   UNL     1      -4.488  -1.276 -33.453  1.00  0.00    -0.026 A 
HETATM   29  C   UNL     1      -6.738  -1.120 -34.351  1.00  0.00     0.012 A 
HETATM   30  C   UNL     1      -3.412  -0.676 -32.785  1.00  0.00     0.013 A 
HETATM   31  C   UNL     1      -4.418  -2.599 -33.924  1.00  0.00     0.012 A 
HETATM   32  C   UNL     1      -3.494   0.645 -32.329  1.00  0.00     0.011 A 
HETATM   33  C   UNL     1      -5.496  -3.173 -34.599  1.00  0.00     0.001 A 
HETATM   34  C   UNL     1      -6.655  -2.434 -34.814  1.00  0.00     0.001 A 
ENDBRANCH   2  25
TORSDOF 4
ENDMDL
MODEL 4
REMARK VINA RESULT:     -10.6      1.513      9.123
REMARK  4 active torsions:
REMARK  status: ('A' for Active; 'I' for Inactive)
REMARK    1  A    between atoms: C_2  and  C_3 
REMARK    2  A    between atoms: N_16  and  C_17 
REMARK    3  A    between atoms: C_17  and  C_18 
REMARK       I    between atoms: C_18  and  N_19 
REMARK    4  A    between atoms: N_19  and  C_20 
ROOT
HETATM    1  C   UNL     1      -2.170   4.795 -33.702  1.00  0.00     0.054 C 
HETATM    2  C   UNL     1      -2.738   5.136 -32.325  1.00  0.00     0.140 C 
HETATM    3  N   UNL     1      -3.979   5.866 -32.486  1.00  0.00    -0.321 N 
HETATM    4  C   UNL     1      -5.016   5.294 -31.790  1.00  0.00     0.326 C 
HETATM    5  O   UNL     1      -6.097   5.832 -31.628  1.00  0.00    -0.247 OA
HETATM    6  N   UNL     1      -4.610   4.087 -31.316  1.00  0.00    -0.259 N 
HETATM    7  C   UNL     1      -3.299   3.867 -31.631  1.00  0.00     0.261 C 
HETATM    8  O   UNL     1      -2.669   2.849 -31.371  1.00  0.00    -0.270 OA
HETATM    9  H   UNL     1      -4.053   6.813 -32.832  1.00  0.00     0.165 HD
ENDROOT
BRANCH   6  10
HETATM   10  C   UNL     1      -5.425   3.242 -30.472  1.00  0.00     0.240 C 
BRANCH  10  11
HETATM   11  C   UNL     1      -6.208   2.203 -31.268  1.00  0.00     0.240 C 
HETATM   12  N   UNL     1      -5.606   1.811 -32.447  1.00  0.00    -0.324 N 
HETATM   13  H   UNL     1      -4.630   2.064 -32.607  1.00  0.00     0.169 HD
HETATM   14  O   UNL     1      -7.220   1.693 -30.787  1.00  0.00    -0.271 OA
BRANCH  12  15
HETATM   15  C   UNL     1      -6.100   0.855 -33.374  1.00  0.00     0.064 A 
HETATM   16  C   UNL     1      -5.426  -0.376 -33.431  1.00  0.00     0.093 A 
HETATM   17  C   UNL     1      -5.906  -1.362 -34.323  1.00  0.00    -0.005 A 
HETATM   18  N   UNL     1      -4.359  -0.604 -32.629  1.00  0.00    -0.258 NA
HETATM   19  C   UNL     1      -5.256  -2.603 -34.357  1.00  0.00     0.015 A 
HETATM   20  C   UNL     1      -7.012  -1.102 -35.147  1.00  0.00     0.014 A 
HETATM   21  C   UNL     1      -4.170  -2.838 -33.523  1.00  0.00     0.020 A 
HETATM   22  C   UNL     1      -3.764  -1.816 -32.687  1.00  0.00     0.117 A 
HETATM   23  C   UNL     1      -7.651   0.131 -35.092  1.00  0.00     0.003 A 
HETATM   24  C   UNL     1      -7.197   1.107 -34.207  1.00  0.00     0.032 A 
ENDBRANCH  12  15
ENDBRANCH  10  11
ENDBRANCH   6  10
BRANCH   2  25
HETATM   25  C   UNL     1      -1.754   5.862 -31.401  1.00  0.00    -0.020 A 
HETATM   26  C   UNL     1      -2.190   6.725 -30.374  1.00  0.00     0.022 A 
HETATM   27  C   UNL     1      -1.289   7.373 -29.506  1.00  0.00    -0.025 A 
HETATM   28  C   UNL     1       0.094   7.154 -29.659  1.00  0.00    -0.026 A 
HETATM   29  C   UNL     1      -1.741   8.227 -28.485  1.00  0.00     0.012 A 
HETATM   30  C   UNL     1       0.538   6.288 -30.667  1.00  0.00     0.013 A 
HETATM   31  C   UNL     1       0.994   7.799 -28.792  1.00  0.00     0.012 A 
HETATM   32  C   UNL     1      -0.371   5.647 -31.517  1.00  0.00     0.011 A 
HETATM   33  C   UNL     1       0.530   8.647 -27.785  1.00  0.00     0.001 A 
HETATM   34  C   UNL     1      -0.836   8.861 -27.631  1.00  0.00     0.001 A 
ENDBRANCH   2  25
TORSDOF 4
ENDMDL
MODEL 5
REMARK VINA RESULT:     -10.5      2.590      6.976
REMARK  4 active torsions:
REMARK  status: ('A' for Active; 'I' for Inactive)
REMARK    1  A    between atoms: C_2  and  C_3 
REMARK    2  A    between atoms: N_16  and  C_17 
REMARK    3  A    between atoms: C_17  and  C_18 
REMARK       I    between atoms: C_18  and  N_19 
REMARK    4  A    between atoms: N_19  and  C_20 
ROOT
HETATM    1  C   UNL     1      -2.689   3.770 -32.295  1.00  0.00     0.054 C 
HETATM    2  C   UNL     1      -4.077   3.209 -31.983  1.00  0.00     0.140 C 
HETATM    3  N   UNL     1      -4.346   3.358 -30.567  1.00  0.00    -0.321 N 
HETATM    4  C   UNL     1      -5.531   4.010 -30.327  1.00  0.00     0.326 C 
HETATM    5  O   UNL     1      -6.049   4.083 -29.227  1.00  0.00    -0.247 OA
HETATM    6  N   UNL     1      -6.002   4.506 -31.501  1.00  0.00    -0.259 N 
HETATM    7  C   UNL     1      -5.184   4.144 -32.534  1.00  0.00     0.261 C 
HETATM    8  O   UNL     1      -5.332   4.477 -33.704  1.00  0.00    -0.270 OA
HETATM    9  H   UNL     1      -3.890   2.835 -29.832  1.00  0.00     0.165 HD
ENDROOT
BRANCH   6  10
HETATM   10  C   UNL     1      -7.271   5.186 -31.632  1.00  0.00     0.240 C 
BRANCH  10  11
HETATM   11  C   UNL     1      -8.450   4.218 -31.679  1.00  0.00     0.240 C 
HETATM   12  N   UNL     1      -8.426   3.337 -32.742  1.00  0.00    -0.324 N 
HETATM   13  H   UNL     1      -7.567   3.247 -33.285  1.00  0.00     0.169 HD
HETATM   14  O   UNL     1      -9.253   4.181 -30.746  1.00  0.00    -0.271 OA
BRANCH  12  15
HETATM   15  C   UNL     1      -9.381   2.325 -33.024  1.00  0.00     0.064 A 
HETATM   16  C   UNL     1     -10.374   2.638 -33.966  1.00  0.00     0.093 A 
HETATM   17  C   UNL     1     -11.327   1.645 -34.292  1.00  0.00    -0.005 A 
HETATM   18  N   UNL     1     -10.391   3.857 -34.555  1.00  0.00    -0.258 NA
HETATM   19  C   UNL     1     -12.297   1.944 -35.257  1.00  0.00     0.015 A 
HETATM   20  C   UNL     1     -11.291   0.389 -33.666  1.00  0.00     0.014 A 
HETATM   21  C   UNL     1     -12.303   3.191 -35.869  1.00  0.00     0.020 A 
HETATM   22  C   UNL     1     -11.339   4.104 -35.486  1.00  0.00     0.117 A 
HETATM   23  C   UNL     1     -10.314   0.106 -32.720  1.00  0.00     0.003 A 
HETATM   24  C   UNL     1      -9.361   1.071 -32.399  1.00  0.00     0.032 A 
ENDBRANCH  12  15
ENDBRANCH  10  11
ENDBRANCH   6  10
BRANCH   2  25
HETATM   25  C   UNL     1      -4.296   1.772 -32.467  1.00  0.00    -0.020 A 
HETATM   26  C   UNL     1      -5.470   1.382 -33.147  1.00  0.00     0.022 A 
HETATM   27  C   UNL     1      -5.663   0.070 -33.618  1.00  0.00    -0.025 A 
HETATM   28  C   UNL     1      -4.655  -0.893 -33.412  1.00  0.00    -0.026 A 
HETATM   29  C   UNL     1      -6.837  -0.301 -34.296  1.00  0.00     0.012 A 
HETATM   30  C   UNL     1      -3.479  -0.514 -32.750  1.00  0.00     0.013 A 
HETATM   31  C   UNL     1      -4.847  -2.204 -33.882  1.00  0.00     0.012 A 
HETATM   32  C   UNL     1      -3.300   0.797 -32.294  1.00  0.00     0.011 A 
HETATM   33  C   UNL     1      -6.019  -2.556 -34.552  1.00  0.00     0.001 A 
HETATM   34  C   UNL     1      -7.014  -1.606 -34.759  1.00  0.00     0.001 A 
ENDBRANCH   2  25
TORSDOF 4
ENDMDL
MODEL 6
REMARK VINA RESULT:     -10.2      1.576      3.071
REMARK  4 active torsions:
REMARK  status: ('A' for Active; 'I' for Inactive)
REMARK    1  A    between atoms: C_2  and  C_3 
REMARK    2  A    between atoms: N_16  and  C_17 
REMARK    3  A    between atoms: C_17  and  C_18 
REMARK       I    between atoms: C_18  and  N_19 
REMARK    4  A    between atoms: N_19  and  C_20 
ROOT
HETATM    1  C   UNL     1      -6.304   3.256 -31.468  1.00  0.00     0.054 C 
HETATM    2  C   UNL     1      -5.496   2.980 -32.736  1.00  0.00     0.140 C 
HETATM    3  N   UNL     1      -5.725   4.045 -33.691  1.00  0.00    -0.321 N 
HETATM    4  C   UNL     1      -4.554   4.609 -34.136  1.00  0.00     0.326 C 
HETATM    5  O   UNL     1      -4.493   5.387 -35.071  1.00  0.00    -0.247 OA
HETATM    6  N   UNL     1      -3.528   4.131 -33.385  1.00  0.00    -0.259 N 
HETATM    7  C   UNL     1      -3.983   3.209 -32.485  1.00  0.00     0.261 C 
HETATM    8  O   UNL     1      -3.296   2.636 -31.649  1.00  0.00    -0.270 OA
HETATM    9  H   UNL     1      -6.591   4.200 -34.190  1.00  0.00     0.165 HD
ENDROOT
BRANCH   6  10
HETATM   10  C   UNL     1      -2.139   4.455 -33.626  1.00  0.00     0.240 C 
BRANCH  10  11
HETATM   11  C   UNL     1      -1.665   5.644 -32.795  1.00  0.00     0.240 C 
HETATM   12  N   UNL     1      -1.447   5.360 -31.462  1.00  0.00    -0.324 N 
HETATM   13  H   UNL     1      -1.413   4.384 -31.167  1.00  0.00     0.169 HD
HETATM   14  O   UNL     1      -1.388   6.709 -33.347  1.00  0.00    -0.271 OA
BRANCH  12  15
HETATM   15  C   UNL     1      -0.992   6.266 -30.466  1.00  0.00     0.064 A 
HETATM   16  C   UNL     1      -1.975   6.867 -29.663  1.00  0.00     0.093 A 
HETATM   17  C   UNL     1      -1.558   7.754 -28.644  1.00  0.00    -0.005 A 
HETATM   18  N   UNL     1      -3.283   6.576 -29.859  1.00  0.00    -0.258 NA
HETATM   19  C   UNL     1      -2.534   8.328 -27.820  1.00  0.00     0.015 A 
HETATM   20  C   UNL     1      -0.196   8.043 -28.463  1.00  0.00     0.014 A 
HETATM   21  C   UNL     1      -3.874   8.017 -28.015  1.00  0.00     0.020 A 
HETATM   22  C   UNL     1      -4.193   7.146 -29.038  1.00  0.00     0.117 A 
HETATM   23  C   UNL     1       0.759   7.455 -29.282  1.00  0.00     0.003 A 
HETATM   24  C   UNL     1       0.363   6.568 -30.282  1.00  0.00     0.032 A 
ENDBRANCH  12  15
ENDBRANCH  10  11
ENDBRANCH   6  10
BRANCH   2  25
HETATM   25  C   UNL     1      -5.736   1.594 -33.345  1.00  0.00    -0.020 A 
HETATM   26  C   UNL     1      -4.872   0.507 -33.094  1.00  0.00     0.022 A 
HETATM   27  C   UNL     1      -5.104  -0.775 -33.629  1.00  0.00    -0.025 A 
HETATM   28  C   UNL     1      -6.238  -0.989 -34.438  1.00  0.00    -0.026 A 
HETATM   29  C   UNL     1      -4.235  -1.848 -33.367  1.00  0.00     0.012 A 
HETATM   30  C   UNL     1      -7.110   0.079 -34.683  1.00  0.00     0.013 A 
HETATM   31  C   UNL     1      -6.471  -2.269 -34.972  1.00  0.00     0.012 A 
HETATM   32  C   UNL     1      -6.868   1.346 -34.138  1.00  0.00     0.011 A 
HETATM   33  C   UNL     1      -5.597  -3.323 -34.704  1.00  0.00     0.001 A 
HETATM   34  C   UNL     1      -4.480  -3.114 -33.902  1.00  0.00     0.001 A 
ENDBRANCH   2  25
TORSDOF 4
ENDMDL
MODEL 7
REMARK VINA RESULT:     -10.2      3.096      6.461
REMARK  4 active torsions:
REMARK  status: ('A' for Active; 'I' for Inactive)
REMARK    1  A    between atoms: C_2  and  C_3 
REMARK    2  A    between atoms: N_16  and  C_17 
REMARK    3  A    between atoms: C_17  and  C_18 
REMARK       I    between atoms: C_18  and  N_19 
REMARK    4  A    between atoms: N_19  and  C_20 
ROOT
HETATM    1  C   UNL     1      -2.926   0.278 -30.978  1.00  0.00     0.054 C 
HETATM    2  C   UNL     1      -4.297   0.696 -31.509  1.00  0.00     0.140 C 
HETATM    3  N   UNL     1      -5.160   1.030 -30.395  1.00  0.00    -0.321 N 
HETATM    4  C   UNL     1      -5.717   2.279 -30.521  1.00  0.00     0.326 C 
HETATM    5  O   UNL     1      -6.612   2.694 -29.806  1.00  0.00    -0.247 OA
HETATM    6  N   UNL     1      -5.125   2.917 -31.565  1.00  0.00    -0.259 N 
HETATM    7  C   UNL     1      -4.225   2.093 -32.178  1.00  0.00     0.261 C 
HETATM    8  O   UNL     1      -3.511   2.404 -33.124  1.00  0.00    -0.270 OA
HETATM    9  H   UNL     1      -5.538   0.364 -29.735  1.00  0.00     0.165 HD
ENDROOT
BRANCH   6  10
HETATM   10  C   UNL     1      -5.520   4.227 -32.032  1.00  0.00     0.240 C 
BRANCH  10  11
HETATM   11  C   UNL     1      -6.506   4.159 -33.195  1.00  0.00     0.240 C 
HETATM   12  N   UNL     1      -7.834   4.212 -32.823  1.00  0.00    -0.324 N 
HETATM   13  H   UNL     1      -8.066   4.490 -31.868  1.00  0.00     0.169 HD
HETATM   14  O   UNL     1      -6.093   4.192 -34.354  1.00  0.00    -0.271 OA
BRANCH  12  15
HETATM   15  C   UNL     1      -8.959   4.183 -33.691  1.00  0.00     0.064 A 
HETATM   16  C   UNL     1      -9.699   2.990 -33.724  1.00  0.00     0.093 A 
HETATM   17  C   UNL     1     -10.841   2.933 -34.557  1.00  0.00    -0.005 A 
HETATM   18  N   UNL     1      -9.328   1.938 -32.956  1.00  0.00    -0.258 NA
HETATM   19  C   UNL     1     -11.600   1.756 -34.566  1.00  0.00     0.015 A 
HETATM   20  C   UNL     1     -11.203   4.035 -35.347  1.00  0.00     0.014 A 
HETATM   21  C   UNL     1     -11.225   0.684 -33.767  1.00  0.00     0.020 A 
HETATM   22  C   UNL     1     -10.092   0.823 -32.989  1.00  0.00     0.117 A 
HETATM   23  C   UNL     1     -10.445   5.199 -35.316  1.00  0.00     0.003 A 
HETATM   24  C   UNL     1      -9.325   5.273 -34.490  1.00  0.00     0.032 A 
ENDBRANCH  12  15
ENDBRANCH  10  11
ENDBRANCH   6  10
BRANCH   2  25
HETATM   25  C   UNL     1      -4.941  -0.321 -32.457  1.00  0.00    -0.020 A 
HETATM   26  C   UNL     1      -4.321  -1.549 -32.770  1.00  0.00     0.022 A 
HETATM   27  C   UNL     1      -4.922  -2.499 -33.619  1.00  0.00    -0.025 A 
HETATM   28  C   UNL     1      -6.187  -2.223 -34.175  1.00  0.00    -0.026 A 
HETATM   29  C   UNL     1      -4.291  -3.719 -33.918  1.00  0.00     0.012 A 
HETATM   30  C   UNL     1      -6.819  -1.013 -33.860  1.00  0.00     0.013 A 
HETATM   31  C   UNL     1      -6.788  -3.171 -35.021  1.00  0.00     0.012 A 
HETATM   32  C   UNL     1      -6.210  -0.083 -33.009  1.00  0.00     0.011 A 
HETATM   33  C   UNL     1      -6.148  -4.377 -35.311  1.00  0.00     0.001 A 
HETATM   34  C   UNL     1      -4.901  -4.651 -34.759  1.00  0.00     0.001 A 
ENDBRANCH   2  25
TORSDOF 4
ENDMDL
MODEL 8
REMARK VINA RESULT:     -10.2      1.616      3.014
REMARK  4 active torsions:
REMARK  status: ('A' for Active; 'I' for Inactive)
REMARK    1  A    between atoms: C_2  and  C_3 
REMARK    2  A    between atoms: N_16  and  C_17 
REMARK    3  A    between atoms: C_17  and  C_18 
REMARK       I    between atoms: C_18  and  N_19 
REMARK    4  A    between atoms: N_19  and  C_20 
ROOT
HETATM    1  C   UNL     1      -6.463   2.607 -30.977  1.00  0.00     0.054 C 
HETATM    2  C   UNL     1      -5.760   2.436 -32.324  1.00  0.00     0.140 C 
HETATM    3  N   UNL     1      -6.123   3.536 -33.195  1.00  0.00    -0.321 N 
HETATM    4  C   UNL     1      -5.024   4.180 -33.709  1.00  0.00     0.326 C 
HETATM    5  O   UNL     1      -5.083   5.006 -34.602  1.00  0.00    -0.247 OA
HETATM    6  N   UNL     1      -3.913   3.716 -33.078  1.00  0.00    -0.259 N 
HETATM    7  C   UNL     1      -4.243   2.728 -32.194  1.00  0.00     0.261 C 
HETATM    8  O   UNL     1      -3.457   2.148 -31.454  1.00  0.00    -0.270 OA
HETATM    9  H   UNL     1      -7.037   3.672 -33.606  1.00  0.00     0.165 HD
ENDROOT
BRANCH   6  10
HETATM   10  C   UNL     1      -2.568   4.122 -33.422  1.00  0.00     0.240 C 
BRANCH  10  11
HETATM   11  C   UNL     1      -2.241   5.529 -32.933  1.00  0.00     0.240 C 
HETATM   12  N   UNL     1      -2.573   5.770 -31.614  1.00  0.00    -0.324 N 
HETATM   13  H   UNL     1      -2.810   4.977 -31.016  1.00  0.00     0.169 HD
HETATM   14  O   UNL     1      -1.610   6.300 -33.656  1.00  0.00    -0.271 OA
BRANCH  12  15
HETATM   15  C   UNL     1      -2.370   6.978 -30.896  1.00  0.00     0.064 A 
HETATM   16  C   UNL     1      -1.320   6.990 -29.964  1.00  0.00     0.093 A 
HETATM   17  C   UNL     1      -1.071   8.184 -29.249  1.00  0.00    -0.005 A 
HETATM   18  N   UNL     1      -0.561   5.883 -29.782  1.00  0.00    -0.258 NA
HETATM   19  C   UNL     1      -0.003   8.208 -28.343  1.00  0.00     0.015 A 
HETATM   20  C   UNL     1      -1.874   9.318 -29.452  1.00  0.00     0.014 A 
HETATM   21  C   UNL     1       0.782   7.076 -28.169  1.00  0.00     0.020 A 
HETATM   22  C   UNL     1       0.464   5.950 -28.903  1.00  0.00     0.117 A 
HETATM   23  C   UNL     1      -2.922   9.279 -30.364  1.00  0.00     0.003 A 
HETATM   24  C   UNL     1      -3.169   8.113 -31.085  1.00  0.00     0.032 A 
ENDBRANCH  12  15
ENDBRANCH  10  11
ENDBRANCH   6  10
BRANCH   2  25
HETATM   25  C   UNL     1      -5.991   1.072 -32.984  1.00  0.00    -0.020 A 
HETATM   26  C   UNL     1      -4.981   0.089 -33.043  1.00  0.00     0.022 A 
HETATM   27  C   UNL     1      -5.197  -1.175 -33.624  1.00  0.00    -0.025 A 
HETATM   28  C   UNL     1      -6.463  -1.479 -34.163  1.00  0.00    -0.026 A 
HETATM   29  C   UNL     1      -4.180  -2.144 -33.672  1.00  0.00     0.012 A 
HETATM   30  C   UNL     1      -7.478  -0.515 -34.098  1.00  0.00     0.013 A 
HETATM   31  C   UNL     1      -6.681  -2.741 -34.743  1.00  0.00     0.012 A 
HETATM   32  C   UNL     1      -7.248   0.735 -33.511  1.00  0.00     0.011 A 
HETATM   33  C   UNL     1      -5.660  -3.691 -34.785  1.00  0.00     0.001 A 
HETATM   34  C   UNL     1      -4.410  -3.394 -34.249  1.00  0.00     0.001 A 
ENDBRANCH   2  25
TORSDOF 4
ENDMDL
MODEL 9
REMARK VINA RESULT:      -9.8      2.732      6.658
REMARK  4 active torsions:
REMARK  status: ('A' for Active; 'I' for Inactive)
REMARK    1  A    between atoms: C_2  and  C_3 
REMARK    2  A    between atoms: N_16  and  C_17 
REMARK    3  A    between atoms: C_17  and  C_18 
REMARK       I    between atoms: C_18  and  N_19 
REMARK    4  A    between atoms: N_19  and  C_20 
ROOT
HETATM    1  C   UNL     1      -2.791   3.814 -31.542  1.00  0.00     0.054 C 
HETATM    2  C   UNL     1      -4.300   3.588 -31.453  1.00  0.00     0.140 C 
HETATM    3  N   UNL     1      -4.732   3.777 -30.083  1.00  0.00    -0.321 N 
HETATM    4  C   UNL     1      -5.759   4.683 -29.978  1.00  0.00     0.326 C 
HETATM    5  O   UNL     1      -6.401   4.860 -28.958  1.00  0.00    -0.247 OA
HETATM    6  N   UNL     1      -5.927   5.292 -31.181  1.00  0.00    -0.259 N 
HETATM    7  C   UNL     1      -5.072   4.764 -32.107  1.00  0.00     0.261 C 
HETATM    8  O   UNL     1      -4.967   5.138 -33.269  1.00  0.00    -0.270 OA
HETATM    9  H   UNL     1      -4.520   3.151 -29.317  1.00  0.00     0.165 HD
ENDROOT
BRANCH   6  10
HETATM   10  C   UNL     1      -6.973   6.251 -31.455  1.00  0.00     0.240 C 
BRANCH  10  11
HETATM   11  C   UNL     1      -8.272   5.587 -31.901  1.00  0.00     0.240 C 
HETATM   12  N   UNL     1      -8.137   4.727 -32.973  1.00  0.00    -0.324 N 
HETATM   13  H   UNL     1      -7.199   4.439 -33.256  1.00  0.00     0.169 HD
HETATM   14  O   UNL     1      -9.298   5.737 -31.240  1.00  0.00    -0.271 OA
BRANCH  12  15
HETATM   15  C   UNL     1      -9.169   3.967 -33.585  1.00  0.00     0.064 A 
HETATM   16  C   UNL     1      -9.347   2.655 -33.120  1.00  0.00     0.093 A 
HETATM   17  C   UNL     1     -10.382   1.876 -33.687  1.00  0.00    -0.005 A 
HETATM   18  N   UNL     1      -8.552   2.169 -32.136  1.00  0.00    -0.258 NA
HETATM   19  C   UNL     1     -10.583   0.578 -33.200  1.00  0.00     0.015 A 
HETATM   20  C   UNL     1     -11.191   2.400 -34.708  1.00  0.00     0.014 A 
HETATM   21  C   UNL     1      -9.775   0.088 -32.182  1.00  0.00     0.020 A 
HETATM   22  C   UNL     1      -8.783   0.914 -31.690  1.00  0.00     0.117 A 
HETATM   23  C   UNL     1     -10.985   3.694 -35.170  1.00  0.00     0.003 A 
HETATM   24  C   UNL     1      -9.976   4.476 -34.610  1.00  0.00     0.032 A 
ENDBRANCH  12  15
ENDBRANCH  10  11
ENDBRANCH   6  10
BRANCH   2  25
HETATM   25  C   UNL     1      -4.770   2.249 -32.030  1.00  0.00    -0.020 A 
HETATM   26  C   UNL     1      -5.583   2.174 -33.182  1.00  0.00     0.022 A 
HETATM   27  C   UNL     1      -5.993   0.945 -33.732  1.00  0.00    -0.025 A 
HETATM   28  C   UNL     1      -5.581  -0.256 -33.121  1.00  0.00    -0.026 A 
HETATM   29  C   UNL     1      -6.800   0.888 -34.881  1.00  0.00     0.012 A 
HETATM   30  C   UNL     1      -4.763  -0.194 -31.985  1.00  0.00     0.013 A 
HETATM   31  C   UNL     1      -5.990  -1.484 -33.670  1.00  0.00     0.012 A 
HETATM   32  C   UNL     1      -4.358   1.036 -31.455  1.00  0.00     0.011 A 
HETATM   33  C   UNL     1      -6.793  -1.523 -34.810  1.00  0.00     0.001 A 
HETATM   34  C   UNL     1      -7.198  -0.338 -35.416  1.00  0.00     0.001 A 
ENDBRANCH   2  25
TORSDOF 4
ENDMDL
MODEL 10
REMARK VINA RESULT:      -9.7      2.587      7.137
REMARK  4 active torsions:
REMARK  status: ('A' for Active; 'I' for Inactive)
REMARK    1  A    between atoms: C_2  and  C_3 
REMARK    2  A    between atoms: N_16  and  C_17 
REMARK    3  A    between atoms: C_17  and  C_18 
REMARK       I    between atoms: C_18  and  N_19 
REMARK    4  A    between atoms: N_19  and  C_20 
ROOT
HETATM    1  C   UNL     1      -8.185   6.976 -32.034  1.00  0.00     0.054 C 
HETATM    2  C   UNL     1      -7.731   5.522 -32.172  1.00  0.00     0.140 C 
HETATM    3  N   UNL     1      -8.295   4.740 -31.091  1.00  0.00    -0.321 N 
HETATM    4  C   UNL     1      -8.978   3.638 -31.544  1.00  0.00     0.326 C 
HETATM    5  O   UNL     1      -9.373   2.744 -30.817  1.00  0.00    -0.247 OA
HETATM    6  N   UNL     1      -9.095   3.723 -32.895  1.00  0.00    -0.259 N 
HETATM    7  C   UNL     1      -8.448   4.832 -33.361  1.00  0.00     0.261 C 
HETATM    8  O   UNL     1      -8.414   5.192 -34.532  1.00  0.00    -0.270 OA
HETATM    9  H   UNL     1      -8.020   4.810 -30.120  1.00  0.00     0.165 HD
ENDROOT
BRANCH   6  10
HETATM   10  C   UNL     1      -9.694   2.693 -33.714  1.00  0.00     0.240 C 
BRANCH  10  11
HETATM   11  C   UNL     1      -8.965   1.358 -33.598  1.00  0.00     0.240 C 
HETATM   12  N   UNL     1      -7.671   1.368 -34.079  1.00  0.00    -0.324 N 
HETATM   13  H   UNL     1      -7.229   2.266 -34.279  1.00  0.00     0.169 HD
HETATM   14  O   UNL     1      -9.488   0.422 -32.994  1.00  0.00    -0.271 OA
BRANCH  12  15
HETATM   15  C   UNL     1      -6.760   0.278 -34.084  1.00  0.00     0.064 A 
HETATM   16  C   UNL     1      -5.613   0.409 -33.287  1.00  0.00     0.093 A 
HETATM   17  C   UNL     1      -4.696  -0.667 -33.247  1.00  0.00    -0.005 A 
HETATM   18  N   UNL     1      -5.414   1.537 -32.563  1.00  0.00    -0.258 NA
HETATM   19  C   UNL     1      -3.568  -0.551 -32.425  1.00  0.00     0.015 A 
HETATM   20  C   UNL     1      -4.922  -1.824 -34.008  1.00  0.00     0.014 A 
HETATM   21  C   UNL     1      -3.374   0.601 -31.674  1.00  0.00     0.020 A 
HETATM   22  C   UNL     1      -4.315   1.607 -31.779  1.00  0.00     0.117 A 
HETATM   23  C   UNL     1      -6.053  -1.927 -34.808  1.00  0.00     0.003 A 
HETATM   24  C   UNL     1      -6.971  -0.879 -34.846  1.00  0.00     0.032 A 
ENDBRANCH  12  15
ENDBRANCH  10  11
ENDBRANCH   6  10
BRANCH   2  25
HETATM   25  C   UNL     1      -6.213   5.346 -32.284  1.00  0.00    -0.020 A 
HETATM   26  C   UNL     1      -5.544   5.393 -33.526  1.00  0.00     0.022 A 
HETATM   27  C   UNL     1      -4.146   5.260 -33.631  1.00  0.00    -0.025 A 
HETATM   28  C   UNL     1      -3.381   5.078 -32.461  1.00  0.00    -0.026 A 
HETATM   29  C   UNL     1      -3.495   5.312 -34.875  1.00  0.00     0.012 A 
HETATM   30  C   UNL     1      -4.034   5.044 -31.221  1.00  0.00     0.013 A 
HETATM   31  C   UNL     1      -1.986   4.946 -32.564  1.00  0.00     0.012 A 
HETATM   32  C   UNL     1      -5.423   5.184 -31.135  1.00  0.00     0.011 A 
HETATM   33  C   UNL     1      -1.355   4.997 -33.808  1.00  0.00     0.001 A 
HETATM   34  C   UNL     1      -2.108   5.180 -34.963  1.00  0.00     0.001 A 
ENDBRANCH   2  25
TORSDOF 4
ENDMDL
