MODEL 1
REMARK VINA RESULT:      -8.3      0.000      0.000
REMARK  3 active torsions:
REMARK  status: ('A' for Active; 'I' for Inactive)
REMARK       I    between atoms: C_2  and  N_3 
REMARK    1  A    between atoms: N_3  and  N_4 
REMARK       I    between atoms: N_4  and  C_5 
REMARK    2  A    between atoms: C_5  and  C_6 
REMARK    3  A    between atoms: C_11  and  C_12 
ROOT
HETATM    1  C   UNL     1      -6.059   0.708 -32.009  1.00  0.00     0.115 A 
HETATM    2  N   UNL     1      -4.900  -0.045 -32.006  1.00  0.00    -0.350 N 
HETATM    3  H   UNL     1      -4.056   0.203 -31.509  1.00  0.00     0.166 HD
HETATM    4  C   UNL     1      -5.015  -1.152 -32.810  1.00  0.00     0.044 A 
HETATM    5  C   UNL     1      -6.289  -1.116 -33.370  1.00  0.00     0.005 A 
HETATM    6  C   UNL     1      -6.940   0.061 -32.871  1.00  0.00     0.019 A 
HETATM    7  C   UNL     1      -4.089  -2.165 -33.086  1.00  0.00     0.032 A 
HETATM    8  C   UNL     1      -4.485  -3.182 -33.961  1.00  0.00     0.021 A 
HETATM    9  C   UNL     1      -5.756  -3.174 -34.528  1.00  0.00     0.012 A 
HETATM   10 BR   UNL     1      -6.257  -4.567 -35.708  1.00  0.00    -0.051 Br
HETATM   11  C   UNL     1      -6.670  -2.156 -34.245  1.00  0.00     0.033 A 
ENDROOT
BRANCH   1  12
HETATM   12  C   UNL     1      -6.205   1.950 -31.275  1.00  0.00     0.287 C 
HETATM   13  N   UNL     1      -7.137   1.900 -30.250  1.00  0.00    -0.262 N 
HETATM   14  H   UNL     1      -7.886   1.209 -30.252  1.00  0.00     0.190 HD
HETATM   15  O   UNL     1      -5.582   2.985 -31.507  1.00  0.00    -0.264 OA
BRANCH  13  16
HETATM   16  N   UNL     1      -7.446   3.100 -29.587  1.00  0.00    -0.268 N 
HETATM   17  C   UNL     1      -8.505   3.834 -30.075  1.00  0.00     0.232 C 
HETATM   18  C   UNL     1      -8.683   5.180 -29.430  1.00  0.00     0.119 C 
HETATM   19  O   UNL     1      -9.255   3.410 -30.952  1.00  0.00    -0.272 OA
HETATM   20  H   UNL     1      -6.679   3.525 -29.063  1.00  0.00     0.190 HD
ENDBRANCH  13  16
ENDBRANCH   1  12
BRANCH   6  21
HETATM   21  C   UNL     1      -8.283   0.526 -33.184  1.00  0.00    -0.023 A 
HETATM   22  C   UNL     1      -9.407  -0.157 -32.703  1.00  0.00     0.012 A 
HETATM   23  C   UNL     1     -10.691   0.280 -33.038  1.00  0.00     0.001 A 
HETATM   24  C   UNL     1     -10.857   1.394 -33.861  1.00  0.00     0.000 A 
HETATM   25  C   UNL     1      -9.743   2.074 -34.348  1.00  0.00     0.001 A 
HETATM   26  C   UNL     1      -8.459   1.642 -34.010  1.00  0.00     0.012 A 
ENDBRANCH   6  21
TORSDOF 3
ENDMDL
MODEL 2
REMARK VINA RESULT:      -8.1      1.900      2.136
REMARK  3 active torsions:
REMARK  status: ('A' for Active; 'I' for Inactive)
REMARK       I    between atoms: C_2  and  N_3 
REMARK    1  A    between atoms: N_3  and  N_4 
REMARK       I    between atoms: N_4  and  C_5 
REMARK    2  A    between atoms: C_5  and  C_6 
REMARK    3  A    between atoms: C_11  and  C_12 
ROOT
HETATM    1  C   UNL     1      -6.236   1.181 -32.505  1.00  0.00     0.115 A 
HETATM    2  N   UNL     1      -5.031   0.507 -32.534  1.00  0.00    -0.350 N 
HETATM    3  H   UNL     1      -4.164   0.866 -32.159  1.00  0.00     0.166 HD
HETATM    4  C   UNL     1      -5.139  -0.693 -33.191  1.00  0.00     0.044 A 
HETATM    5  C   UNL     1      -6.459  -0.804 -33.619  1.00  0.00     0.005 A 
HETATM    6  C   UNL     1      -7.145   0.382 -33.193  1.00  0.00     0.019 A 
HETATM    7  C   UNL     1      -4.172  -1.673 -33.443  1.00  0.00     0.032 A 
HETATM    8  C   UNL     1      -4.572  -2.810 -34.151  1.00  0.00     0.021 A 
HETATM    9  C   UNL     1      -5.888  -2.950 -34.583  1.00  0.00     0.012 A 
HETATM   10 BR   UNL     1      -6.394  -4.504 -35.538  1.00  0.00    -0.051 Br
HETATM   11  C   UNL     1      -6.844  -1.963 -34.325  1.00  0.00     0.033 A 
ENDROOT
BRANCH   1  12
HETATM   12  C   UNL     1      -6.403   2.491 -31.907  1.00  0.00     0.287 C 
HETATM   13  N   UNL     1      -5.714   3.506 -32.555  1.00  0.00    -0.262 N 
HETATM   14  H   UNL     1      -4.905   3.303 -33.139  1.00  0.00     0.190 HD
HETATM   15  O   UNL     1      -7.081   2.732 -30.909  1.00  0.00    -0.264 OA
BRANCH  13  16
HETATM   16  N   UNL     1      -5.703   4.777 -31.955  1.00  0.00    -0.268 N 
HETATM   17  C   UNL     1      -5.264   5.832 -32.725  1.00  0.00     0.232 C 
HETATM   18  C   UNL     1      -5.121   7.131 -31.982  1.00  0.00     0.119 C 
HETATM   19  O   UNL     1      -5.031   5.722 -33.927  1.00  0.00    -0.272 OA
HETATM   20  H   UNL     1      -5.652   4.783 -30.935  1.00  0.00     0.190 HD
ENDBRANCH  13  16
ENDBRANCH   1  12
BRANCH   6  21
HETATM   21  C   UNL     1      -8.542   0.721 -33.417  1.00  0.00    -0.023 A 
HETATM   22  C   UNL     1      -9.566  -0.038 -32.838  1.00  0.00     0.012 A 
HETATM   23  C   UNL     1     -10.904   0.278 -33.089  1.00  0.00     0.001 A 
HETATM   24  C   UNL     1     -11.224   1.347 -33.924  1.00  0.00     0.000 A 
HETATM   25  C   UNL     1     -10.210   2.104 -34.509  1.00  0.00     0.001 A 
HETATM   26  C   UNL     1      -8.873   1.792 -34.257  1.00  0.00     0.012 A 
ENDBRANCH   6  21
TORSDOF 3
ENDMDL
MODEL 3
REMARK VINA RESULT:      -8.0      1.863      2.325
REMARK  3 active torsions:
REMARK  status: ('A' for Active; 'I' for Inactive)
REMARK       I    between atoms: C_2  and  N_3 
REMARK    1  A    between atoms: N_3  and  N_4 
REMARK       I    between atoms: N_4  and  C_5 
REMARK    2  A    between atoms: C_5  and  C_6 
REMARK    3  A    between atoms: C_11  and  C_12 
ROOT
HETATM    1  C   UNL     1      -6.232   1.115 -32.473  1.00  0.00     0.115 A 
HETATM    2  N   UNL     1      -5.030   0.433 -32.478  1.00  0.00    -0.350 N 
HETATM    3  H   UNL     1      -4.172   0.781 -32.073  1.00  0.00     0.166 HD
HETATM    4  C   UNL     1      -5.128  -0.759 -33.151  1.00  0.00     0.044 A 
HETATM    5  C   UNL     1      -6.436  -0.856 -33.616  1.00  0.00     0.005 A 
HETATM    6  C   UNL     1      -7.126   0.329 -33.196  1.00  0.00     0.019 A 
HETATM    7  C   UNL     1      -4.160  -1.742 -33.388  1.00  0.00     0.032 A 
HETATM    8  C   UNL     1      -4.548  -2.869 -34.120  1.00  0.00     0.021 A 
HETATM    9  C   UNL     1      -5.852  -2.995 -34.590  1.00  0.00     0.012 A 
HETATM   10 BR   UNL     1      -6.341  -4.534 -35.577  1.00  0.00    -0.051 Br
HETATM   11  C   UNL     1      -6.808  -2.005 -34.347  1.00  0.00     0.033 A 
ENDROOT
BRANCH   1  12
HETATM   12  C   UNL     1      -6.407   2.419 -31.865  1.00  0.00     0.287 C 
HETATM   13  N   UNL     1      -5.978   3.477 -32.652  1.00  0.00    -0.262 N 
HETATM   14  H   UNL     1      -5.292   3.339 -33.391  1.00  0.00     0.190 HD
HETATM   15  O   UNL     1      -6.884   2.620 -30.748  1.00  0.00    -0.264 OA
BRANCH  13  16
HETATM   16  N   UNL     1      -5.976   4.760 -32.078  1.00  0.00    -0.268 N 
HETATM   17  C   UNL     1      -5.427   5.781 -32.823  1.00  0.00     0.232 C 
HETATM   18  C   UNL     1      -5.306   7.091 -32.095  1.00  0.00     0.119 C 
HETATM   19  O   UNL     1      -5.085   5.635 -33.995  1.00  0.00    -0.272 OA
HETATM   20  H   UNL     1      -6.022   4.788 -31.058  1.00  0.00     0.190 HD
ENDBRANCH  13  16
ENDBRANCH   1  12
BRANCH   6  21
HETATM   21  C   UNL     1      -8.514   0.681 -33.455  1.00  0.00    -0.023 A 
HETATM   22  C   UNL     1      -8.836   1.770 -34.275  1.00  0.00     0.012 A 
HETATM   23  C   UNL     1     -10.172   2.118 -34.489  1.00  0.00     0.001 A 
HETATM   24  C   UNL     1     -11.191   1.385 -33.880  1.00  0.00     0.000 A 
HETATM   25  C   UNL     1     -10.878   0.303 -33.059  1.00  0.00     0.001 A 
HETATM   26  C   UNL     1      -9.543  -0.048 -32.847  1.00  0.00     0.012 A 
ENDBRANCH   6  21
TORSDOF 3
ENDMDL
MODEL 4
REMARK VINA RESULT:      -7.8      3.115      4.680
REMARK  3 active torsions:
REMARK  status: ('A' for Active; 'I' for Inactive)
REMARK       I    between atoms: C_2  and  N_3 
REMARK    1  A    between atoms: N_3  and  N_4 
REMARK       I    between atoms: N_4  and  C_5 
REMARK    2  A    between atoms: C_5  and  C_6 
REMARK    3  A    between atoms: C_11  and  C_12 
ROOT
HETATM    1  C   UNL     1      -8.776   0.882 -33.651  1.00  0.00     0.115 A 
HETATM    2  N   UNL     1      -8.345  -0.301 -34.221  1.00  0.00    -0.350 N 
HETATM    3  H   UNL     1      -8.907  -0.884 -34.825  1.00  0.00     0.166 HD
HETATM    4  C   UNL     1      -7.072  -0.620 -33.822  1.00  0.00     0.044 A 
HETATM    5  C   UNL     1      -6.657   0.381 -32.948  1.00  0.00     0.005 A 
HETATM    6  C   UNL     1      -7.736   1.320 -32.835  1.00  0.00     0.019 A 
HETATM    7  C   UNL     1      -6.269  -1.716 -34.160  1.00  0.00     0.032 A 
HETATM    8  C   UNL     1      -4.995  -1.785 -33.589  1.00  0.00     0.021 A 
HETATM    9  C   UNL     1      -4.553  -0.793 -32.718  1.00  0.00     0.012 A 
HETATM   10 BR   UNL     1      -2.821  -0.920 -31.965  1.00  0.00    -0.051 Br
HETATM   11  C   UNL     1      -5.365   0.296 -32.388  1.00  0.00     0.033 A 
ENDROOT
BRANCH   1  12
HETATM   12  C   UNL     1     -10.096   1.438 -33.870  1.00  0.00     0.287 C 
HETATM   13  N   UNL     1     -11.110   0.788 -33.182  1.00  0.00    -0.262 N 
HETATM   14  H   UNL     1     -11.000  -0.174 -32.867  1.00  0.00     0.190 HD
HETATM   15  O   UNL     1     -10.348   2.398 -34.597  1.00  0.00    -0.264 OA
BRANCH  13  16
HETATM   16  N   UNL     1     -12.435   1.171 -33.453  1.00  0.00    -0.268 N 
HETATM   17  C   UNL     1     -13.358   0.162 -33.624  1.00  0.00     0.232 C 
HETATM   18  C   UNL     1     -14.716   0.627 -34.072  1.00  0.00     0.119 C 
HETATM   19  O   UNL     1     -13.096  -1.019 -33.407  1.00  0.00    -0.272 OA
HETATM   20  H   UNL     1     -12.551   2.097 -33.867  1.00  0.00     0.190 HD
ENDBRANCH  13  16
ENDBRANCH   1  12
BRANCH   6  21
HETATM   21  C   UNL     1      -7.772   2.529 -32.026  1.00  0.00    -0.023 A 
HETATM   22  C   UNL     1      -8.530   2.581 -30.850  1.00  0.00     0.012 A 
HETATM   23  C   UNL     1      -8.584   3.759 -30.100  1.00  0.00     0.001 A 
HETATM   24  C   UNL     1      -7.887   4.890 -30.525  1.00  0.00     0.000 A 
HETATM   25  C   UNL     1      -7.136   4.847 -31.698  1.00  0.00     0.001 A 
HETATM   26  C   UNL     1      -7.078   3.670 -32.447  1.00  0.00     0.012 A 
ENDBRANCH   6  21
TORSDOF 3
ENDMDL
MODEL 5
REMARK VINA RESULT:      -7.7      3.793      6.073
REMARK  3 active torsions:
REMARK  status: ('A' for Active; 'I' for Inactive)
REMARK       I    between atoms: C_2  and  N_3 
REMARK    1  A    between atoms: N_3  and  N_4 
REMARK       I    between atoms: N_4  and  C_5 
REMARK    2  A    between atoms: C_5  and  C_6 
REMARK    3  A    between atoms: C_11  and  C_12 
ROOT
HETATM    1  C   UNL     1      -4.463   0.534 -32.623  1.00  0.00     0.115 A 
HETATM    2  N   UNL     1      -3.348   1.279 -32.292  1.00  0.00    -0.350 N 
HETATM    3  H   UNL     1      -2.419   0.899 -32.171  1.00  0.00     0.166 HD
HETATM    4  C   UNL     1      -3.665   2.599 -32.089  1.00  0.00     0.044 A 
HETATM    5  C   UNL     1      -5.038   2.721 -32.281  1.00  0.00     0.005 A 
HETATM    6  C   UNL     1      -5.538   1.417 -32.608  1.00  0.00     0.019 A 
HETATM    7  C   UNL     1      -2.845   3.680 -31.743  1.00  0.00     0.032 A 
HETATM    8  C   UNL     1      -3.451   4.931 -31.597  1.00  0.00     0.021 A 
HETATM    9  C   UNL     1      -4.822   5.082 -31.791  1.00  0.00     0.012 A 
HETATM   10 BR   UNL     1      -5.608   6.791 -31.585  1.00  0.00    -0.051 Br
HETATM   11  C   UNL     1      -5.629   3.994 -32.135  1.00  0.00     0.033 A 
ENDROOT
BRANCH   1  12
HETATM   12  C   UNL     1      -4.425  -0.896 -32.857  1.00  0.00     0.287 C 
HETATM   13  N   UNL     1      -4.655  -1.265 -34.174  1.00  0.00    -0.262 N 
HETATM   14  H   UNL     1      -5.153  -0.649 -34.814  1.00  0.00     0.190 HD
HETATM   15  O   UNL     1      -4.217  -1.749 -31.995  1.00  0.00    -0.264 OA
BRANCH  13  16
HETATM   16  N   UNL     1      -4.782  -2.636 -34.458  1.00  0.00    -0.268 N 
HETATM   17  C   UNL     1      -6.053  -3.113 -34.696  1.00  0.00     0.232 C 
HETATM   18  C   UNL     1      -6.143  -4.608 -34.831  1.00  0.00     0.119 C 
HETATM   19  O   UNL     1      -7.027  -2.373 -34.810  1.00  0.00    -0.272 OA
HETATM   20  H   UNL     1      -4.029  -3.230 -34.110  1.00  0.00     0.190 HD
ENDBRANCH  13  16
ENDBRANCH   1  12
BRANCH   6  21
HETATM   21  C   UNL     1      -6.918   1.046 -32.886  1.00  0.00    -0.023 A 
HETATM   22  C   UNL     1      -7.418   1.076 -34.194  1.00  0.00     0.012 A 
HETATM   23  C   UNL     1      -8.754   0.750 -34.443  1.00  0.00     0.001 A 
HETATM   24  C   UNL     1      -9.596   0.401 -33.388  1.00  0.00     0.000 A 
HETATM   25  C   UNL     1      -9.107   0.376 -32.084  1.00  0.00     0.001 A 
HETATM   26  C   UNL     1      -7.772   0.697 -31.833  1.00  0.00     0.012 A 
ENDBRANCH   6  21
TORSDOF 3
ENDMDL
MODEL 6
REMARK VINA RESULT:      -7.7      2.063      2.506
REMARK  3 active torsions:
REMARK  status: ('A' for Active; 'I' for Inactive)
REMARK       I    between atoms: C_2  and  N_3 
REMARK    1  A    between atoms: N_3  and  N_4 
REMARK       I    between atoms: N_4  and  C_5 
REMARK    2  A    between atoms: C_5  and  C_6 
REMARK    3  A    between atoms: C_11  and  C_12 
ROOT
HETATM    1  C   UNL     1      -5.181   0.563 -31.943  1.00  0.00     0.115 A 
HETATM    2  N   UNL     1      -4.154  -0.359 -32.010  1.00  0.00    -0.350 N 
HETATM    3  H   UNL     1      -3.256  -0.250 -31.559  1.00  0.00     0.166 HD
HETATM    4  C   UNL     1      -4.480  -1.421 -32.815  1.00  0.00     0.044 A 
HETATM    5  C   UNL     1      -5.761  -1.182 -33.304  1.00  0.00     0.005 A 
HETATM    6  C   UNL     1      -6.196   0.072 -32.761  1.00  0.00     0.019 A 
HETATM    7  C   UNL     1      -3.737  -2.559 -33.149  1.00  0.00     0.032 A 
HETATM    8  C   UNL     1      -4.330  -3.490 -34.008  1.00  0.00     0.021 A 
HETATM    9  C   UNL     1      -5.613  -3.279 -34.505  1.00  0.00     0.012 A 
HETATM   10 BR   UNL     1      -6.384  -4.560 -35.666  1.00  0.00    -0.051 Br
HETATM   11  C   UNL     1      -6.343  -2.137 -34.164  1.00  0.00     0.033 A 
ENDROOT
BRANCH   1  12
HETATM   12  C   UNL     1      -5.095   1.801 -31.194  1.00  0.00     0.287 C 
HETATM   13  N   UNL     1      -4.144   2.690 -31.670  1.00  0.00    -0.262 N 
HETATM   14  H   UNL     1      -3.357   2.370 -32.231  1.00  0.00     0.190 HD
HETATM   15  O   UNL     1      -5.780   2.081 -30.211  1.00  0.00    -0.264 OA
BRANCH  13  16
HETATM   16  N   UNL     1      -3.894   3.849 -30.914  1.00  0.00    -0.268 N 
HETATM   17  C   UNL     1      -3.429   4.954 -31.592  1.00  0.00     0.232 C 
HETATM   18  C   UNL     1      -3.027   6.104 -30.711  1.00  0.00     0.119 C 
HETATM   19  O   UNL     1      -3.368   5.001 -32.819  1.00  0.00    -0.272 OA
HETATM   20  H   UNL     1      -3.712   3.696 -29.921  1.00  0.00     0.190 HD
ENDBRANCH  13  16
ENDBRANCH   1  12
BRANCH   6  21
HETATM   21  C   UNL     1      -7.466   0.742 -32.996  1.00  0.00    -0.023 A 
HETATM   22  C   UNL     1      -8.637   0.297 -32.368  1.00  0.00     0.012 A 
HETATM   23  C   UNL     1      -9.857   0.928 -32.628  1.00  0.00     0.001 A 
HETATM   24  C   UNL     1      -9.913   1.998 -33.521  1.00  0.00     0.000 A 
HETATM   25  C   UNL     1      -8.753   2.442 -34.153  1.00  0.00     0.001 A 
HETATM   26  C   UNL     1      -7.533   1.816 -33.891  1.00  0.00     0.012 A 
ENDBRANCH   6  21
TORSDOF 3
ENDMDL
MODEL 7
REMARK VINA RESULT:      -7.4      3.357      5.874
REMARK  3 active torsions:
REMARK  status: ('A' for Active; 'I' for Inactive)
REMARK       I    between atoms: C_2  and  N_3 
REMARK    1  A    between atoms: N_3  and  N_4 
REMARK       I    between atoms: N_4  and  C_5 
REMARK    2  A    between atoms: C_5  and  C_6 
REMARK    3  A    between atoms: C_11  and  C_12 
ROOT
HETATM    1  C   UNL     1      -7.713   3.277 -32.864  1.00  0.00     0.115 A 
HETATM    2  N   UNL     1      -8.803   4.112 -32.704  1.00  0.00    -0.350 N 
HETATM    3  H   UNL     1      -8.750   5.067 -32.378  1.00  0.00     0.166 HD
HETATM    4  C   UNL     1      -9.980   3.466 -32.988  1.00  0.00     0.044 A 
HETATM    5  C   UNL     1      -9.652   2.159 -33.335  1.00  0.00     0.005 A 
HETATM    6  C   UNL     1      -8.225   2.041 -33.247  1.00  0.00     0.019 A 
HETATM    7  C   UNL     1     -11.297   3.938 -32.954  1.00  0.00     0.032 A 
HETATM    8  C   UNL     1     -12.315   3.041 -33.295  1.00  0.00     0.021 A 
HETATM    9  C   UNL     1     -12.014   1.730 -33.653  1.00  0.00     0.012 A 
HETATM   10 BR   UNL     1     -13.417   0.545 -34.109  1.00  0.00    -0.051 Br
HETATM   11  C   UNL     1     -10.694   1.272 -33.682  1.00  0.00     0.033 A 
ENDROOT
BRANCH   1  12
HETATM   12  C   UNL     1      -6.349   3.687 -32.597  1.00  0.00     0.287 C 
HETATM   13  N   UNL     1      -5.632   4.052 -33.726  1.00  0.00    -0.262 N 
HETATM   14  H   UNL     1      -5.900   3.721 -34.651  1.00  0.00     0.190 HD
HETATM   15  O   UNL     1      -5.825   3.718 -31.484  1.00  0.00    -0.264 OA
BRANCH  13  16
HETATM   16  N   UNL     1      -4.260   4.320 -33.572  1.00  0.00    -0.268 N 
HETATM   17  C   UNL     1      -3.617   4.931 -34.627  1.00  0.00     0.232 C 
HETATM   18  C   UNL     1      -2.126   5.042 -34.469  1.00  0.00     0.119 C 
HETATM   19  O   UNL     1      -4.219   5.368 -35.606  1.00  0.00    -0.272 OA
HETATM   20  H   UNL     1      -3.770   3.735 -32.895  1.00  0.00     0.190 HD
ENDBRANCH  13  16
ENDBRANCH   1  12
BRANCH   6  21
HETATM   21  C   UNL     1      -7.421   0.856 -33.507  1.00  0.00    -0.023 A 
HETATM   22  C   UNL     1      -7.302   0.343 -34.805  1.00  0.00     0.012 A 
HETATM   23  C   UNL     1      -6.554  -0.815 -35.037  1.00  0.00     0.001 A 
HETATM   24  C   UNL     1      -5.929  -1.467 -33.975  1.00  0.00     0.000 A 
HETATM   25  C   UNL     1      -6.048  -0.965 -32.680  1.00  0.00     0.001 A 
HETATM   26  C   UNL     1      -6.791   0.194 -32.447  1.00  0.00     0.012 A 
ENDBRANCH   6  21
TORSDOF 3
ENDMDL
MODEL 8
REMARK VINA RESULT:      -7.0      3.212      4.722
REMARK  3 active torsions:
REMARK  status: ('A' for Active; 'I' for Inactive)
REMARK       I    between atoms: C_2  and  N_3 
REMARK    1  A    between atoms: N_3  and  N_4 
REMARK       I    between atoms: N_4  and  C_5 
REMARK    2  A    between atoms: C_5  and  C_6 
REMARK    3  A    between atoms: C_11  and  C_12 
ROOT
HETATM    1  C   UNL     1      -8.968   1.771 -33.921  1.00  0.00     0.115 A 
HETATM    2  N   UNL     1      -8.817   0.636 -34.696  1.00  0.00    -0.350 N 
HETATM    3  H   UNL     1      -9.486   0.318 -35.383  1.00  0.00     0.166 HD
HETATM    4  C   UNL     1      -7.668  -0.043 -34.378  1.00  0.00     0.044 A 
HETATM    5  C   UNL     1      -7.050   0.664 -33.350  1.00  0.00     0.005 A 
HETATM    6  C   UNL     1      -7.876   1.800 -33.059  1.00  0.00     0.019 A 
HETATM    7  C   UNL     1      -7.142  -1.224 -34.914  1.00  0.00     0.032 A 
HETATM    8  C   UNL     1      -5.936  -1.694 -34.384  1.00  0.00     0.021 A 
HETATM    9  C   UNL     1      -5.293  -1.002 -33.361  1.00  0.00     0.012 A 
HETATM   10 BR   UNL     1      -3.662  -1.668 -32.669  1.00  0.00    -0.051 Br
HETATM   11  C   UNL     1      -5.830   0.176 -32.834  1.00  0.00     0.033 A 
ENDROOT
BRANCH   1  12
HETATM   12  C   UNL     1     -10.112   2.657 -34.019  1.00  0.00     0.287 C 
HETATM   13  N   UNL     1     -10.254   3.269 -35.255  1.00  0.00    -0.262 N 
HETATM   14  H   UNL     1      -9.460   3.378 -35.884  1.00  0.00     0.190 HD
HETATM   15  O   UNL     1     -10.911   2.882 -33.112  1.00  0.00    -0.264 OA
BRANCH  13  16
HETATM   16  N   UNL     1     -11.248   4.254 -35.387  1.00  0.00    -0.268 N 
HETATM   17  C   UNL     1     -10.832   5.567 -35.421  1.00  0.00     0.232 C 
HETATM   18  C   UNL     1     -11.946   6.576 -35.399  1.00  0.00     0.119 C 
HETATM   19  O   UNL     1      -9.646   5.884 -35.487  1.00  0.00    -0.272 OA
HETATM   20  H   UNL     1     -12.182   3.982 -35.078  1.00  0.00     0.190 HD
ENDBRANCH  13  16
ENDBRANCH   1  12
BRANCH   6  21
HETATM   21  C   UNL     1      -7.644   2.824 -32.052  1.00  0.00    -0.023 A 
HETATM   22  C   UNL     1      -6.865   3.952 -32.343  1.00  0.00     0.012 A 
HETATM   23  C   UNL     1      -6.622   4.911 -31.357  1.00  0.00     0.001 A 
HETATM   24  C   UNL     1      -7.148   4.745 -30.076  1.00  0.00     0.000 A 
HETATM   25  C   UNL     1      -7.918   3.623 -29.777  1.00  0.00     0.001 A 
HETATM   26  C   UNL     1      -8.165   2.665 -30.762  1.00  0.00     0.012 A 
ENDBRANCH   6  21
TORSDOF 3
ENDMDL
MODEL 9
REMARK VINA RESULT:      -6.9      4.991      7.928
REMARK  3 active torsions:
REMARK  status: ('A' for Active; 'I' for Inactive)
REMARK       I    between atoms: C_2  and  N_3 
REMARK    1  A    between atoms: N_3  and  N_4 
REMARK       I    between atoms: N_4  and  C_5 
REMARK    2  A    between atoms: C_5  and  C_6 
REMARK    3  A    between atoms: C_11  and  C_12 
ROOT
HETATM    1  C   UNL     1     -10.348   3.622 -34.381  1.00  0.00     0.115 A 
HETATM    2  N   UNL     1      -9.746   4.781 -34.831  1.00  0.00    -0.350 N 
HETATM    3  H   UNL     1      -8.752   4.959 -34.804  1.00  0.00     0.166 HD
HETATM    4  C   UNL     1     -10.673   5.692 -35.273  1.00  0.00     0.044 A 
HETATM    5  C   UNL     1     -11.927   5.116 -35.093  1.00  0.00     0.005 A 
HETATM    6  C   UNL     1     -11.719   3.816 -34.523  1.00  0.00     0.019 A 
HETATM    7  C   UNL     1     -10.493   6.975 -35.803  1.00  0.00     0.032 A 
HETATM    8  C   UNL     1     -11.638   7.690 -36.170  1.00  0.00     0.021 A 
HETATM    9  C   UNL     1     -12.903   7.133 -36.008  1.00  0.00     0.012 A 
HETATM   10 BR   UNL     1     -14.430   8.130 -36.516  1.00  0.00    -0.051 Br
HETATM   11  C   UNL     1     -13.069   5.852 -35.476  1.00  0.00     0.033 A 
ENDROOT
BRANCH   1  12
HETATM   12  C   UNL     1      -9.610   2.505 -33.825  1.00  0.00     0.287 C 
HETATM   13  N   UNL     1      -9.341   1.491 -34.732  1.00  0.00    -0.262 N 
HETATM   14  H   UNL     1      -9.906   1.372 -35.571  1.00  0.00     0.190 HD
HETATM   15  O   UNL     1      -9.238   2.415 -32.655  1.00  0.00    -0.264 OA
BRANCH  13  16
HETATM   16  N   UNL     1      -8.761   0.309 -34.241  1.00  0.00    -0.268 N 
HETATM   17  C   UNL     1      -7.576  -0.096 -34.816  1.00  0.00     0.232 C 
HETATM   18  C   UNL     1      -7.091  -1.445 -34.364  1.00  0.00     0.119 C 
HETATM   19  O   UNL     1      -6.956   0.601 -35.617  1.00  0.00    -0.272 OA
HETATM   20  H   UNL     1      -9.403  -0.343 -33.790  1.00  0.00     0.190 HD
ENDBRANCH  13  16
ENDBRANCH   1  12
BRANCH   6  21
HETATM   21  C   UNL     1     -12.735   2.844 -34.150  1.00  0.00    -0.023 A 
HETATM   22  C   UNL     1     -13.536   3.043 -33.017  1.00  0.00     0.012 A 
HETATM   23  C   UNL     1     -14.485   2.085 -32.651  1.00  0.00     0.001 A 
HETATM   24  C   UNL     1     -14.634   0.924 -33.408  1.00  0.00     0.000 A 
HETATM   25  C   UNL     1     -13.837   0.717 -34.532  1.00  0.00     0.001 A 
HETATM   26  C   UNL     1     -12.891   1.674 -34.903  1.00  0.00     0.012 A 
ENDBRANCH   6  21
TORSDOF 3
ENDMDL
MODEL 10
REMARK VINA RESULT:      -6.9      3.414      6.628
REMARK  3 active torsions:
REMARK  status: ('A' for Active; 'I' for Inactive)
REMARK       I    between atoms: C_2  and  N_3 
REMARK    1  A    between atoms: N_3  and  N_4 
REMARK       I    between atoms: N_4  and  C_5 
REMARK    2  A    between atoms: C_5  and  C_6 
REMARK    3  A    between atoms: C_11  and  C_12 
ROOT
HETATM    1  C   UNL     1      -7.255   0.189 -32.788  1.00  0.00     0.115 A 
HETATM    2  N   UNL     1      -8.503  -0.301 -33.123  1.00  0.00    -0.350 N 
HETATM    3  H   UNL     1      -8.702  -1.270 -33.328  1.00  0.00     0.166 HD
HETATM    4  C   UNL     1      -9.435   0.704 -33.200  1.00  0.00     0.044 A 
HETATM    5  C   UNL     1      -8.773   1.895 -32.919  1.00  0.00     0.005 A 
HETATM    6  C   UNL     1      -7.399   1.569 -32.668  1.00  0.00     0.019 A 
HETATM    7  C   UNL     1     -10.800   0.644 -33.506  1.00  0.00     0.032 A 
HETATM    8  C   UNL     1     -11.514   1.846 -33.515  1.00  0.00     0.021 A 
HETATM    9  C   UNL     1     -10.878   3.051 -33.229  1.00  0.00     0.012 A 
HETATM   10 BR   UNL     1     -11.876   4.659 -33.250  1.00  0.00    -0.051 Br
HETATM   11  C   UNL     1      -9.514   3.096 -32.927  1.00  0.00     0.033 A 
ENDROOT
BRANCH   1  12
HETATM   12  C   UNL     1      -6.075  -0.645 -32.672  1.00  0.00     0.287 C 
HETATM   13  N   UNL     1      -5.641  -1.187 -33.873  1.00  0.00    -0.262 N 
HETATM   14  H   UNL     1      -6.275  -1.294 -34.663  1.00  0.00     0.190 HD
HETATM   15  O   UNL     1      -5.479  -0.887 -31.623  1.00  0.00    -0.264 OA
BRANCH  13  16
HETATM   16  N   UNL     1      -4.594  -2.124 -33.828  1.00  0.00    -0.268 N 
HETATM   17  C   UNL     1      -4.856  -3.384 -34.320  1.00  0.00     0.232 C 
HETATM   18  C   UNL     1      -3.756  -4.384 -34.096  1.00  0.00     0.119 C 
HETATM   19  O   UNL     1      -5.897  -3.659 -34.913  1.00  0.00    -0.272 OA
HETATM   20  H   UNL     1      -3.874  -1.948 -33.125  1.00  0.00     0.190 HD
ENDBRANCH  13  16
ENDBRANCH   1  12
BRANCH   6  21
HETATM   21  C   UNL     1      -6.320   2.488 -32.340  1.00  0.00    -0.023 A 
HETATM   22  C   UNL     1      -5.601   3.138 -33.352  1.00  0.00     0.012 A 
HETATM   23  C   UNL     1      -4.545   3.993 -33.025  1.00  0.00     0.001 A 
HETATM   24  C   UNL     1      -4.198   4.196 -31.689  1.00  0.00     0.000 A 
HETATM   25  C   UNL     1      -4.905   3.547 -30.679  1.00  0.00     0.001 A 
HETATM   26  C   UNL     1      -5.963   2.696 -31.003  1.00  0.00     0.012 A 
ENDBRANCH   6  21
TORSDOF 3
ENDMDL
