MODEL 1
REMARK VINA RESULT:     -10.3      0.000      0.000
REMARK  7 active torsions:
REMARK  status: ('A' for Active; 'I' for Inactive)
REMARK    1  A    between atoms: C_2  and  C_3 
REMARK    2  A    between atoms: C_6  and  C_7 
REMARK       I    between atoms: C_7  and  N_8 
REMARK    3  A    between atoms: N_8  and  C_9 
REMARK    4  A    between atoms: C_9  and  C_10 
REMARK    5  A    between atoms: N_19  and  C_20 
REMARK    6  A    between atoms: C_20  and  C_21 
REMARK    7  A    between atoms: C_21  and  C_22 
ROOT
HETATM    1  C   UNL     1      -3.382   5.084 -31.952  1.00  0.00     0.249 C 
HETATM    2  C   UNL     1      -2.592   4.191 -32.930  1.00  0.00     0.266 C 
HETATM    3  O   UNL     1      -1.732   4.530 -33.726  1.00  0.00    -0.270 OA
HETATM    4  N   UNL     1      -3.060   2.887 -32.776  1.00  0.00    -0.310 N 
HETATM    5  C   UNL     1      -3.929   2.800 -31.740  1.00  0.00     0.129 C 
HETATM    6  C   UNL     1      -4.097   4.006 -31.200  1.00  0.00     0.101 C 
HETATM    7  N   UNL     1      -4.584   1.686 -31.293  1.00  0.00    -0.284 N 
HETATM    8  C   UNL     1      -5.382   1.753 -30.149  1.00  0.00     0.331 C 
HETATM    9  O   UNL     1      -5.995   0.798 -29.678  1.00  0.00    -0.246 OA
HETATM   10  N   UNL     1      -5.486   2.996 -29.566  1.00  0.00    -0.275 N 
HETATM   11  C   UNL     1      -4.973   4.167 -30.057  1.00  0.00     0.262 C 
HETATM   12  O   UNL     1      -5.224   5.270 -29.592  1.00  0.00    -0.267 OA
HETATM   13  H   UNL     1      -2.680   2.116 -33.305  1.00  0.00     0.170 HD
HETATM   14  H   UNL     1      -6.103   3.062 -28.771  1.00  0.00     0.173 HD
ENDROOT
BRANCH   1  15
HETATM   15  N   UNL     1      -2.575   5.961 -31.087  1.00  0.00    -0.327 N 
HETATM   16  C   UNL     1      -1.382   5.576 -30.523  1.00  0.00     0.253 C 
HETATM   17  O   UNL     1      -0.847   4.504 -30.774  1.00  0.00    -0.268 OA
HETATM   18  H   UNL     1      -3.112   6.647 -30.565  1.00  0.00     0.164 HD
BRANCH  16  19
HETATM   19  C   UNL     1      -0.801   6.523 -29.524  1.00  0.00     0.032 A 
HETATM   20  C   UNL     1      -1.266   7.835 -29.388  1.00  0.00     0.017 A 
HETATM   21  C   UNL     1      -0.727   8.677 -28.408  1.00  0.00     0.009 A 
HETATM   22  C   UNL     1       0.293   8.244 -27.541  1.00  0.00    -0.051 A 
HETATM   23  C   UNL     1       0.776   6.937 -27.721  1.00  0.00     0.009 A 
HETATM   24  C   UNL     1       0.239   6.087 -28.701  1.00  0.00     0.017 A 
BRANCH  22  25
HETATM   25  C   UNL     1       0.846   9.198 -26.464  1.00  0.00    -0.024 C 
HETATM   26  C   UNL     1       2.229   8.708 -25.977  1.00  0.00     0.019 C 
HETATM   27  C   UNL     1      -0.126   9.232 -25.268  1.00  0.00     0.019 C 
HETATM   28  C   UNL     1       1.033  10.651 -26.955  1.00  0.00     0.019 C 
ENDBRANCH  22  25
ENDBRANCH  16  19
ENDBRANCH   1  15
BRANCH   1  29
HETATM   29  C   UNL     1      -4.350   5.867 -32.855  1.00  0.00     0.426 C 
HETATM   30  F   UNL     1      -4.881   6.923 -32.189  1.00  0.00    -0.167 F 
HETATM   31  F   UNL     1      -3.732   6.382 -33.942  1.00  0.00    -0.167 F 
HETATM   32  F   UNL     1      -5.388   5.116 -33.292  1.00  0.00    -0.167 F 
ENDBRANCH   1  29
BRANCH   7  33
HETATM   33  C   UNL     1      -4.566   0.438 -32.052  1.00  0.00     0.140 C 
BRANCH  33  34
HETATM   34  C   UNL     1      -5.654   0.357 -33.124  1.00  0.00     0.059 C 
BRANCH  34  35
HETATM   35  C   UNL     1      -5.650  -1.009 -33.770  1.00  0.00    -0.057 A 
HETATM   36  C   UNL     1      -6.847  -1.595 -34.206  1.00  0.00     0.007 A 
HETATM   37  C   UNL     1      -6.850  -2.886 -34.737  1.00  0.00     0.001 A 
HETATM   38  C   UNL     1      -5.658  -3.601 -34.839  1.00  0.00     0.000 A 
HETATM   39  C   UNL     1      -4.463  -3.026 -34.415  1.00  0.00     0.001 A 
HETATM   40  C   UNL     1      -4.457  -1.737 -33.880  1.00  0.00     0.007 A 
ENDBRANCH  34  35
ENDBRANCH  33  34
ENDBRANCH   7  33
TORSDOF 7
ENDMDL
MODEL 2
REMARK VINA RESULT:     -10.0      1.812      9.836
REMARK  7 active torsions:
REMARK  status: ('A' for Active; 'I' for Inactive)
REMARK    1  A    between atoms: C_2  and  C_3 
REMARK    2  A    between atoms: C_6  and  C_7 
REMARK       I    between atoms: C_7  and  N_8 
REMARK    3  A    between atoms: N_8  and  C_9 
REMARK    4  A    between atoms: C_9  and  C_10 
REMARK    5  A    between atoms: N_19  and  C_20 
REMARK    6  A    between atoms: C_20  and  C_21 
REMARK    7  A    between atoms: C_21  and  C_22 
ROOT
HETATM    1  C   UNL     1      -5.598   4.080 -31.967  1.00  0.00     0.249 C 
HETATM    2  C   UNL     1      -5.080   4.336 -30.538  1.00  0.00     0.266 C 
HETATM    3  O   UNL     1      -5.478   3.841 -29.497  1.00  0.00    -0.270 OA
HETATM    4  N   UNL     1      -4.063   5.286 -30.627  1.00  0.00    -0.310 N 
HETATM    5  C   UNL     1      -3.763   5.560 -31.919  1.00  0.00     0.129 C 
HETATM    6  C   UNL     1      -4.562   4.856 -32.718  1.00  0.00     0.101 C 
HETATM    7  N   UNL     1      -2.822   6.435 -32.388  1.00  0.00    -0.284 N 
HETATM    8  C   UNL     1      -2.579   6.534 -33.760  1.00  0.00     0.331 C 
HETATM    9  O   UNL     1      -1.746   7.286 -34.261  1.00  0.00    -0.246 OA
HETATM   10  N   UNL     1      -3.369   5.744 -34.565  1.00  0.00    -0.275 N 
HETATM   11  C   UNL     1      -4.420   4.966 -34.157  1.00  0.00     0.262 C 
HETATM   12  O   UNL     1      -5.193   4.408 -34.922  1.00  0.00    -0.267 OA
HETATM   13  H   UNL     1      -3.557   5.605 -29.814  1.00  0.00     0.170 HD
HETATM   14  H   UNL     1      -3.234   5.849 -35.559  1.00  0.00     0.173 HD
ENDROOT
BRANCH   1  15
HETATM   15  N   UNL     1      -5.680   2.668 -32.379  1.00  0.00    -0.327 N 
HETATM   16  C   UNL     1      -4.633   1.784 -32.261  1.00  0.00     0.253 C 
HETATM   17  O   UNL     1      -3.577   2.078 -31.715  1.00  0.00    -0.268 OA
HETATM   18  H   UNL     1      -6.329   2.488 -33.138  1.00  0.00     0.164 HD
BRANCH  16  19
HETATM   19  C   UNL     1      -4.834   0.451 -32.903  1.00  0.00     0.032 A 
HETATM   20  C   UNL     1      -3.968  -0.622 -32.671  1.00  0.00     0.017 A 
HETATM   21  C   UNL     1      -4.217  -1.870 -33.255  1.00  0.00     0.009 A 
HETATM   22  C   UNL     1      -5.328  -2.086 -34.092  1.00  0.00    -0.051 A 
HETATM   23  C   UNL     1      -6.163  -0.985 -34.347  1.00  0.00     0.009 A 
HETATM   24  C   UNL     1      -5.919   0.268 -33.763  1.00  0.00     0.017 A 
BRANCH  22  25
HETATM   25  C   UNL     1      -5.576  -3.480 -34.700  1.00  0.00    -0.024 C 
HETATM   26  C   UNL     1      -4.551  -4.494 -34.143  1.00  0.00     0.019 C 
HETATM   27  C   UNL     1      -5.425  -3.401 -36.232  1.00  0.00     0.019 C 
HETATM   28  C   UNL     1      -6.979  -4.051 -34.398  1.00  0.00     0.019 C 
ENDBRANCH  22  25
ENDBRANCH  16  19
ENDBRANCH   1  15
BRANCH   1  29
HETATM   29  C   UNL     1      -6.960   4.791 -32.007  1.00  0.00     0.426 C 
HETATM   30  F   UNL     1      -7.735   4.291 -33.002  1.00  0.00    -0.167 F 
HETATM   31  F   UNL     1      -7.662   4.617 -30.863  1.00  0.00    -0.167 F 
HETATM   32  F   UNL     1      -6.855   6.123 -32.223  1.00  0.00    -0.167 F 
ENDBRANCH   1  29
BRANCH   7  33
HETATM   33  C   UNL     1      -2.136   7.365 -31.495  1.00  0.00     0.140 C 
BRANCH  33  34
HETATM   34  C   UNL     1      -0.864   6.789 -30.870  1.00  0.00     0.059 C 
BRANCH  34  35
HETATM   35  C   UNL     1      -0.478   7.582 -29.644  1.00  0.00    -0.057 A 
HETATM   36  C   UNL     1      -1.376   8.498 -29.077  1.00  0.00     0.007 A 
HETATM   37  C   UNL     1      -0.992   9.283 -27.987  1.00  0.00     0.001 A 
HETATM   38  C   UNL     1       0.289   9.157 -27.454  1.00  0.00     0.000 A 
HETATM   39  C   UNL     1       1.186   8.245 -28.006  1.00  0.00     0.001 A 
HETATM   40  C   UNL     1       0.807   7.463 -29.098  1.00  0.00     0.007 A 
ENDBRANCH  34  35
ENDBRANCH  33  34
ENDBRANCH   7  33
TORSDOF 7
ENDMDL
MODEL 3
REMARK VINA RESULT:      -9.7      1.696      2.305
REMARK  7 active torsions:
REMARK  status: ('A' for Active; 'I' for Inactive)
REMARK    1  A    between atoms: C_2  and  C_3 
REMARK    2  A    between atoms: C_6  and  C_7 
REMARK       I    between atoms: C_7  and  N_8 
REMARK    3  A    between atoms: N_8  and  C_9 
REMARK    4  A    between atoms: C_9  and  C_10 
REMARK    5  A    between atoms: N_19  and  C_20 
REMARK    6  A    between atoms: C_20  and  C_21 
REMARK    7  A    between atoms: C_21  and  C_22 
ROOT
HETATM    1  C   UNL     1      -5.696   4.819 -32.074  1.00  0.00     0.249 C 
HETATM    2  C   UNL     1      -5.331   4.355 -33.499  1.00  0.00     0.266 C 
HETATM    3  O   UNL     1      -4.925   5.034 -34.427  1.00  0.00    -0.270 OA
HETATM    4  N   UNL     1      -5.580   2.985 -33.568  1.00  0.00    -0.310 N 
HETATM    5  C   UNL     1      -5.910   2.487 -32.352  1.00  0.00     0.129 C 
HETATM    6  C   UNL     1      -5.929   3.475 -31.459  1.00  0.00     0.101 C 
HETATM    7  N   UNL     1      -6.217   1.192 -32.038  1.00  0.00    -0.284 N 
HETATM    8  C   UNL     1      -6.451   0.829 -30.710  1.00  0.00     0.331 C 
HETATM    9  O   UNL     1      -6.723  -0.312 -30.343  1.00  0.00    -0.246 OA
HETATM   10  N   UNL     1      -6.397   1.855 -29.792  1.00  0.00    -0.275 N 
HETATM   11  C   UNL     1      -6.241   3.186 -30.073  1.00  0.00     0.262 C 
HETATM   12  O   UNL     1      -6.358   4.077 -29.243  1.00  0.00    -0.267 OA
HETATM   13  H   UNL     1      -5.401   2.451 -34.405  1.00  0.00     0.170 HD
HETATM   14  H   UNL     1      -6.616   1.608 -28.839  1.00  0.00     0.173 HD
ENDROOT
BRANCH   1  15
HETATM   15  N   UNL     1      -4.671   5.610 -31.373  1.00  0.00    -0.327 N 
HETATM   16  C   UNL     1      -3.347   5.247 -31.311  1.00  0.00     0.253 C 
HETATM   17  O   UNL     1      -2.896   4.283 -31.918  1.00  0.00    -0.268 OA
HETATM   18  H   UNL     1      -5.020   6.149 -30.586  1.00  0.00     0.164 HD
BRANCH  16  19
HETATM   19  C   UNL     1      -2.491   6.064 -30.400  1.00  0.00     0.032 A 
HETATM   20  C   UNL     1      -3.033   7.005 -29.519  1.00  0.00     0.017 A 
HETATM   21  C   UNL     1      -2.202   7.719 -28.647  1.00  0.00     0.009 A 
HETATM   22  C   UNL     1      -0.808   7.524 -28.630  1.00  0.00    -0.051 A 
HETATM   23  C   UNL     1      -0.278   6.605 -29.552  1.00  0.00     0.009 A 
HETATM   24  C   UNL     1      -1.107   5.886 -30.427  1.00  0.00     0.017 A 
BRANCH  22  25
HETATM   25  C   UNL     1       0.069   8.316 -27.642  1.00  0.00    -0.024 C 
HETATM   26  C   UNL     1       0.145   7.578 -26.286  1.00  0.00     0.019 C 
HETATM   27  C   UNL     1      -0.547   9.713 -27.421  1.00  0.00     0.019 C 
HETATM   28  C   UNL     1       1.523   8.519 -28.123  1.00  0.00     0.019 C 
ENDBRANCH  22  25
ENDBRANCH  16  19
ENDBRANCH   1  15
BRANCH   1  29
HETATM   29  C   UNL     1      -7.018   5.583 -32.254  1.00  0.00     0.426 C 
HETATM   30  F   UNL     1      -7.927   4.823 -32.914  1.00  0.00    -0.167 F 
HETATM   31  F   UNL     1      -7.588   5.905 -31.070  1.00  0.00    -0.167 F 
HETATM   32  F   UNL     1      -6.875   6.728 -32.962  1.00  0.00    -0.167 F 
ENDBRANCH   1  29
BRANCH   7  33
HETATM   33  C   UNL     1      -6.425   0.186 -33.077  1.00  0.00     0.140 C 
BRANCH  33  34
HETATM   34  C   UNL     1      -5.127  -0.443 -33.588  1.00  0.00     0.059 C 
BRANCH  34  35
HETATM   35  C   UNL     1      -5.358  -1.889 -33.959  1.00  0.00    -0.057 A 
HETATM   36  C   UNL     1      -4.310  -2.818 -33.893  1.00  0.00     0.007 A 
HETATM   37  C   UNL     1      -4.509  -4.138 -34.304  1.00  0.00     0.001 A 
HETATM   38  C   UNL     1      -5.754  -4.541 -34.781  1.00  0.00     0.000 A 
HETATM   39  C   UNL     1      -6.803  -3.627 -34.845  1.00  0.00     0.001 A 
HETATM   40  C   UNL     1      -6.608  -2.306 -34.439  1.00  0.00     0.007 A 
ENDBRANCH  34  35
ENDBRANCH  33  34
ENDBRANCH   7  33
TORSDOF 7
ENDMDL
MODEL 4
REMARK VINA RESULT:      -9.2      1.827      2.665
REMARK  7 active torsions:
REMARK  status: ('A' for Active; 'I' for Inactive)
REMARK    1  A    between atoms: C_2  and  C_3 
REMARK    2  A    between atoms: C_6  and  C_7 
REMARK       I    between atoms: C_7  and  N_8 
REMARK    3  A    between atoms: N_8  and  C_9 
REMARK    4  A    between atoms: C_9  and  C_10 
REMARK    5  A    between atoms: N_19  and  C_20 
REMARK    6  A    between atoms: C_20  and  C_21 
REMARK    7  A    between atoms: C_21  and  C_22 
ROOT
HETATM    1  C   UNL     1      -2.437   6.259 -31.495  1.00  0.00     0.249 C 
HETATM    2  C   UNL     1      -1.926   4.808 -31.606  1.00  0.00     0.266 C 
HETATM    3  O   UNL     1      -0.770   4.422 -31.645  1.00  0.00    -0.270 OA
HETATM    4  N   UNL     1      -3.043   3.978 -31.689  1.00  0.00    -0.310 N 
HETATM    5  C   UNL     1      -4.187   4.678 -31.500  1.00  0.00     0.129 C 
HETATM    6  C   UNL     1      -3.894   5.965 -31.324  1.00  0.00     0.101 C 
HETATM    7  N   UNL     1      -5.468   4.200 -31.510  1.00  0.00    -0.284 N 
HETATM    8  C   UNL     1      -6.536   5.048 -31.208  1.00  0.00     0.331 C 
HETATM    9  O   UNL     1      -7.713   4.696 -31.186  1.00  0.00    -0.246 OA
HETATM   10  N   UNL     1      -6.203   6.361 -30.961  1.00  0.00    -0.275 N 
HETATM   11  C   UNL     1      -4.959   6.919 -31.084  1.00  0.00     0.262 C 
HETATM   12  O   UNL     1      -4.739   8.120 -31.009  1.00  0.00    -0.267 OA
HETATM   13  H   UNL     1      -2.959   2.974 -31.754  1.00  0.00     0.170 HD
HETATM   14  H   UNL     1      -6.974   6.989 -30.794  1.00  0.00     0.173 HD
ENDROOT
BRANCH   1  15
HETATM   15  N   UNL     1      -1.871   7.058 -30.396  1.00  0.00    -0.327 N 
HETATM   16  C   UNL     1      -0.532   7.351 -30.286  1.00  0.00     0.253 C 
HETATM   17  O   UNL     1       0.285   7.049 -31.147  1.00  0.00    -0.268 OA
HETATM   18  H   UNL     1      -2.385   6.998 -29.523  1.00  0.00     0.164 HD
BRANCH  16  19
HETATM   19  C   UNL     1      -0.114   8.007 -29.010  1.00  0.00     0.032 A 
HETATM   20  C   UNL     1       1.118   7.737 -28.407  1.00  0.00     0.017 A 
HETATM   21  C   UNL     1       1.493   8.407 -27.236  1.00  0.00     0.009 A 
HETATM   22  C   UNL     1       0.654   9.359 -26.628  1.00  0.00    -0.051 A 
HETATM   23  C   UNL     1      -0.598   9.586 -27.226  1.00  0.00     0.009 A 
HETATM   24  C   UNL     1      -0.979   8.917 -28.401  1.00  0.00     0.017 A 
BRANCH  22  25
HETATM   25  C   UNL     1       1.113  10.088 -25.351  1.00  0.00    -0.024 C 
HETATM   26  C   UNL     1       0.035   9.965 -24.250  1.00  0.00     0.019 C 
HETATM   27  C   UNL     1       1.340  11.580 -25.669  1.00  0.00     0.019 C 
HETATM   28  C   UNL     1       2.426   9.533 -24.755  1.00  0.00     0.019 C 
ENDBRANCH  22  25
ENDBRANCH  16  19
ENDBRANCH   1  15
BRANCH   1  29
HETATM   29  C   UNL     1      -2.152   6.865 -32.880  1.00  0.00     0.426 C 
HETATM   30  F   UNL     1      -3.178   6.619 -33.732  1.00  0.00    -0.167 F 
HETATM   31  F   UNL     1      -2.019   8.210 -32.832  1.00  0.00    -0.167 F 
HETATM   32  F   UNL     1      -1.035   6.364 -33.456  1.00  0.00    -0.167 F 
ENDBRANCH   1  29
BRANCH   7  33
HETATM   33  C   UNL     1      -5.768   2.838 -31.944  1.00  0.00     0.140 C 
BRANCH  33  34
HETATM   34  C   UNL     1      -5.934   2.701 -33.459  1.00  0.00     0.059 C 
BRANCH  34  35
HETATM   35  C   UNL     1      -6.221   1.263 -33.824  1.00  0.00    -0.057 A 
HETATM   36  C   UNL     1      -7.125   0.955 -34.851  1.00  0.00     0.007 A 
HETATM   37  C   UNL     1      -7.442  -0.375 -35.138  1.00  0.00     0.001 A 
HETATM   38  C   UNL     1      -6.857  -1.406 -34.406  1.00  0.00     0.000 A 
HETATM   39  C   UNL     1      -5.953  -1.111 -33.389  1.00  0.00     0.001 A 
HETATM   40  C   UNL     1      -5.636   0.217 -33.096  1.00  0.00     0.007 A 
ENDBRANCH  34  35
ENDBRANCH  33  34
ENDBRANCH   7  33
TORSDOF 7
ENDMDL
MODEL 5
REMARK VINA RESULT:      -9.0      5.281      8.790
REMARK  7 active torsions:
REMARK  status: ('A' for Active; 'I' for Inactive)
REMARK    1  A    between atoms: C_2  and  C_3 
REMARK    2  A    between atoms: C_6  and  C_7 
REMARK       I    between atoms: C_7  and  N_8 
REMARK    3  A    between atoms: N_8  and  C_9 
REMARK    4  A    between atoms: C_9  and  C_10 
REMARK    5  A    between atoms: N_19  and  C_20 
REMARK    6  A    between atoms: C_20  and  C_21 
REMARK    7  A    between atoms: C_21  and  C_22 
ROOT
HETATM    1  C   UNL     1      -8.017   1.660 -32.899  1.00  0.00     0.249 C 
HETATM    2  C   UNL     1      -7.598   0.651 -33.988  1.00  0.00     0.266 C 
HETATM    3  O   UNL     1      -8.304   0.118 -34.827  1.00  0.00    -0.270 OA
HETATM    4  N   UNL     1      -6.233   0.413 -33.832  1.00  0.00    -0.310 N 
HETATM    5  C   UNL     1      -5.698   1.234 -32.897  1.00  0.00     0.129 C 
HETATM    6  C   UNL     1      -6.655   2.003 -32.383  1.00  0.00     0.101 C 
HETATM    7  N   UNL     1      -4.396   1.287 -32.483  1.00  0.00    -0.284 N 
HETATM    8  C   UNL     1      -3.991   2.260 -31.565  1.00  0.00     0.331 C 
HETATM    9  O   UNL     1      -2.841   2.381 -31.150  1.00  0.00    -0.246 OA
HETATM   10  N   UNL     1      -4.985   3.091 -31.099  1.00  0.00    -0.275 N 
HETATM   11  C   UNL     1      -6.323   2.984 -31.368  1.00  0.00     0.262 C 
HETATM   12  O   UNL     1      -7.187   3.644 -30.807  1.00  0.00    -0.267 OA
HETATM   13  H   UNL     1      -5.726  -0.208 -34.445  1.00  0.00     0.170 HD
HETATM   14  H   UNL     1      -4.709   3.761 -30.398  1.00  0.00     0.173 HD
ENDROOT
BRANCH   1  15
HETATM   15  N   UNL     1      -8.775   2.832 -33.366  1.00  0.00    -0.327 N 
HETATM   16  C   UNL     1      -9.990   2.743 -34.004  1.00  0.00     0.253 C 
HETATM   17  O   UNL     1     -10.585   1.682 -34.148  1.00  0.00    -0.268 OA
HETATM   18  H   UNL     1      -8.203   3.633 -33.615  1.00  0.00     0.164 HD
BRANCH  16  19
HETATM   19  C   UNL     1     -10.520   4.018 -34.574  1.00  0.00     0.032 A 
HETATM   20  C   UNL     1     -11.849   4.149 -34.988  1.00  0.00     0.017 A 
HETATM   21  C   UNL     1     -12.320   5.375 -35.475  1.00  0.00     0.009 A 
HETATM   22  C   UNL     1     -11.483   6.502 -35.571  1.00  0.00    -0.051 A 
HETATM   23  C   UNL     1     -10.140   6.338 -35.190  1.00  0.00     0.009 A 
HETATM   24  C   UNL     1      -9.663   5.112 -34.700  1.00  0.00     0.017 A 
BRANCH  22  25
HETATM   25  C   UNL     1     -12.046   7.837 -36.095  1.00  0.00    -0.024 C 
HETATM   26  C   UNL     1     -12.326   8.797 -34.916  1.00  0.00     0.019 C 
HETATM   27  C   UNL     1     -13.362   7.572 -36.853  1.00  0.00     0.019 C 
HETATM   28  C   UNL     1     -11.094   8.579 -37.059  1.00  0.00     0.019 C 
ENDBRANCH  22  25
ENDBRANCH  16  19
ENDBRANCH   1  15
BRANCH   1  29
HETATM   29  C   UNL     1      -8.799   0.813 -31.882  1.00  0.00     0.426 C 
HETATM   30  F   UNL     1      -9.594   1.597 -31.113  1.00  0.00    -0.167 F 
HETATM   31  F   UNL     1      -9.621  -0.079 -32.482  1.00  0.00    -0.167 F 
HETATM   32  F   UNL     1      -7.995   0.124 -31.039  1.00  0.00    -0.167 F 
ENDBRANCH   1  29
BRANCH   7  33
HETATM   33  C   UNL     1      -3.426   0.271 -32.887  1.00  0.00     0.140 C 
BRANCH  33  34
HETATM   34  C   UNL     1      -3.340  -0.912 -31.922  1.00  0.00     0.059 C 
BRANCH  34  35
HETATM   35  C   UNL     1      -3.639  -2.202 -32.649  1.00  0.00    -0.057 A 
HETATM   36  C   UNL     1      -3.152  -3.424 -32.163  1.00  0.00     0.007 A 
HETATM   37  C   UNL     1      -3.369  -4.605 -32.876  1.00  0.00     0.001 A 
HETATM   38  C   UNL     1      -4.074  -4.577 -34.076  1.00  0.00     0.000 A 
HETATM   39  C   UNL     1      -4.567  -3.369 -34.565  1.00  0.00     0.001 A 
HETATM   40  C   UNL     1      -4.349  -2.185 -33.858  1.00  0.00     0.007 A 
ENDBRANCH  34  35
ENDBRANCH  33  34
ENDBRANCH   7  33
TORSDOF 7
ENDMDL
MODEL 6
REMARK VINA RESULT:      -8.8      3.008      3.935
REMARK  7 active torsions:
REMARK  status: ('A' for Active; 'I' for Inactive)
REMARK    1  A    between atoms: C_2  and  C_3 
REMARK    2  A    between atoms: C_6  and  C_7 
REMARK       I    between atoms: C_7  and  N_8 
REMARK    3  A    between atoms: N_8  and  C_9 
REMARK    4  A    between atoms: C_9  and  C_10 
REMARK    5  A    between atoms: N_19  and  C_20 
REMARK    6  A    between atoms: C_20  and  C_21 
REMARK    7  A    between atoms: C_21  and  C_22 
ROOT
HETATM    1  C   UNL     1      -7.857   4.562 -31.987  1.00  0.00     0.249 C 
HETATM    2  C   UNL     1      -7.848   4.288 -33.505  1.00  0.00     0.266 C 
HETATM    3  O   UNL     1      -8.017   5.087 -34.411  1.00  0.00    -0.270 OA
HETATM    4  N   UNL     1      -7.637   2.922 -33.681  1.00  0.00    -0.310 N 
HETATM    5  C   UNL     1      -7.366   2.314 -32.501  1.00  0.00     0.129 C 
HETATM    6  C   UNL     1      -7.418   3.211 -31.518  1.00  0.00     0.101 C 
HETATM    7  N   UNL     1      -7.106   0.989 -32.287  1.00  0.00    -0.284 N 
HETATM    8  C   UNL     1      -6.758   0.539 -31.011  1.00  0.00     0.331 C 
HETATM    9  O   UNL     1      -6.501  -0.631 -30.737  1.00  0.00    -0.246 OA
HETATM   10  N   UNL     1      -6.750   1.498 -30.022  1.00  0.00    -0.275 N 
HETATM   11  C   UNL     1      -7.144   2.802 -30.155  1.00  0.00     0.262 C 
HETATM   12  O   UNL     1      -7.271   3.575 -29.216  1.00  0.00    -0.267 OA
HETATM   13  H   UNL     1      -7.576   2.504 -34.597  1.00  0.00     0.170 HD
HETATM   14  H   UNL     1      -6.550   1.170 -29.090  1.00  0.00     0.173 HD
ENDROOT
BRANCH   1  15
HETATM   15  N   UNL     1      -6.983   5.652 -31.525  1.00  0.00    -0.327 N 
HETATM   16  C   UNL     1      -5.653   5.749 -31.859  1.00  0.00     0.253 C 
HETATM   17  O   UNL     1      -5.112   4.985 -32.650  1.00  0.00    -0.268 OA
HETATM   18  H   UNL     1      -7.244   6.051 -30.628  1.00  0.00     0.164 HD
BRANCH  16  19
HETATM   19  C   UNL     1      -4.879   6.810 -31.146  1.00  0.00     0.032 A 
HETATM   20  C   UNL     1      -5.231   8.161 -31.221  1.00  0.00     0.017 A 
HETATM   21  C   UNL     1      -4.509   9.120 -30.500  1.00  0.00     0.009 A 
HETATM   22  C   UNL     1      -3.412   8.765 -29.692  1.00  0.00    -0.051 A 
HETATM   23  C   UNL     1      -3.048   7.409 -29.664  1.00  0.00     0.009 A 
HETATM   24  C   UNL     1      -3.770   6.443 -30.383  1.00  0.00     0.017 A 
BRANCH  22  25
HETATM   25  C   UNL     1      -2.656   9.850 -28.901  1.00  0.00    -0.024 C 
HETATM   26  C   UNL     1      -2.384  11.076 -29.803  1.00  0.00     0.019 C 
HETATM   27  C   UNL     1      -1.310   9.278 -28.411  1.00  0.00     0.019 C 
HETATM   28  C   UNL     1      -3.422  10.367 -27.663  1.00  0.00     0.019 C 
ENDBRANCH  22  25
ENDBRANCH  16  19
ENDBRANCH   1  15
BRANCH   1  29
HETATM   29  C   UNL     1      -9.339   4.808 -31.659  1.00  0.00     0.426 C 
HETATM   30  F   UNL     1      -9.484   5.242 -30.382  1.00  0.00    -0.167 F 
HETATM   31  F   UNL     1      -9.885   5.766 -32.443  1.00  0.00    -0.167 F 
HETATM   32  F   UNL     1     -10.100   3.696 -31.784  1.00  0.00    -0.167 F 
ENDBRANCH   1  29
BRANCH   7  33
HETATM   33  C   UNL     1      -7.296  -0.004 -33.342  1.00  0.00     0.140 C 
BRANCH  33  34
HETATM   34  C   UNL     1      -6.038  -0.263 -34.173  1.00  0.00     0.059 C 
BRANCH  34  35
HETATM   35  C   UNL     1      -5.842  -1.747 -34.375  1.00  0.00    -0.057 A 
HETATM   36  C   UNL     1      -6.930  -2.574 -34.690  1.00  0.00     0.007 A 
HETATM   37  C   UNL     1      -6.758  -3.955 -34.805  1.00  0.00     0.001 A 
HETATM   38  C   UNL     1      -5.500  -4.521 -34.609  1.00  0.00     0.000 A 
HETATM   39  C   UNL     1      -4.412  -3.708 -34.301  1.00  0.00     0.001 A 
HETATM   40  C   UNL     1      -4.580  -2.327 -34.181  1.00  0.00     0.007 A 
ENDBRANCH  34  35
ENDBRANCH  33  34
ENDBRANCH   7  33
TORSDOF 7
ENDMDL
MODEL 7
REMARK VINA RESULT:      -8.8      6.522      9.789
REMARK  7 active torsions:
REMARK  status: ('A' for Active; 'I' for Inactive)
REMARK    1  A    between atoms: C_2  and  C_3 
REMARK    2  A    between atoms: C_6  and  C_7 
REMARK       I    between atoms: C_7  and  N_8 
REMARK    3  A    between atoms: N_8  and  C_9 
REMARK    4  A    between atoms: C_9  and  C_10 
REMARK    5  A    between atoms: N_19  and  C_20 
REMARK    6  A    between atoms: C_20  and  C_21 
REMARK    7  A    between atoms: C_21  and  C_22 
ROOT
HETATM    1  C   UNL     1     -10.882   3.899 -32.494  1.00  0.00     0.249 C 
HETATM    2  C   UNL     1     -11.460   2.504 -32.809  1.00  0.00     0.266 C 
HETATM    3  O   UNL     1     -12.628   2.199 -32.982  1.00  0.00    -0.270 OA
HETATM    4  N   UNL     1     -10.393   1.607 -32.834  1.00  0.00    -0.310 N 
HETATM    5  C   UNL     1      -9.208   2.254 -32.725  1.00  0.00     0.129 C 
HETATM    6  C   UNL     1      -9.428   3.560 -32.593  1.00  0.00     0.101 C 
HETATM    7  N   UNL     1      -7.957   1.703 -32.714  1.00  0.00    -0.284 N 
HETATM    8  C   UNL     1      -6.828   2.526 -32.683  1.00  0.00     0.331 C 
HETATM    9  O   UNL     1      -5.671   2.113 -32.681  1.00  0.00    -0.246 OA
HETATM   10  N   UNL     1      -7.079   3.879 -32.617  1.00  0.00    -0.275 N 
HETATM   11  C   UNL     1      -8.305   4.470 -32.477  1.00  0.00     0.262 C 
HETATM   12  O   UNL     1      -8.467   5.664 -32.263  1.00  0.00    -0.267 OA
HETATM   13  H   UNL     1     -10.524   0.626 -33.036  1.00  0.00     0.170 HD
HETATM   14  H   UNL     1      -6.269   4.476 -32.543  1.00  0.00     0.173 HD
ENDROOT
BRANCH   1  15
HETATM   15  N   UNL     1     -11.290   4.984 -33.402  1.00  0.00    -0.327 N 
HETATM   16  C   UNL     1     -11.221   4.891 -34.772  1.00  0.00     0.253 C 
HETATM   17  O   UNL     1     -10.903   3.859 -35.349  1.00  0.00    -0.268 OA
HETATM   18  H   UNL     1     -11.188   5.917 -33.015  1.00  0.00     0.164 HD
BRANCH  16  19
HETATM   19  C   UNL     1     -11.495   6.153 -35.523  1.00  0.00     0.032 A 
HETATM   20  C   UNL     1     -10.480   7.058 -35.846  1.00  0.00     0.017 A 
HETATM   21  C   UNL     1     -10.769   8.207 -36.592  1.00  0.00     0.009 A 
HETATM   22  C   UNL     1     -12.076   8.493 -37.032  1.00  0.00    -0.051 A 
HETATM   23  C   UNL     1     -13.089   7.593 -36.661  1.00  0.00     0.009 A 
HETATM   24  C   UNL     1     -12.804   6.439 -35.914  1.00  0.00     0.017 A 
BRANCH  22  25
HETATM   25  C   UNL     1     -12.348   9.759 -37.866  1.00  0.00    -0.024 C 
HETATM   26  C   UNL     1     -13.733  10.346 -37.510  1.00  0.00     0.019 C 
HETATM   27  C   UNL     1     -12.325   9.396 -39.365  1.00  0.00     0.019 C 
HETATM   28  C   UNL     1     -11.314  10.886 -37.644  1.00  0.00     0.019 C 
ENDBRANCH  22  25
ENDBRANCH  16  19
ENDBRANCH   1  15
BRANCH   1  29
HETATM   29  C   UNL     1     -11.294   4.156 -31.036  1.00  0.00     0.426 C 
HETATM   30  F   UNL     1     -11.135   5.465 -30.715  1.00  0.00    -0.167 F 
HETATM   31  F   UNL     1     -12.598   3.872 -30.814  1.00  0.00    -0.167 F 
HETATM   32  F   UNL     1     -10.564   3.443 -30.146  1.00  0.00    -0.167 F 
ENDBRANCH   1  29
BRANCH   7  33
HETATM   33  C   UNL     1      -7.762   0.259 -32.616  1.00  0.00     0.140 C 
BRANCH  33  34
HETATM   34  C   UNL     1      -7.799  -0.458 -33.967  1.00  0.00     0.059 C 
BRANCH  34  35
HETATM   35  C   UNL     1      -6.669  -1.456 -34.060  1.00  0.00    -0.057 A 
HETATM   36  C   UNL     1      -5.385  -1.123 -33.604  1.00  0.00     0.007 A 
HETATM   37  C   UNL     1      -4.326  -2.020 -33.757  1.00  0.00     0.001 A 
HETATM   38  C   UNL     1      -4.540  -3.257 -34.363  1.00  0.00     0.000 A 
HETATM   39  C   UNL     1      -5.813  -3.599 -34.814  1.00  0.00     0.001 A 
HETATM   40  C   UNL     1      -6.873  -2.703 -34.667  1.00  0.00     0.007 A 
ENDBRANCH  34  35
ENDBRANCH  33  34
ENDBRANCH   7  33
TORSDOF 7
ENDMDL
MODEL 8
REMARK VINA RESULT:      -8.7      3.490      9.292
REMARK  7 active torsions:
REMARK  status: ('A' for Active; 'I' for Inactive)
REMARK    1  A    between atoms: C_2  and  C_3 
REMARK    2  A    between atoms: C_6  and  C_7 
REMARK       I    between atoms: C_7  and  N_8 
REMARK    3  A    between atoms: N_8  and  C_9 
REMARK    4  A    between atoms: C_9  and  C_10 
REMARK    5  A    between atoms: N_19  and  C_20 
REMARK    6  A    between atoms: C_20  and  C_21 
REMARK    7  A    between atoms: C_21  and  C_22 
ROOT
HETATM    1  C   UNL     1      -4.329   4.729 -32.383  1.00  0.00     0.249 C 
HETATM    2  C   UNL     1      -3.791   5.911 -33.214  1.00  0.00     0.266 C 
HETATM    3  O   UNL     1      -3.633   5.966 -34.422  1.00  0.00    -0.270 OA
HETATM    4  N   UNL     1      -3.474   6.937 -32.325  1.00  0.00    -0.310 N 
HETATM    5  C   UNL     1      -3.868   6.630 -31.066  1.00  0.00     0.129 C 
HETATM    6  C   UNL     1      -4.415   5.416 -31.056  1.00  0.00     0.101 C 
HETATM    7  N   UNL     1      -3.725   7.392 -29.939  1.00  0.00    -0.284 N 
HETATM    8  C   UNL     1      -4.270   6.962 -28.727  1.00  0.00     0.331 C 
HETATM    9  O   UNL     1      -4.194   7.590 -27.674  1.00  0.00    -0.246 OA
HETATM   10  N   UNL     1      -4.893   5.734 -28.756  1.00  0.00    -0.275 N 
HETATM   11  C   UNL     1      -4.933   4.870 -29.817  1.00  0.00     0.262 C 
HETATM   12  O   UNL     1      -5.358   3.725 -29.749  1.00  0.00    -0.267 OA
HETATM   13  H   UNL     1      -3.114   7.826 -32.640  1.00  0.00     0.170 HD
HETATM   14  H   UNL     1      -5.242   5.395 -27.873  1.00  0.00     0.173 HD
ENDROOT
BRANCH   1  15
HETATM   15  N   UNL     1      -5.612   4.160 -32.828  1.00  0.00    -0.327 N 
HETATM   16  C   UNL     1      -6.729   4.920 -33.083  1.00  0.00     0.253 C 
HETATM   17  O   UNL     1      -6.717   6.145 -33.052  1.00  0.00    -0.268 OA
HETATM   18  H   UNL     1      -5.785   3.211 -32.511  1.00  0.00     0.164 HD
BRANCH  16  19
HETATM   19  C   UNL     1      -7.988   4.159 -33.338  1.00  0.00     0.032 A 
HETATM   20  C   UNL     1      -8.227   2.907 -32.763  1.00  0.00     0.017 A 
HETATM   21  C   UNL     1      -9.440   2.246 -32.989  1.00  0.00     0.009 A 
HETATM   22  C   UNL     1     -10.447   2.805 -33.799  1.00  0.00    -0.051 A 
HETATM   23  C   UNL     1     -10.171   4.043 -34.402  1.00  0.00     0.009 A 
HETATM   24  C   UNL     1      -8.957   4.712 -34.177  1.00  0.00     0.017 A 
BRANCH  22  25
HETATM   25  C   UNL     1     -11.775   2.052 -34.007  1.00  0.00    -0.024 C 
HETATM   26  C   UNL     1     -12.896   2.704 -33.166  1.00  0.00     0.019 C 
HETATM   27  C   UNL     1     -11.603   0.584 -33.566  1.00  0.00     0.019 C 
HETATM   28  C   UNL     1     -12.263   2.043 -35.473  1.00  0.00     0.019 C 
ENDBRANCH  22  25
ENDBRANCH  16  19
ENDBRANCH   1  15
BRANCH   1  29
HETATM   29  C   UNL     1      -3.184   3.703 -32.403  1.00  0.00     0.426 C 
HETATM   30  F   UNL     1      -2.547   3.717 -33.600  1.00  0.00    -0.167 F 
HETATM   31  F   UNL     1      -2.239   3.973 -31.473  1.00  0.00    -0.167 F 
HETATM   32  F   UNL     1      -3.607   2.434 -32.198  1.00  0.00    -0.167 F 
ENDBRANCH   1  29
BRANCH   7  33
HETATM   33  C   UNL     1      -2.909   8.604 -29.939  1.00  0.00     0.140 C 
BRANCH  33  34
HETATM   34  C   UNL     1      -1.620   8.475 -29.124  1.00  0.00     0.059 C 
BRANCH  34  35
HETATM   35  C   UNL     1      -0.741   7.393 -29.708  1.00  0.00    -0.057 A 
HETATM   36  C   UNL     1      -0.345   7.445 -31.052  1.00  0.00     0.007 A 
HETATM   37  C   UNL     1       0.408   6.408 -31.607  1.00  0.00     0.001 A 
HETATM   38  C   UNL     1       0.774   5.315 -30.825  1.00  0.00     0.000 A 
HETATM   39  C   UNL     1       0.391   5.257 -29.487  1.00  0.00     0.001 A 
HETATM   40  C   UNL     1      -0.365   6.290 -28.930  1.00  0.00     0.007 A 
ENDBRANCH  34  35
ENDBRANCH  33  34
ENDBRANCH   7  33
TORSDOF 7
ENDMDL
MODEL 9
REMARK VINA RESULT:      -8.6      1.651      2.420
REMARK  7 active torsions:
REMARK  status: ('A' for Active; 'I' for Inactive)
REMARK    1  A    between atoms: C_2  and  C_3 
REMARK    2  A    between atoms: C_6  and  C_7 
REMARK       I    between atoms: C_7  and  N_8 
REMARK    3  A    between atoms: N_8  and  C_9 
REMARK    4  A    between atoms: C_9  and  C_10 
REMARK    5  A    between atoms: N_19  and  C_20 
REMARK    6  A    between atoms: C_20  and  C_21 
REMARK    7  A    between atoms: C_21  and  C_22 
ROOT
HETATM    1  C   UNL     1      -3.882   7.050 -30.838  1.00  0.00     0.249 C 
HETATM    2  C   UNL     1      -3.289   6.670 -32.209  1.00  0.00     0.266 C 
HETATM    3  O   UNL     1      -2.650   7.375 -32.971  1.00  0.00    -0.270 OA
HETATM    4  N   UNL     1      -3.642   5.345 -32.463  1.00  0.00    -0.310 N 
HETATM    5  C   UNL     1      -4.248   4.786 -31.387  1.00  0.00     0.129 C 
HETATM    6  C   UNL     1      -4.352   5.693 -30.418  1.00  0.00     0.101 C 
HETATM    7  N   UNL     1      -4.726   3.511 -31.269  1.00  0.00    -0.284 N 
HETATM    8  C   UNL     1      -5.247   3.067 -30.052  1.00  0.00     0.331 C 
HETATM    9  O   UNL     1      -5.687   1.936 -29.860  1.00  0.00    -0.246 OA
HETATM   10  N   UNL     1      -5.281   4.001 -29.041  1.00  0.00    -0.275 N 
HETATM   11  C   UNL     1      -4.953   5.326 -29.151  1.00  0.00     0.262 C 
HETATM   12  O   UNL     1      -5.150   6.153 -28.271  1.00  0.00    -0.267 OA
HETATM   13  H   UNL     1      -3.352   4.866 -33.302  1.00  0.00     0.170 HD
HETATM   14  H   UNL     1      -5.704   3.702 -28.176  1.00  0.00     0.173 HD
ENDROOT
BRANCH   1  15
HETATM   15  N   UNL     1      -2.947   7.665 -29.881  1.00  0.00    -0.327 N 
HETATM   16  C   UNL     1      -1.710   7.141 -29.589  1.00  0.00     0.253 C 
HETATM   17  O   UNL     1      -1.248   6.170 -30.175  1.00  0.00    -0.268 OA
HETATM   18  H   UNL     1      -3.392   8.192 -29.135  1.00  0.00     0.164 HD
BRANCH  16  19
HETATM   19  C   UNL     1      -0.980   7.789 -28.458  1.00  0.00     0.032 A 
HETATM   20  C   UNL     1       0.091   7.165 -27.812  1.00  0.00     0.017 A 
HETATM   21  C   UNL     1       0.780   7.825 -26.787  1.00  0.00     0.009 A 
HETATM   22  C   UNL     1       0.419   9.119 -26.369  1.00  0.00    -0.051 A 
HETATM   23  C   UNL     1      -0.687   9.712 -27.001  1.00  0.00     0.009 A 
HETATM   24  C   UNL     1      -1.380   9.056 -28.030  1.00  0.00     0.017 A 
BRANCH  22  25
HETATM   25  C   UNL     1       1.215   9.817 -25.249  1.00  0.00    -0.024 C 
HETATM   26  C   UNL     1       0.403   9.808 -23.933  1.00  0.00     0.019 C 
HETATM   27  C   UNL     1       1.496  11.277 -25.658  1.00  0.00     0.019 C 
HETATM   28  C   UNL     1       2.574   9.149 -24.941  1.00  0.00     0.019 C 
ENDBRANCH  22  25
ENDBRANCH  16  19
ENDBRANCH   1  15
BRANCH   1  29
HETATM   29  C   UNL     1      -5.069   7.966 -31.182  1.00  0.00     0.426 C 
HETATM   30  F   UNL     1      -4.636   9.204 -31.530  1.00  0.00    -0.167 F 
HETATM   31  F   UNL     1      -5.779   7.507 -32.238  1.00  0.00    -0.167 F 
HETATM   32  F   UNL     1      -5.929   8.126 -30.149  1.00  0.00    -0.167 F 
ENDBRANCH   1  29
BRANCH   7  33
HETATM   33  C   UNL     1      -4.816   2.622 -32.426  1.00  0.00     0.140 C 
BRANCH  33  34
HETATM   34  C   UNL     1      -6.217   2.553 -33.037  1.00  0.00     0.059 C 
BRANCH  34  35
HETATM   35  C   UNL     1      -6.467   1.179 -33.614  1.00  0.00    -0.057 A 
HETATM   36  C   UNL     1      -7.180   1.027 -34.812  1.00  0.00     0.007 A 
HETATM   37  C   UNL     1      -7.471  -0.246 -35.304  1.00  0.00     0.001 A 
HETATM   38  C   UNL     1      -7.051  -1.377 -34.608  1.00  0.00     0.000 A 
HETATM   39  C   UNL     1      -6.337  -1.238 -33.421  1.00  0.00     0.001 A 
HETATM   40  C   UNL     1      -6.047   0.034 -32.923  1.00  0.00     0.007 A 
ENDBRANCH  34  35
ENDBRANCH  33  34
ENDBRANCH   7  33
TORSDOF 7
ENDMDL
MODEL 10
REMARK VINA RESULT:      -8.5      2.881      9.535
REMARK  7 active torsions:
REMARK  status: ('A' for Active; 'I' for Inactive)
REMARK    1  A    between atoms: C_2  and  C_3 
REMARK    2  A    between atoms: C_6  and  C_7 
REMARK       I    between atoms: C_7  and  N_8 
REMARK    3  A    between atoms: N_8  and  C_9 
REMARK    4  A    between atoms: C_9  and  C_10 
REMARK    5  A    between atoms: N_19  and  C_20 
REMARK    6  A    between atoms: C_20  and  C_21 
REMARK    7  A    between atoms: C_21  and  C_22 
ROOT
HETATM    1  C   UNL     1      -4.629   4.040 -32.425  1.00  0.00     0.249 C 
HETATM    2  C   UNL     1      -5.030   5.182 -33.381  1.00  0.00     0.266 C 
HETATM    3  O   UNL     1      -4.660   5.362 -34.529  1.00  0.00    -0.270 OA
HETATM    4  N   UNL     1      -5.893   6.026 -32.684  1.00  0.00    -0.310 N 
HETATM    5  C   UNL     1      -6.212   5.506 -31.474  1.00  0.00     0.129 C 
HETATM    6  C   UNL     1      -5.570   4.352 -31.305  1.00  0.00     0.101 C 
HETATM    7  N   UNL     1      -7.030   6.051 -30.523  1.00  0.00    -0.284 N 
HETATM    8  C   UNL     1      -7.323   5.338 -29.358  1.00  0.00     0.331 C 
HETATM    9  O   UNL     1      -8.055   5.750 -28.462  1.00  0.00    -0.246 OA
HETATM   10  N   UNL     1      -6.704   4.114 -29.236  1.00  0.00    -0.275 N 
HETATM   11  C   UNL     1      -5.765   3.592 -30.085  1.00  0.00     0.262 C 
HETATM   12  O   UNL     1      -5.125   2.576 -29.854  1.00  0.00    -0.267 OA
HETATM   13  H   UNL     1      -6.303   6.843 -33.111  1.00  0.00     0.170 HD
HETATM   14  H   UNL     1      -6.871   3.617 -28.374  1.00  0.00     0.173 HD
ENDROOT
BRANCH   1  15
HETATM   15  N   UNL     1      -4.784   2.675 -32.953  1.00  0.00    -0.327 N 
HETATM   16  C   UNL     1      -5.963   2.193 -33.471  1.00  0.00     0.253 C 
HETATM   17  O   UNL     1      -6.955   2.895 -33.622  1.00  0.00    -0.268 OA
HETATM   18  H   UNL     1      -4.174   1.985 -32.525  1.00  0.00     0.164 HD
BRANCH  16  19
HETATM   19  C   UNL     1      -5.987   0.732 -33.781  1.00  0.00     0.032 A 
HETATM   20  C   UNL     1      -6.930   0.174 -34.650  1.00  0.00     0.017 A 
HETATM   21  C   UNL     1      -6.891  -1.192 -34.952  1.00  0.00     0.009 A 
HETATM   22  C   UNL     1      -5.920  -2.045 -34.394  1.00  0.00    -0.051 A 
HETATM   23  C   UNL     1      -5.008  -1.474 -33.490  1.00  0.00     0.009 A 
HETATM   24  C   UNL     1      -5.042  -0.104 -33.185  1.00  0.00     0.017 A 
BRANCH  22  25
HETATM   25  C   UNL     1      -5.902  -3.540 -34.767  1.00  0.00    -0.024 C 
HETATM   26  C   UNL     1      -7.142  -4.251 -34.181  1.00  0.00     0.019 C 
HETATM   27  C   UNL     1      -4.628  -4.192 -34.192  1.00  0.00     0.019 C 
HETATM   28  C   UNL     1      -5.913  -3.802 -36.290  1.00  0.00     0.019 C 
ENDBRANCH  22  25
ENDBRANCH  16  19
ENDBRANCH   1  15
BRANCH   1  29
HETATM   29  C   UNL     1      -3.177   4.367 -32.037  1.00  0.00     0.426 C 
HETATM   30  F   UNL     1      -2.642   3.367 -31.292  1.00  0.00    -0.167 F 
HETATM   31  F   UNL     1      -2.375   4.498 -33.119  1.00  0.00    -0.167 F 
HETATM   32  F   UNL     1      -3.067   5.502 -31.308  1.00  0.00    -0.167 F 
ENDBRANCH   1  29
BRANCH   7  33
HETATM   33  C   UNL     1      -7.521   7.422 -30.636  1.00  0.00     0.140 C 
BRANCH  33  34
HETATM   34  C   UNL     1      -6.411   8.475 -30.609  1.00  0.00     0.059 C 
BRANCH  34  35
HETATM   35  C   UNL     1      -5.631   8.378 -29.319  1.00  0.00    -0.057 A 
HETATM   36  C   UNL     1      -6.209   8.780 -28.106  1.00  0.00     0.007 A 
HETATM   37  C   UNL     1      -5.462   8.758 -26.926  1.00  0.00     0.001 A 
HETATM   38  C   UNL     1      -4.136   8.330 -26.946  1.00  0.00     0.000 A 
HETATM   39  C   UNL     1      -3.555   7.923 -28.145  1.00  0.00     0.001 A 
HETATM   40  C   UNL     1      -4.297   7.948 -29.328  1.00  0.00     0.007 A 
ENDBRANCH  34  35
ENDBRANCH  33  34
ENDBRANCH   7  33
TORSDOF 7
ENDMDL
