MODEL 1
REMARK VINA RESULT:      -8.1      0.000      0.000
REMARK  5 active torsions:
REMARK  status: ('A' for Active; 'I' for Inactive)
REMARK    1  A    between atoms: C_4  and  C_5 
REMARK    2  A    between atoms: C_10  and  C_11 
REMARK       I    between atoms: C_11  and  N_12 
REMARK    3  A    between atoms: N_12  and  C_13 
REMARK    4  A    between atoms: C_13  and  C_14 
REMARK    5  A    between atoms: C_22  and  C_23 
ROOT
HETATM    1  C   UNL     1      -5.348   5.070 -31.678  1.00  0.00     0.118 C 
HETATM    2  N   UNL     1      -6.514   4.438 -32.289  1.00  0.00    -0.365 N 
HETATM    3  C   UNL     1      -6.642   3.090 -32.352  1.00  0.00     0.141 A 
HETATM    4  N   UNL     1      -5.805   2.262 -31.656  1.00  0.00    -0.238 N 
HETATM    5  N   UNL     1      -6.090   0.955 -31.790  1.00  0.00    -0.163 NA
HETATM    6  C   UNL     1      -7.129   0.934 -32.664  1.00  0.00     0.165 A 
HETATM    7  C   UNL     1      -7.502   2.256 -33.019  1.00  0.00     0.092 A 
HETATM    8 BR   UNL     1      -8.874   2.777 -34.182  1.00  0.00    -0.044 Br
HETATM    9  C   UNL     1      -4.719   2.716 -30.809  1.00  0.00     0.221 C 
HETATM   10  C   UNL     1      -4.870   4.216 -30.488  1.00  0.00     0.066 C 
HETATM   11  H   UNL     1      -7.051   5.033 -32.920  1.00  0.00     0.162 HD
ENDROOT
BRANCH   6  12
HETATM   12  C   UNL     1      -7.686  -0.346 -33.131  1.00  0.00     0.273 C 
HETATM   13  N   UNL     1      -6.716  -1.223 -33.563  1.00  0.00    -0.353 N 
HETATM   14  H   UNL     1      -5.766  -0.857 -33.581  1.00  0.00     0.162 HD
HETATM   15  O   UNL     1      -8.885  -0.601 -33.172  1.00  0.00    -0.266 OA
BRANCH  13  16
HETATM   16  C   UNL     1      -6.997  -2.460 -34.262  1.00  0.00     0.155 C 
BRANCH  16  17
HETATM   17  C   UNL     1      -5.768  -3.052 -34.969  1.00  0.00     0.139 C 
HETATM   18  O   UNL     1      -5.824  -4.493 -34.901  1.00  0.00    -0.384 OA
HETATM   19  C   UNL     1      -4.615  -4.972 -34.299  1.00  0.00     0.168 C 
HETATM   20  C   UNL     1      -4.001  -3.807 -33.558  1.00  0.00     0.029 C 
HETATM   21  C   UNL     1      -4.420  -2.629 -34.399  1.00  0.00     0.035 C 
ENDBRANCH  16  17
ENDBRANCH  13  16
ENDBRANCH   6  12
BRANCH   9  22
HETATM   22  C   UNL     1      -3.385   2.350 -31.425  1.00  0.00     0.409 C 
HETATM   23  F   UNL     1      -3.405   2.271 -32.768  1.00  0.00    -0.169 F 
HETATM   24  F   UNL     1      -2.446   3.273 -31.090  1.00  0.00    -0.169 F 
HETATM   25  F   UNL     1      -2.926   1.164 -30.961  1.00  0.00    -0.169 F 
ENDBRANCH   9  22
BRANCH   1  26
HETATM   26  C   UNL     1      -4.268   5.439 -32.684  1.00  0.00    -0.035 A 
HETATM   27  C   UNL     1      -4.332   5.080 -34.041  1.00  0.00     0.009 A 
HETATM   28  C   UNL     1      -3.320   5.446 -34.932  1.00  0.00     0.001 A 
HETATM   29  C   UNL     1      -2.231   6.187 -34.486  1.00  0.00     0.000 A 
HETATM   30  C   UNL     1      -2.154   6.569 -33.151  1.00  0.00     0.001 A 
HETATM   31  C   UNL     1      -3.165   6.203 -32.259  1.00  0.00     0.009 A 
ENDBRANCH   1  26
TORSDOF 5
ENDMDL
MODEL 2
REMARK VINA RESULT:      -8.0      3.515      7.651
REMARK  5 active torsions:
REMARK  status: ('A' for Active; 'I' for Inactive)
REMARK    1  A    between atoms: C_4  and  C_5 
REMARK    2  A    between atoms: C_10  and  C_11 
REMARK       I    between atoms: C_11  and  N_12 
REMARK    3  A    between atoms: N_12  and  C_13 
REMARK    4  A    between atoms: C_13  and  C_14 
REMARK    5  A    between atoms: C_22  and  C_23 
ROOT
HETATM    1  C   UNL     1      -6.619  -0.220 -31.766  1.00  0.00     0.118 C 
HETATM    2  N   UNL     1      -5.569   0.746 -31.454  1.00  0.00    -0.365 N 
HETATM    3  C   UNL     1      -5.589   2.005 -31.954  1.00  0.00     0.141 A 
HETATM    4  N   UNL     1      -6.694   2.504 -32.586  1.00  0.00    -0.238 N 
HETATM    5  N   UNL     1      -6.570   3.781 -32.985  1.00  0.00    -0.163 NA
HETATM    6  C   UNL     1      -5.296   4.108 -32.646  1.00  0.00     0.165 A 
HETATM    7  C   UNL     1      -4.667   3.020 -31.987  1.00  0.00     0.092 A 
HETATM    8 BR   UNL     1      -2.921   2.956 -31.313  1.00  0.00    -0.044 Br
HETATM    9  C   UNL     1      -7.924   1.763 -32.794  1.00  0.00     0.221 C 
HETATM   10  C   UNL     1      -7.967   0.515 -31.890  1.00  0.00     0.066 C 
HETATM   11  H   UNL     1      -4.695   0.345 -31.114  1.00  0.00     0.162 HD
ENDROOT
BRANCH   6  12
HETATM   12  C   UNL     1      -4.746   5.427 -32.996  1.00  0.00     0.273 C 
HETATM   13  N   UNL     1      -4.385   6.165 -31.890  1.00  0.00    -0.353 N 
HETATM   14  H   UNL     1      -4.613   5.750 -30.989  1.00  0.00     0.162 HD
HETATM   15  O   UNL     1      -4.650   5.851 -34.144  1.00  0.00    -0.266 OA
BRANCH  13  16
HETATM   16  C   UNL     1      -4.017   7.565 -31.937  1.00  0.00     0.155 C 
BRANCH  16  17
HETATM   17  C   UNL     1      -2.499   7.798 -31.854  1.00  0.00     0.139 C 
HETATM   18  O   UNL     1      -1.984   8.069 -33.175  1.00  0.00    -0.384 OA
HETATM   19  C   UNL     1      -0.938   7.132 -33.461  1.00  0.00     0.168 C 
HETATM   20  C   UNL     1      -1.115   5.972 -32.511  1.00  0.00     0.029 C 
HETATM   21  C   UNL     1      -1.690   6.638 -31.288  1.00  0.00     0.035 C 
ENDBRANCH  16  17
ENDBRANCH  13  16
ENDBRANCH   6  12
BRANCH   9  22
HETATM   22  C   UNL     1      -8.114   1.463 -34.266  1.00  0.00     0.409 C 
HETATM   23  F   UNL     1      -8.859   0.370 -34.510  1.00  0.00    -0.169 F 
HETATM   24  F   UNL     1      -8.722   2.511 -34.881  1.00  0.00    -0.169 F 
HETATM   25  F   UNL     1      -6.931   1.291 -34.901  1.00  0.00    -0.169 F 
ENDBRANCH   9  22
BRANCH   1  26
HETATM   26  C   UNL     1      -6.270  -1.132 -32.932  1.00  0.00    -0.035 A 
HETATM   27  C   UNL     1      -7.238  -1.834 -33.670  1.00  0.00     0.009 A 
HETATM   28  C   UNL     1      -6.873  -2.657 -34.739  1.00  0.00     0.001 A 
HETATM   29  C   UNL     1      -5.535  -2.784 -35.098  1.00  0.00     0.000 A 
HETATM   30  C   UNL     1      -4.561  -2.085 -34.393  1.00  0.00     0.001 A 
HETATM   31  C   UNL     1      -4.925  -1.263 -33.324  1.00  0.00     0.009 A 
ENDBRANCH   1  26
TORSDOF 5
ENDMDL
MODEL 3
REMARK VINA RESULT:      -7.9      4.138      7.927
REMARK  5 active torsions:
REMARK  status: ('A' for Active; 'I' for Inactive)
REMARK    1  A    between atoms: C_4  and  C_5 
REMARK    2  A    between atoms: C_10  and  C_11 
REMARK       I    between atoms: C_11  and  N_12 
REMARK    3  A    between atoms: N_12  and  C_13 
REMARK    4  A    between atoms: C_13  and  C_14 
REMARK    5  A    between atoms: C_22  and  C_23 
ROOT
HETATM    1  C   UNL     1      -4.447   0.136 -32.422  1.00  0.00     0.118 C 
HETATM    2  N   UNL     1      -3.636   1.328 -32.652  1.00  0.00    -0.365 N 
HETATM    3  C   UNL     1      -3.876   2.490 -31.998  1.00  0.00     0.141 A 
HETATM    4  N   UNL     1      -4.737   2.546 -30.937  1.00  0.00    -0.238 N 
HETATM    5  N   UNL     1      -4.833   3.760 -30.370  1.00  0.00    -0.163 NA
HETATM    6  C   UNL     1      -4.038   4.546 -31.142  1.00  0.00     0.165 A 
HETATM    7  C   UNL     1      -3.418   3.773 -32.157  1.00  0.00     0.092 A 
HETATM    8 BR   UNL     1      -2.228   4.372 -33.474  1.00  0.00    -0.044 Br
HETATM    9  C   UNL     1      -5.470   1.407 -30.415  1.00  0.00     0.221 C 
HETATM   10  C   UNL     1      -4.873   0.088 -30.943  1.00  0.00     0.066 C 
HETATM   11  H   UNL     1      -3.105   1.333 -33.524  1.00  0.00     0.162 HD
ENDROOT
BRANCH   6  12
HETATM   12  C   UNL     1      -3.941   5.992 -30.883  1.00  0.00     0.273 C 
HETATM   13  N   UNL     1      -2.965   6.305 -29.963  1.00  0.00    -0.353 N 
HETATM   14  H   UNL     1      -2.500   5.512 -29.527  1.00  0.00     0.162 HD
HETATM   15  O   UNL     1      -4.671   6.834 -31.398  1.00  0.00    -0.266 OA
BRANCH  13  16
HETATM   16  C   UNL     1      -2.801   7.617 -29.375  1.00  0.00     0.155 C 
BRANCH  16  17
HETATM   17  C   UNL     1      -1.423   8.240 -29.653  1.00  0.00     0.139 C 
HETATM   18  O   UNL     1      -0.813   7.569 -30.776  1.00  0.00    -0.384 OA
HETATM   19  C   UNL     1       0.470   7.072 -30.372  1.00  0.00     0.168 C 
HETATM   20  C   UNL     1       0.465   7.018 -28.863  1.00  0.00     0.029 C 
HETATM   21  C   UNL     1      -0.431   8.173 -28.498  1.00  0.00     0.035 C 
ENDBRANCH  16  17
ENDBRANCH  13  16
ENDBRANCH   6  12
BRANCH   9  22
HETATM   22  C   UNL     1      -6.950   1.567 -30.690  1.00  0.00     0.409 C 
HETATM   23  F   UNL     1      -7.228   2.252 -31.813  1.00  0.00    -0.169 F 
HETATM   24  F   UNL     1      -7.537   0.347 -30.807  1.00  0.00    -0.169 F 
HETATM   25  F   UNL     1      -7.586   2.192 -29.671  1.00  0.00    -0.169 F 
ENDBRANCH   9  22
BRANCH   1  26
HETATM   26  C   UNL     1      -5.577  -0.025 -33.426  1.00  0.00    -0.035 A 
HETATM   27  C   UNL     1      -6.088   1.044 -34.181  1.00  0.00     0.009 A 
HETATM   28  C   UNL     1      -7.124   0.849 -35.098  1.00  0.00     0.001 A 
HETATM   29  C   UNL     1      -7.662  -0.420 -35.286  1.00  0.00     0.000 A 
HETATM   30  C   UNL     1      -7.160  -1.497 -34.563  1.00  0.00     0.001 A 
HETATM   31  C   UNL     1      -6.125  -1.303 -33.645  1.00  0.00     0.009 A 
ENDBRANCH   1  26
TORSDOF 5
ENDMDL
MODEL 4
REMARK VINA RESULT:      -7.9      3.901      5.988
REMARK  5 active torsions:
REMARK  status: ('A' for Active; 'I' for Inactive)
REMARK    1  A    between atoms: C_4  and  C_5 
REMARK    2  A    between atoms: C_10  and  C_11 
REMARK       I    between atoms: C_11  and  N_12 
REMARK    3  A    between atoms: N_12  and  C_13 
REMARK    4  A    between atoms: C_13  and  C_14 
REMARK    5  A    between atoms: C_22  and  C_23 
ROOT
HETATM    1  C   UNL     1      -5.858   1.750 -30.476  1.00  0.00     0.118 C 
HETATM    2  N   UNL     1      -7.248   2.189 -30.553  1.00  0.00    -0.365 N 
HETATM    3  C   UNL     1      -8.093   1.719 -31.503  1.00  0.00     0.141 A 
HETATM    4  N   UNL     1      -7.757   0.653 -32.291  1.00  0.00    -0.238 N 
HETATM    5  N   UNL     1      -8.719   0.283 -33.152  1.00  0.00    -0.163 NA
HETATM    6  C   UNL     1      -9.706   1.193 -32.953  1.00  0.00     0.165 A 
HETATM    7  C   UNL     1      -9.346   2.093 -31.917  1.00  0.00     0.092 A 
HETATM    8 BR   UNL     1     -10.355   3.523 -31.252  1.00  0.00    -0.044 Br
HETATM    9  C   UNL     1      -6.498  -0.063 -32.207  1.00  0.00     0.221 C 
HETATM   10  C   UNL     1      -5.769   0.268 -30.890  1.00  0.00     0.066 C 
HETATM   11  H   UNL     1      -7.455   3.067 -30.074  1.00  0.00     0.162 HD
ENDROOT
BRANCH   6  12
HETATM   12  C   UNL     1     -10.922   1.168 -33.782  1.00  0.00     0.273 C 
HETATM   13  N   UNL     1     -12.027   0.713 -33.096  1.00  0.00    -0.353 N 
HETATM   14  H   UNL     1     -11.852   0.381 -32.150  1.00  0.00     0.162 HD
HETATM   15  O   UNL     1     -10.953   1.481 -34.968  1.00  0.00    -0.266 OA
BRANCH  13  16
HETATM   16  C   UNL     1     -13.292   0.392 -33.723  1.00  0.00     0.155 C 
BRANCH  16  17
HETATM   17  C   UNL     1     -14.218   1.608 -33.882  1.00  0.00     0.139 C 
HETATM   18  O   UNL     1     -13.608   2.758 -33.258  1.00  0.00    -0.384 OA
HETATM   19  C   UNL     1     -14.521   3.295 -32.292  1.00  0.00     0.168 C 
HETATM   20  C   UNL     1     -15.514   2.203 -31.971  1.00  0.00     0.029 C 
HETATM   21  C   UNL     1     -15.607   1.454 -33.275  1.00  0.00     0.035 C 
ENDBRANCH  16  17
ENDBRANCH  13  16
ENDBRANCH   6  12
BRANCH   9  22
HETATM   22  C   UNL     1      -5.669   0.186 -33.449  1.00  0.00     0.409 C 
HETATM   23  F   UNL     1      -4.342   0.115 -33.244  1.00  0.00    -0.169 F 
HETATM   24  F   UNL     1      -5.978  -0.726 -34.408  1.00  0.00    -0.169 F 
HETATM   25  F   UNL     1      -5.927   1.400 -33.990  1.00  0.00    -0.169 F 
ENDBRANCH   9  22
BRANCH   1  26
HETATM   26  C   UNL     1      -4.893   2.680 -31.193  1.00  0.00    -0.035 A 
HETATM   27  C   UNL     1      -3.504   2.465 -31.225  1.00  0.00     0.009 A 
HETATM   28  C   UNL     1      -2.654   3.343 -31.902  1.00  0.00     0.001 A 
HETATM   29  C   UNL     1      -3.176   4.447 -32.569  1.00  0.00     0.000 A 
HETATM   30  C   UNL     1      -4.548   4.671 -32.566  1.00  0.00     0.001 A 
HETATM   31  C   UNL     1      -5.399   3.793 -31.888  1.00  0.00     0.009 A 
ENDBRANCH   1  26
TORSDOF 5
ENDMDL
MODEL 5
REMARK VINA RESULT:      -7.9      3.397      5.064
REMARK  5 active torsions:
REMARK  status: ('A' for Active; 'I' for Inactive)
REMARK    1  A    between atoms: C_4  and  C_5 
REMARK    2  A    between atoms: C_10  and  C_11 
REMARK       I    between atoms: C_11  and  N_12 
REMARK    3  A    between atoms: N_12  and  C_13 
REMARK    4  A    between atoms: C_13  and  C_14 
REMARK    5  A    between atoms: C_22  and  C_23 
ROOT
HETATM    1  C   UNL     1      -0.873   5.025 -30.896  1.00  0.00     0.118 C 
HETATM    2  N   UNL     1      -2.093   4.226 -30.821  1.00  0.00    -0.365 N 
HETATM    3  C   UNL     1      -3.084   4.351 -31.738  1.00  0.00     0.141 A 
HETATM    4  N   UNL     1      -2.901   5.059 -32.893  1.00  0.00    -0.238 N 
HETATM    5  N   UNL     1      -3.962   5.051 -33.716  1.00  0.00    -0.163 NA
HETATM    6  C   UNL     1      -4.902   4.351 -33.032  1.00  0.00     0.165 A 
HETATM    7  C   UNL     1      -4.374   3.889 -31.799  1.00  0.00     0.092 A 
HETATM    8 BR   UNL     1      -5.253   2.875 -30.494  1.00  0.00    -0.044 Br
HETATM    9  C   UNL     1      -1.670   5.740 -33.251  1.00  0.00     0.221 C 
HETATM   10  C   UNL     1      -0.502   5.249 -32.374  1.00  0.00     0.066 C 
HETATM   11  H   UNL     1      -2.291   3.817 -29.908  1.00  0.00     0.162 HD
ENDROOT
BRANCH   6  12
HETATM   12  C   UNL     1      -6.258   4.187 -33.582  1.00  0.00     0.273 C 
HETATM   13  N   UNL     1      -6.695   2.882 -33.547  1.00  0.00    -0.353 N 
HETATM   14  H   UNL     1      -6.012   2.197 -33.230  1.00  0.00     0.162 HD
HETATM   15  O   UNL     1      -6.923   5.103 -34.057  1.00  0.00    -0.266 OA
BRANCH  13  16
HETATM   16  C   UNL     1      -7.893   2.412 -34.210  1.00  0.00     0.155 C 
BRANCH  16  17
HETATM   17  C   UNL     1      -8.154   0.911 -34.004  1.00  0.00     0.139 C 
HETATM   18  O   UNL     1      -7.519   0.478 -32.782  1.00  0.00    -0.384 OA
HETATM   19  C   UNL     1      -6.638  -0.612 -33.083  1.00  0.00     0.168 C 
HETATM   20  C   UNL     1      -6.361  -0.556 -34.567  1.00  0.00     0.029 C 
HETATM   21  C   UNL     1      -7.647   0.002 -35.117  1.00  0.00     0.035 C 
ENDBRANCH  16  17
ENDBRANCH  13  16
ENDBRANCH   6  12
BRANCH   9  22
HETATM   22  C   UNL     1      -1.874   7.240 -33.222  1.00  0.00     0.409 C 
HETATM   23  F   UNL     1      -2.928   7.635 -32.485  1.00  0.00    -0.169 F 
HETATM   24  F   UNL     1      -0.774   7.851 -32.709  1.00  0.00    -0.169 F 
HETATM   25  F   UNL     1      -2.040   7.749 -34.465  1.00  0.00    -0.169 F 
ENDBRANCH   9  22
BRANCH   1  26
HETATM   26  C   UNL     1      -0.925   6.283 -30.044  1.00  0.00    -0.035 A 
HETATM   27  C   UNL     1      -2.128   6.847 -29.586  1.00  0.00     0.009 A 
HETATM   28  C   UNL     1      -2.129   8.002 -28.799  1.00  0.00     0.001 A 
HETATM   29  C   UNL     1      -0.928   8.609 -28.447  1.00  0.00     0.000 A 
HETATM   30  C   UNL     1       0.276   8.059 -28.875  1.00  0.00     0.001 A 
HETATM   31  C   UNL     1       0.278   6.904 -29.662  1.00  0.00     0.009 A 
ENDBRANCH   1  26
TORSDOF 5
ENDMDL
MODEL 6
REMARK VINA RESULT:      -7.7      3.437      5.786
REMARK  5 active torsions:
REMARK  status: ('A' for Active; 'I' for Inactive)
REMARK    1  A    between atoms: C_4  and  C_5 
REMARK    2  A    between atoms: C_10  and  C_11 
REMARK       I    between atoms: C_11  and  N_12 
REMARK    3  A    between atoms: N_12  and  C_13 
REMARK    4  A    between atoms: C_13  and  C_14 
REMARK    5  A    between atoms: C_22  and  C_23 
ROOT
HETATM    1  C   UNL     1      -5.820   1.457 -30.599  1.00  0.00     0.118 C 
HETATM    2  N   UNL     1      -7.217   1.882 -30.577  1.00  0.00    -0.365 N 
HETATM    3  C   UNL     1      -8.106   1.453 -31.504  1.00  0.00     0.141 A 
HETATM    4  N   UNL     1      -7.803   0.436 -32.366  1.00  0.00    -0.238 N 
HETATM    5  N   UNL     1      -8.806   0.100 -33.195  1.00  0.00    -0.163 NA
HETATM    6  C   UNL     1      -9.790   0.986 -32.893  1.00  0.00     0.165 A 
HETATM    7  C   UNL     1      -9.383   1.833 -31.830  1.00  0.00     0.092 A 
HETATM    8 BR   UNL     1     -10.369   3.212 -31.035  1.00  0.00    -0.044 Br
HETATM    9  C   UNL     1      -6.535  -0.268 -32.390  1.00  0.00     0.221 C 
HETATM   10  C   UNL     1      -5.739   0.001 -31.097  1.00  0.00     0.066 C 
HETATM   11  H   UNL     1      -7.405   2.730 -30.041  1.00  0.00     0.162 HD
ENDROOT
BRANCH   6  12
HETATM   12  C   UNL     1     -11.049   0.991 -33.656  1.00  0.00     0.273 C 
HETATM   13  N   UNL     1     -11.052   1.918 -34.674  1.00  0.00    -0.353 N 
HETATM   14  H   UNL     1     -10.237   2.526 -34.720  1.00  0.00     0.162 HD
HETATM   15  O   UNL     1     -12.013   0.276 -33.399  1.00  0.00    -0.266 OA
BRANCH  13  16
HETATM   16  C   UNL     1     -12.229   2.276 -35.438  1.00  0.00     0.155 C 
BRANCH  16  17
HETATM   17  C   UNL     1     -12.249   3.751 -35.870  1.00  0.00     0.139 C 
HETATM   18  O   UNL     1     -10.895   4.245 -35.945  1.00  0.00    -0.384 OA
HETATM   19  C   UNL     1     -10.782   5.404 -35.109  1.00  0.00     0.168 C 
HETATM   20  C   UNL     1     -11.939   5.361 -34.140  1.00  0.00     0.029 C 
HETATM   21  C   UNL     1     -13.018   4.691 -34.951  1.00  0.00     0.035 C 
ENDBRANCH  16  17
ENDBRANCH  13  16
ENDBRANCH   6  12
BRANCH   9  22
HETATM   22  C   UNL     1      -5.776   0.059 -33.659  1.00  0.00     0.409 C 
HETATM   23  F   UNL     1      -6.062   1.270 -34.170  1.00  0.00    -0.169 F 
HETATM   24  F   UNL     1      -4.438   0.028 -33.424  1.00  0.00    -0.169 F 
HETATM   25  F   UNL     1      -6.008  -0.853 -34.632  1.00  0.00    -0.169 F 
ENDBRANCH   9  22
BRANCH   1  26
HETATM   26  C   UNL     1      -4.904   2.437 -31.314  1.00  0.00    -0.035 A 
HETATM   27  C   UNL     1      -3.503   2.329 -31.293  1.00  0.00     0.009 A 
HETATM   28  C   UNL     1      -2.699   3.249 -31.971  1.00  0.00     0.001 A 
HETATM   29  C   UNL     1      -3.279   4.288 -32.690  1.00  0.00     0.000 A 
HETATM   30  C   UNL     1      -4.664   4.406 -32.739  1.00  0.00     0.001 A 
HETATM   31  C   UNL     1      -5.469   3.486 -32.061  1.00  0.00     0.009 A 
ENDBRANCH   1  26
TORSDOF 5
ENDMDL
MODEL 7
REMARK VINA RESULT:      -7.6      3.879      6.942
REMARK  5 active torsions:
REMARK  status: ('A' for Active; 'I' for Inactive)
REMARK    1  A    between atoms: C_4  and  C_5 
REMARK    2  A    between atoms: C_10  and  C_11 
REMARK       I    between atoms: C_11  and  N_12 
REMARK    3  A    between atoms: N_12  and  C_13 
REMARK    4  A    between atoms: C_13  and  C_14 
REMARK    5  A    between atoms: C_22  and  C_23 
ROOT
HETATM    1  C   UNL     1      -5.645   1.520 -33.812  1.00  0.00     0.118 C 
HETATM    2  N   UNL     1      -6.780   2.416 -34.017  1.00  0.00    -0.365 N 
HETATM    3  C   UNL     1      -7.555   2.831 -32.986  1.00  0.00     0.141 A 
HETATM    4  N   UNL     1      -7.187   2.617 -31.686  1.00  0.00    -0.238 N 
HETATM    5  N   UNL     1      -8.041   3.126 -30.782  1.00  0.00    -0.163 NA
HETATM    6  C   UNL     1      -9.044   3.646 -31.536  1.00  0.00     0.165 A 
HETATM    7  C   UNL     1      -8.757   3.487 -32.916  1.00  0.00     0.092 A 
HETATM    8 BR   UNL     1      -9.809   4.035 -34.366  1.00  0.00    -0.044 Br
HETATM    9  C   UNL     1      -5.972   1.937 -31.280  1.00  0.00     0.221 C 
HETATM   10  C   UNL     1      -4.983   1.839 -32.458  1.00  0.00     0.066 C 
HETATM   11  H   UNL     1      -7.135   2.458 -34.973  1.00  0.00     0.162 HD
ENDROOT
BRANCH   6  12
HETATM   12  C   UNL     1     -10.230   4.237 -30.894  1.00  0.00     0.273 C 
HETATM   13  N   UNL     1     -11.359   3.464 -31.045  1.00  0.00    -0.353 N 
HETATM   14  H   UNL     1     -11.255   2.642 -31.637  1.00  0.00     0.162 HD
HETATM   15  O   UNL     1     -10.232   5.320 -30.316  1.00  0.00    -0.266 OA
BRANCH  13  16
HETATM   16  C   UNL     1     -12.694   3.906 -30.699  1.00  0.00     0.155 C 
BRANCH  16  17
HETATM   17  C   UNL     1     -13.678   3.851 -31.878  1.00  0.00     0.139 C 
HETATM   18  O   UNL     1     -14.769   2.964 -31.549  1.00  0.00    -0.384 OA
HETATM   19  C   UNL     1     -14.864   1.956 -32.564  1.00  0.00     0.168 C 
HETATM   20  C   UNL     1     -13.535   1.929 -33.282  1.00  0.00     0.029 C 
HETATM   21  C   UNL     1     -13.091   3.367 -33.197  1.00  0.00     0.035 C 
ENDBRANCH  16  17
ENDBRANCH  13  16
ENDBRANCH   6  12
BRANCH   9  22
HETATM   22  C   UNL     1      -6.304   0.604 -30.643  1.00  0.00     0.409 C 
HETATM   23  F   UNL     1      -5.381  -0.351 -30.859  1.00  0.00    -0.169 F 
HETATM   24  F   UNL     1      -6.427   0.748 -29.297  1.00  0.00    -0.169 F 
HETATM   25  F   UNL     1      -7.491   0.121 -31.078  1.00  0.00    -0.169 F 
ENDBRANCH   9  22
BRANCH   1  26
HETATM   26  C   UNL     1      -5.988   0.056 -34.035  1.00  0.00    -0.035 A 
HETATM   27  C   UNL     1      -7.266  -0.381 -34.420  1.00  0.00     0.009 A 
HETATM   28  C   UNL     1      -7.536  -1.737 -34.621  1.00  0.00     0.001 A 
HETATM   29  C   UNL     1      -6.529  -2.682 -34.451  1.00  0.00     0.000 A 
HETATM   30  C   UNL     1      -5.251  -2.272 -34.087  1.00  0.00     0.001 A 
HETATM   31  C   UNL     1      -4.981  -0.916 -33.885  1.00  0.00     0.009 A 
ENDBRANCH   1  26
TORSDOF 5
ENDMDL
MODEL 8
REMARK VINA RESULT:      -7.6      3.650      5.182
REMARK  5 active torsions:
REMARK  status: ('A' for Active; 'I' for Inactive)
REMARK    1  A    between atoms: C_4  and  C_5 
REMARK    2  A    between atoms: C_10  and  C_11 
REMARK       I    between atoms: C_11  and  N_12 
REMARK    3  A    between atoms: N_12  and  C_13 
REMARK    4  A    between atoms: C_13  and  C_14 
REMARK    5  A    between atoms: C_22  and  C_23 
ROOT
HETATM    1  C   UNL     1      -1.701   5.238 -33.235  1.00  0.00     0.118 C 
HETATM    2  N   UNL     1      -2.268   3.897 -33.123  1.00  0.00    -0.365 N 
HETATM    3  C   UNL     1      -3.546   3.696 -32.721  1.00  0.00     0.141 A 
HETATM    4  N   UNL     1      -4.433   4.732 -32.616  1.00  0.00    -0.238 N 
HETATM    5  N   UNL     1      -5.670   4.361 -32.248  1.00  0.00    -0.163 NA
HETATM    6  C   UNL     1      -5.565   3.023 -32.046  1.00  0.00     0.165 A 
HETATM    7  C   UNL     1      -4.252   2.580 -32.349  1.00  0.00     0.092 A 
HETATM    8 BR   UNL     1      -3.589   0.832 -32.244  1.00  0.00    -0.044 Br
HETATM    9  C   UNL     1      -4.112   6.117 -32.906  1.00  0.00     0.221 C 
HETATM   10  C   UNL     1      -2.796   6.216 -33.702  1.00  0.00     0.066 C 
HETATM   11  H   UNL     1      -1.587   3.140 -33.059  1.00  0.00     0.162 HD
ENDROOT
BRANCH   6  12
HETATM   12  C   UNL     1      -6.715   2.250 -31.549  1.00  0.00     0.273 C 
HETATM   13  N   UNL     1      -7.403   1.609 -32.555  1.00  0.00    -0.353 N 
HETATM   14  H   UNL     1      -7.087   1.809 -33.502  1.00  0.00     0.162 HD
HETATM   15  O   UNL     1      -7.058   2.206 -30.371  1.00  0.00    -0.266 OA
BRANCH  13  16
HETATM   16  C   UNL     1      -8.684   0.959 -32.373  1.00  0.00     0.155 C 
BRANCH  16  17
HETATM   17  C   UNL     1      -9.530   0.912 -33.655  1.00  0.00     0.139 C 
HETATM   18  O   UNL     1      -9.371   2.151 -34.378  1.00  0.00    -0.384 OA
HETATM   19  C   UNL     1     -10.666   2.727 -34.594  1.00  0.00     0.168 C 
HETATM   20  C   UNL     1     -11.602   2.090 -33.594  1.00  0.00     0.029 C 
HETATM   21  C   UNL     1     -11.025   0.706 -33.443  1.00  0.00     0.035 C 
ENDBRANCH  16  17
ENDBRANCH  13  16
ENDBRANCH   6  12
BRANCH   9  22
HETATM   22  C   UNL     1      -4.124   6.935 -31.632  1.00  0.00     0.409 C 
HETATM   23  F   UNL     1      -3.672   6.273 -30.552  1.00  0.00    -0.169 F 
HETATM   24  F   UNL     1      -3.348   8.041 -31.780  1.00  0.00    -0.169 F 
HETATM   25  F   UNL     1      -5.366   7.386 -31.336  1.00  0.00    -0.169 F 
ENDBRANCH   9  22
BRANCH   1  26
HETATM   26  C   UNL     1      -0.933   5.672 -31.996  1.00  0.00    -0.035 A 
HETATM   27  C   UNL     1      -0.726   4.830 -30.890  1.00  0.00     0.009 A 
HETATM   28  C   UNL     1      -0.008   5.268 -29.775  1.00  0.00     0.001 A 
HETATM   29  C   UNL     1       0.527   6.552 -29.748  1.00  0.00     0.000 A 
HETATM   30  C   UNL     1       0.350   7.397 -30.838  1.00  0.00     0.001 A 
HETATM   31  C   UNL     1      -0.369   6.960 -31.954  1.00  0.00     0.009 A 
ENDBRANCH   1  26
TORSDOF 5
ENDMDL
MODEL 9
REMARK VINA RESULT:      -7.5      5.037      8.558
REMARK  5 active torsions:
REMARK  status: ('A' for Active; 'I' for Inactive)
REMARK    1  A    between atoms: C_4  and  C_5 
REMARK    2  A    between atoms: C_10  and  C_11 
REMARK       I    between atoms: C_11  and  N_12 
REMARK    3  A    between atoms: N_12  and  C_13 
REMARK    4  A    between atoms: C_13  and  C_14 
REMARK    5  A    between atoms: C_22  and  C_23 
ROOT
HETATM    1  C   UNL     1      -6.279   3.675 -32.376  1.00  0.00     0.118 C 
HETATM    2  N   UNL     1      -6.477   4.538 -31.215  1.00  0.00    -0.365 N 
HETATM    3  C   UNL     1      -5.457   5.247 -30.673  1.00  0.00     0.141 A 
HETATM    4  N   UNL     1      -4.254   5.366 -31.310  1.00  0.00    -0.238 N 
HETATM    5  N   UNL     1      -3.363   6.136 -30.663  1.00  0.00    -0.163 NA
HETATM    6  C   UNL     1      -4.003   6.486 -29.518  1.00  0.00     0.165 A 
HETATM    7  C   UNL     1      -5.318   5.955 -29.506  1.00  0.00     0.092 A 
HETATM    8 BR   UNL     1      -6.611   6.150 -28.166  1.00  0.00    -0.044 Br
HETATM    9  C   UNL     1      -3.941   4.761 -32.591  1.00  0.00     0.221 C 
HETATM   10  C   UNL     1      -5.228   4.308 -33.308  1.00  0.00     0.066 C 
HETATM   11  H   UNL     1      -7.313   4.343 -30.664  1.00  0.00     0.162 HD
ENDROOT
BRANCH   6  12
HETATM   12  C   UNL     1      -3.312   7.282 -28.490  1.00  0.00     0.273 C 
HETATM   13  N   UNL     1      -2.082   6.763 -28.152  1.00  0.00    -0.353 N 
HETATM   14  H   UNL     1      -1.845   5.872 -28.583  1.00  0.00     0.162 HD
HETATM   15  O   UNL     1      -3.787   8.280 -27.957  1.00  0.00    -0.266 OA
BRANCH  13  16
HETATM   16  C   UNL     1      -1.292   7.223 -27.029  1.00  0.00     0.155 C 
BRANCH  16  17
HETATM   17  C   UNL     1       0.207   6.910 -27.171  1.00  0.00     0.139 C 
HETATM   18  O   UNL     1       0.900   7.343 -25.981  1.00  0.00    -0.384 OA
HETATM   19  C   UNL     1       1.950   8.242 -26.363  1.00  0.00     0.168 C 
HETATM   20  C   UNL     1       1.616   8.744 -27.748  1.00  0.00     0.029 C 
HETATM   21  C   UNL     1       0.902   7.565 -28.357  1.00  0.00     0.035 C 
ENDBRANCH  16  17
ENDBRANCH  13  16
ENDBRANCH   6  12
BRANCH   9  22
HETATM   22  C   UNL     1      -2.915   3.661 -32.415  1.00  0.00     0.409 C 
HETATM   23  F   UNL     1      -3.046   2.646 -33.288  1.00  0.00    -0.169 F 
HETATM   24  F   UNL     1      -1.662   4.163 -32.567  1.00  0.00    -0.169 F 
HETATM   25  F   UNL     1      -2.957   3.129 -31.171  1.00  0.00    -0.169 F 
ENDBRANCH   9  22
BRANCH   1  26
HETATM   26  C   UNL     1      -6.025   2.221 -32.009  1.00  0.00    -0.035 A 
HETATM   27  C   UNL     1      -5.923   1.775 -30.680  1.00  0.00     0.009 A 
HETATM   28  C   UNL     1      -5.695   0.428 -30.388  1.00  0.00     0.001 A 
HETATM   29  C   UNL     1      -5.576  -0.500 -31.417  1.00  0.00     0.000 A 
HETATM   30  C   UNL     1      -5.691  -0.085 -32.739  1.00  0.00     0.001 A 
HETATM   31  C   UNL     1      -5.918   1.262 -33.032  1.00  0.00     0.009 A 
ENDBRANCH   1  26
TORSDOF 5
ENDMDL
MODEL 10
REMARK VINA RESULT:      -7.4      2.976      4.773
REMARK  5 active torsions:
REMARK  status: ('A' for Active; 'I' for Inactive)
REMARK    1  A    between atoms: C_4  and  C_5 
REMARK    2  A    between atoms: C_10  and  C_11 
REMARK       I    between atoms: C_11  and  N_12 
REMARK    3  A    between atoms: N_12  and  C_13 
REMARK    4  A    between atoms: C_13  and  C_14 
REMARK    5  A    between atoms: C_22  and  C_23 
ROOT
HETATM    1  C   UNL     1      -5.137   5.105 -31.604  1.00  0.00     0.118 C 
HETATM    2  N   UNL     1      -6.444   5.106 -32.256  1.00  0.00    -0.365 N 
HETATM    3  C   UNL     1      -7.117   3.956 -32.504  1.00  0.00     0.141 A 
HETATM    4  N   UNL     1      -6.718   2.766 -31.962  1.00  0.00    -0.238 N 
HETATM    5  N   UNL     1      -7.515   1.728 -32.268  1.00  0.00    -0.163 NA
HETATM    6  C   UNL     1      -8.446   2.264 -33.099  1.00  0.00     0.165 A 
HETATM    7  C   UNL     1      -8.228   3.658 -33.251  1.00  0.00     0.092 A 
HETATM    8 BR   UNL     1      -9.230   4.860 -34.279  1.00  0.00    -0.044 Br
HETATM    9  C   UNL     1      -5.563   2.604 -31.099  1.00  0.00     0.221 C 
HETATM   10  C   UNL     1      -5.088   3.969 -30.565  1.00  0.00     0.066 C 
HETATM   11  H   UNL     1      -6.670   5.953 -32.777  1.00  0.00     0.162 HD
ENDROOT
BRANCH   6  12
HETATM   12  C   UNL     1      -9.471   1.410 -33.722  1.00  0.00     0.273 C 
HETATM   13  N   UNL     1     -10.718   1.577 -33.162  1.00  0.00    -0.353 N 
HETATM   14  H   UNL     1     -10.759   2.194 -32.353  1.00  0.00     0.162 HD
HETATM   15  O   UNL     1      -9.242   0.605 -34.619  1.00  0.00    -0.266 OA
BRANCH  13  16
HETATM   16  C   UNL     1     -11.850   0.719 -33.439  1.00  0.00     0.155 C 
BRANCH  16  17
HETATM   17  C   UNL     1     -12.919   1.387 -34.318  1.00  0.00     0.139 C 
HETATM   18  O   UNL     1     -12.379   1.619 -35.636  1.00  0.00    -0.384 OA
HETATM   19  C   UNL     1     -12.510   3.011 -35.949  1.00  0.00     0.168 C 
HETATM   20  C   UNL     1     -12.700   3.739 -34.639  1.00  0.00     0.029 C 
HETATM   21  C   UNL     1     -13.442   2.725 -33.808  1.00  0.00     0.035 C 
ENDBRANCH  16  17
ENDBRANCH  13  16
ENDBRANCH   6  12
BRANCH   9  22
HETATM   22  C   UNL     1      -4.486   1.810 -31.808  1.00  0.00     0.409 C 
HETATM   23  F   UNL     1      -3.241   2.065 -31.368  1.00  0.00    -0.169 F 
HETATM   24  F   UNL     1      -4.705   0.479 -31.647  1.00  0.00    -0.169 F 
HETATM   25  F   UNL     1      -4.494   2.033 -33.143  1.00  0.00    -0.169 F 
ENDBRANCH   9  22
BRANCH   1  26
HETATM   26  C   UNL     1      -3.976   5.134 -32.586  1.00  0.00    -0.035 A 
HETATM   27  C   UNL     1      -2.635   4.998 -32.189  1.00  0.00     0.009 A 
HETATM   28  C   UNL     1      -1.599   5.024 -33.126  1.00  0.00     0.001 A 
HETATM   29  C   UNL     1      -1.884   5.176 -34.478  1.00  0.00     0.000 A 
HETATM   30  C   UNL     1      -3.205   5.295 -34.897  1.00  0.00     0.001 A 
HETATM   31  C   UNL     1      -4.242   5.270 -33.961  1.00  0.00     0.009 A 
ENDBRANCH   1  26
TORSDOF 5
ENDMDL
