MODEL 1
REMARK VINA RESULT:      -9.9      0.000      0.000
REMARK  4 active torsions:
REMARK  status: ('A' for Active; 'I' for Inactive)
REMARK    1  A    between atoms: C_3  and  C_4 
REMARK    2  A    between atoms: C_14  and  N_15 
REMARK       I    between atoms: N_15  and  C_16 
REMARK    3  A    between atoms: C_16  and  C_17 
REMARK    4  A    between atoms: C_20  and  N_21 
ROOT
HETATM    1  N   UNL     1      -7.663   3.154 -33.407  1.00  0.00    -0.322 N 
HETATM    2  C   UNL     1      -7.332   4.447 -33.763  1.00  0.00     0.256 C 
HETATM    3  O   UNL     1      -8.023   5.224 -34.410  1.00  0.00    -0.267 OA
HETATM    4  H   UNL     1      -6.923   2.572 -33.030  1.00  0.00     0.169 HD
ENDROOT
BRANCH   1   5
HETATM    5  C   UNL     1      -8.936   2.539 -33.523  1.00  0.00     0.049 A 
HETATM    6  C   UNL     1      -9.036   1.130 -33.469  1.00  0.00     0.037 A 
HETATM    7  C   UNL     1     -10.303   0.524 -33.439  1.00  0.00     0.017 A 
HETATM    8  C   UNL     1     -11.462   1.295 -33.507  1.00  0.00     0.001 A 
HETATM    9  C   UNL     1     -11.364   2.679 -33.606  1.00  0.00     0.002 A 
HETATM   10  C   UNL     1     -10.111   3.297 -33.611  1.00  0.00     0.030 A 
BRANCH   6  11
HETATM   11  C   UNL     1      -7.865   0.254 -33.521  1.00  0.00     0.141 A 
HETATM   12  N   UNL     1      -6.819   0.279 -32.719  1.00  0.00    -0.228 NA
HETATM   13  C   UNL     1      -6.000  -0.742 -33.138  1.00  0.00     0.086 A 
HETATM   14  C   UNL     1      -6.561  -1.418 -34.213  1.00  0.00     0.062 A 
HETATM   15  C   UNL     1      -4.754  -1.154 -32.643  1.00  0.00     0.034 A 
HETATM   16  N   UNL     1      -7.758  -0.787 -34.418  1.00  0.00    -0.338 N 
HETATM   17  C   UNL     1      -5.944  -2.499 -34.849  1.00  0.00     0.032 A 
HETATM   18  H   UNL     1      -8.457  -1.036 -35.102  1.00  0.00     0.167 HD
HETATM   19  C   UNL     1      -4.699  -2.892 -34.346  1.00  0.00     0.002 A 
HETATM   20  C   UNL     1      -4.112  -2.235 -33.261  1.00  0.00     0.002 A 
ENDBRANCH   6  11
ENDBRANCH   1   5
BRANCH   2  21
HETATM   21  C   UNL     1      -5.961   4.870 -33.370  1.00  0.00     0.032 A 
HETATM   22  C   UNL     1      -4.905   4.882 -34.281  1.00  0.00     0.019 A 
HETATM   23  C   UNL     1      -3.622   5.271 -33.864  1.00  0.00     0.031 A 
HETATM   24  C   UNL     1      -3.351   5.657 -32.538  1.00  0.00     0.045 A 
HETATM   25  C   UNL     1      -4.435   5.628 -31.643  1.00  0.00     0.031 A 
HETATM   26  C   UNL     1      -5.720   5.233 -32.047  1.00  0.00     0.019 A 
BRANCH  24  27
HETATM   27  N   UNL     1      -2.034   6.044 -32.119  1.00  0.00    -0.252 N 
HETATM   28  C   UNL     1      -1.169   5.241 -31.405  1.00  0.00     0.231 C 
HETATM   29  O   UNL     1      -1.280   4.065 -31.083  1.00  0.00    -0.273 OA
HETATM   30  C   UNL     1       0.034   6.042 -31.010  1.00  0.00     0.113 C 
HETATM   31  C   UNL     1      -0.035   7.256 -31.893  1.00  0.00     0.113 C 
HETATM   32  C   UNL     1      -1.451   7.268 -32.381  1.00  0.00     0.231 C 
HETATM   33  O   UNL     1      -1.918   8.256 -32.935  1.00  0.00    -0.273 OA
ENDBRANCH  24  27
ENDBRANCH   2  21
TORSDOF 4
ENDMDL
MODEL 2
REMARK VINA RESULT:      -9.6      1.304      2.253
REMARK  4 active torsions:
REMARK  status: ('A' for Active; 'I' for Inactive)
REMARK    1  A    between atoms: C_3  and  C_4 
REMARK    2  A    between atoms: C_14  and  N_15 
REMARK       I    between atoms: N_15  and  C_16 
REMARK    3  A    between atoms: C_16  and  C_17 
REMARK    4  A    between atoms: C_20  and  N_21 
ROOT
HETATM    1  N   UNL     1      -8.414   4.822 -34.172  1.00  0.00    -0.322 N 
HETATM    2  C   UNL     1      -8.065   5.428 -32.980  1.00  0.00     0.256 C 
HETATM    3  O   UNL     1      -8.835   5.863 -32.132  1.00  0.00    -0.267 OA
HETATM    4  H   UNL     1      -7.676   4.678 -34.852  1.00  0.00     0.169 HD
ENDROOT
BRANCH   1   5
HETATM    5  C   UNL     1      -9.707   4.386 -34.558  1.00  0.00     0.049 A 
HETATM    6  C   UNL     1     -10.046   3.019 -34.436  1.00  0.00     0.037 A 
HETATM    7  C   UNL     1     -11.366   2.606 -34.680  1.00  0.00     0.017 A 
HETATM    8  C   UNL     1     -12.335   3.523 -35.084  1.00  0.00     0.001 A 
HETATM    9  C   UNL     1     -11.992   4.860 -35.248  1.00  0.00     0.002 A 
HETATM   10  C   UNL     1     -10.689   5.290 -34.985  1.00  0.00     0.030 A 
BRANCH   6  11
HETATM   11  C   UNL     1      -9.054   1.985 -34.138  1.00  0.00     0.141 A 
HETATM   12  N   UNL     1      -8.393   1.822 -33.010  1.00  0.00    -0.228 NA
HETATM   13  C   UNL     1      -7.603   0.712 -33.194  1.00  0.00     0.086 A 
HETATM   14  C   UNL     1      -7.793   0.173 -34.460  1.00  0.00     0.062 A 
HETATM   15  C   UNL     1      -6.694   0.101 -32.318  1.00  0.00     0.034 A 
HETATM   16  N   UNL     1      -8.742   0.980 -35.028  1.00  0.00    -0.338 N 
HETATM   17  C   UNL     1      -7.115  -0.957 -34.925  1.00  0.00     0.032 A 
HETATM   18  H   UNL     1      -9.155   0.866 -35.942  1.00  0.00     0.167 HD
HETATM   19  C   UNL     1      -6.208  -1.549 -34.040  1.00  0.00     0.002 A 
HETATM   20  C   UNL     1      -5.999  -1.033 -32.757  1.00  0.00     0.002 A 
ENDBRANCH   6  11
ENDBRANCH   1   5
BRANCH   2  21
HETATM   21  C   UNL     1      -6.604   5.622 -32.783  1.00  0.00     0.032 A 
HETATM   22  C   UNL     1      -5.674   5.242 -33.750  1.00  0.00     0.019 A 
HETATM   23  C   UNL     1      -4.302   5.426 -33.518  1.00  0.00     0.031 A 
HETATM   24  C   UNL     1      -3.816   5.992 -32.324  1.00  0.00     0.045 A 
HETATM   25  C   UNL     1      -4.777   6.358 -31.366  1.00  0.00     0.031 A 
HETATM   26  C   UNL     1      -6.151   6.170 -31.585  1.00  0.00     0.019 A 
BRANCH  24  27
HETATM   27  N   UNL     1      -2.410   6.168 -32.091  1.00  0.00    -0.252 N 
HETATM   28  C   UNL     1      -1.726   7.352 -32.276  1.00  0.00     0.231 C 
HETATM   29  O   UNL     1      -2.151   8.465 -32.556  1.00  0.00    -0.273 OA
HETATM   30  C   UNL     1      -0.259   7.106 -32.095  1.00  0.00     0.113 C 
HETATM   31  C   UNL     1      -0.199   5.771 -31.407  1.00  0.00     0.113 C 
HETATM   32  C   UNL     1      -1.555   5.181 -31.644  1.00  0.00     0.231 C 
HETATM   33  O   UNL     1      -1.774   3.996 -31.423  1.00  0.00    -0.273 OA
ENDBRANCH  24  27
ENDBRANCH   2  21
TORSDOF 4
ENDMDL
MODEL 3
REMARK VINA RESULT:      -9.6      2.902      7.336
REMARK  4 active torsions:
REMARK  status: ('A' for Active; 'I' for Inactive)
REMARK    1  A    between atoms: C_3  and  C_4 
REMARK    2  A    between atoms: C_14  and  N_15 
REMARK       I    between atoms: N_15  and  C_16 
REMARK    3  A    between atoms: C_16  and  C_17 
REMARK    4  A    between atoms: C_20  and  N_21 
ROOT
HETATM    1  N   UNL     1      -8.105   2.862 -32.466  1.00  0.00    -0.322 N 
HETATM    2  C   UNL     1      -8.378   2.145 -33.615  1.00  0.00     0.256 C 
HETATM    3  O   UNL     1      -9.223   2.416 -34.459  1.00  0.00    -0.267 OA
HETATM    4  H   UNL     1      -7.508   2.421 -31.775  1.00  0.00     0.169 HD
ENDROOT
BRANCH   1   5
HETATM    5  C   UNL     1      -8.582   4.157 -32.138  1.00  0.00     0.049 A 
HETATM    6  C   UNL     1      -7.806   5.290 -32.473  1.00  0.00     0.037 A 
HETATM    7  C   UNL     1      -8.336   6.577 -32.281  1.00  0.00     0.017 A 
HETATM    8  C   UNL     1      -9.602   6.749 -31.723  1.00  0.00     0.001 A 
HETATM    9  C   UNL     1     -10.348   5.635 -31.351  1.00  0.00     0.002 A 
HETATM   10  C   UNL     1      -9.843   4.349 -31.560  1.00  0.00     0.030 A 
BRANCH   6  11
HETATM   11  C   UNL     1      -6.425   5.188 -32.946  1.00  0.00     0.141 A 
HETATM   12  N   UNL     1      -6.003   5.280 -34.191  1.00  0.00    -0.228 NA
HETATM   13  C   UNL     1      -4.636   5.149 -34.136  1.00  0.00     0.086 A 
HETATM   14  C   UNL     1      -4.206   4.985 -32.826  1.00  0.00     0.062 A 
HETATM   15  C   UNL     1      -3.690   5.161 -35.171  1.00  0.00     0.034 A 
HETATM   16  N   UNL     1      -5.357   5.044 -32.086  1.00  0.00    -0.338 N 
HETATM   17  C   UNL     1      -2.865   4.820 -32.471  1.00  0.00     0.032 A 
HETATM   18  H   UNL     1      -5.425   4.998 -31.080  1.00  0.00     0.167 HD
HETATM   19  C   UNL     1      -1.936   4.828 -33.518  1.00  0.00     0.002 A 
HETATM   20  C   UNL     1      -2.338   4.998 -34.846  1.00  0.00     0.002 A 
ENDBRANCH   6  11
ENDBRANCH   1   5
BRANCH   2  21
HETATM   21  C   UNL     1      -7.603   0.884 -33.761  1.00  0.00     0.032 A 
HETATM   22  C   UNL     1      -7.373   0.301 -35.007  1.00  0.00     0.019 A 
HETATM   23  C   UNL     1      -6.652  -0.899 -35.100  1.00  0.00     0.031 A 
HETATM   24  C   UNL     1      -6.140  -1.554 -33.963  1.00  0.00     0.045 A 
HETATM   25  C   UNL     1      -6.395  -0.946 -32.722  1.00  0.00     0.031 A 
HETATM   26  C   UNL     1      -7.122   0.251 -32.617  1.00  0.00     0.019 A 
BRANCH  24  27
HETATM   27  N   UNL     1      -5.411  -2.786 -34.067  1.00  0.00    -0.252 N 
HETATM   28  C   UNL     1      -4.145  -2.995 -33.560  1.00  0.00     0.231 C 
HETATM   29  O   UNL     1      -3.451  -2.265 -32.866  1.00  0.00    -0.273 OA
HETATM   30  C   UNL     1      -3.651  -4.338 -34.007  1.00  0.00     0.113 C 
HETATM   31  C   UNL     1      -4.893  -5.039 -34.482  1.00  0.00     0.113 C 
HETATM   32  C   UNL     1      -5.881  -3.930 -34.680  1.00  0.00     0.231 C 
HETATM   33  O   UNL     1      -6.927  -4.120 -35.290  1.00  0.00    -0.273 OA
ENDBRANCH  24  27
ENDBRANCH   2  21
TORSDOF 4
ENDMDL
MODEL 4
REMARK VINA RESULT:      -9.5      2.011      4.811
REMARK  4 active torsions:
REMARK  status: ('A' for Active; 'I' for Inactive)
REMARK    1  A    between atoms: C_3  and  C_4 
REMARK    2  A    between atoms: C_14  and  N_15 
REMARK       I    between atoms: N_15  and  C_16 
REMARK    3  A    between atoms: C_16  and  C_17 
REMARK    4  A    between atoms: C_20  and  N_21 
ROOT
HETATM    1  N   UNL     1      -4.954   0.730 -33.079  1.00  0.00    -0.322 N 
HETATM    2  C   UNL     1      -4.867   1.158 -31.768  1.00  0.00     0.256 C 
HETATM    3  O   UNL     1      -5.189   0.522 -30.772  1.00  0.00    -0.267 OA
HETATM    4  H   UNL     1      -4.823   1.427 -33.804  1.00  0.00     0.169 HD
ENDROOT
BRANCH   1   5
HETATM    5  C   UNL     1      -5.219  -0.589 -33.527  1.00  0.00     0.049 A 
HETATM    6  C   UNL     1      -6.488  -0.899 -34.068  1.00  0.00     0.037 A 
HETATM    7  C   UNL     1      -6.709  -2.160 -34.644  1.00  0.00     0.017 A 
HETATM    8  C   UNL     1      -5.704  -3.127 -34.648  1.00  0.00     0.001 A 
HETATM    9  C   UNL     1      -4.470  -2.839 -34.076  1.00  0.00     0.002 A 
HETATM   10  C   UNL     1      -4.227  -1.579 -33.522  1.00  0.00     0.030 A 
BRANCH   6  11
HETATM   11  C   UNL     1      -7.624   0.020 -33.988  1.00  0.00     0.141 A 
HETATM   12  N   UNL     1      -7.640   1.295 -34.321  1.00  0.00    -0.228 NA
HETATM   13  C   UNL     1      -8.925   1.727 -34.099  1.00  0.00     0.086 A 
HETATM   14  C   UNL     1      -9.722   0.690 -33.630  1.00  0.00     0.062 A 
HETATM   15  C   UNL     1      -9.490   2.998 -34.277  1.00  0.00     0.034 A 
HETATM   16  N   UNL     1      -8.881  -0.390 -33.597  1.00  0.00    -0.338 N 
HETATM   17  C   UNL     1     -11.074   0.842 -33.311  1.00  0.00     0.032 A 
HETATM   18  H   UNL     1      -9.129  -1.334 -33.339  1.00  0.00     0.167 HD
HETATM   19  C   UNL     1     -11.618   2.118 -33.490  1.00  0.00     0.002 A 
HETATM   20  C   UNL     1     -10.843   3.180 -33.966  1.00  0.00     0.002 A 
ENDBRANCH   6  11
ENDBRANCH   1   5
BRANCH   2  21
HETATM   21  C   UNL     1      -4.410   2.563 -31.600  1.00  0.00     0.032 A 
HETATM   22  C   UNL     1      -5.305   3.606 -31.366  1.00  0.00     0.019 A 
HETATM   23  C   UNL     1      -4.834   4.922 -31.232  1.00  0.00     0.031 A 
HETATM   24  C   UNL     1      -3.465   5.238 -31.325  1.00  0.00     0.045 A 
HETATM   25  C   UNL     1      -2.589   4.166 -31.568  1.00  0.00     0.031 A 
HETATM   26  C   UNL     1      -3.051   2.848 -31.713  1.00  0.00     0.019 A 
BRANCH  24  27
HETATM   27  N   UNL     1      -2.993   6.587 -31.195  1.00  0.00    -0.252 N 
HETATM   28  C   UNL     1      -2.515   7.356 -32.237  1.00  0.00     0.231 C 
HETATM   29  O   UNL     1      -2.488   7.116 -33.437  1.00  0.00    -0.273 OA
HETATM   30  C   UNL     1      -1.962   8.637 -31.691  1.00  0.00     0.113 C 
HETATM   31  C   UNL     1      -2.520   8.705 -30.296  1.00  0.00     0.113 C 
HETATM   32  C   UNL     1      -2.960   7.301 -30.014  1.00  0.00     0.231 C 
HETATM   33  O   UNL     1      -3.244   6.947 -28.877  1.00  0.00    -0.273 OA
ENDBRANCH  24  27
ENDBRANCH   2  21
TORSDOF 4
ENDMDL
MODEL 5
REMARK VINA RESULT:      -9.4      2.610      7.928
REMARK  4 active torsions:
REMARK  status: ('A' for Active; 'I' for Inactive)
REMARK    1  A    between atoms: C_3  and  C_4 
REMARK    2  A    between atoms: C_14  and  N_15 
REMARK       I    between atoms: N_15  and  C_16 
REMARK    3  A    between atoms: C_16  and  C_17 
REMARK    4  A    between atoms: C_20  and  N_21 
ROOT
HETATM    1  N   UNL     1      -6.784   3.826 -32.162  1.00  0.00    -0.322 N 
HETATM    2  C   UNL     1      -7.535   4.320 -33.211  1.00  0.00     0.256 C 
HETATM    3  O   UNL     1      -7.171   5.143 -34.043  1.00  0.00    -0.267 OA
HETATM    4  H   UNL     1      -7.273   3.292 -31.452  1.00  0.00     0.169 HD
ENDROOT
BRANCH   1   5
HETATM    5  C   UNL     1      -5.390   3.994 -31.960  1.00  0.00     0.049 A 
HETATM    6  C   UNL     1      -4.493   3.016 -32.447  1.00  0.00     0.037 A 
HETATM    7  C   UNL     1      -3.109   3.247 -32.378  1.00  0.00     0.017 A 
HETATM    8  C   UNL     1      -2.610   4.410 -31.794  1.00  0.00     0.001 A 
HETATM    9  C   UNL     1      -3.490   5.352 -31.273  1.00  0.00     0.002 A 
HETATM   10  C   UNL     1      -4.870   5.148 -31.358  1.00  0.00     0.030 A 
BRANCH   6  11
HETATM   11  C   UNL     1      -4.941   1.721 -32.959  1.00  0.00     0.141 A 
HETATM   12  N   UNL     1      -6.024   1.480 -33.671  1.00  0.00    -0.228 NA
HETATM   13  C   UNL     1      -6.006   0.132 -33.938  1.00  0.00     0.086 A 
HETATM   14  C   UNL     1      -4.880  -0.468 -33.388  1.00  0.00     0.062 A 
HETATM   15  C   UNL     1      -6.923  -0.655 -34.649  1.00  0.00     0.034 A 
HETATM   16  N   UNL     1      -4.205   0.567 -32.799  1.00  0.00    -0.338 N 
HETATM   17  C   UNL     1      -4.605  -1.833 -33.497  1.00  0.00     0.032 A 
HETATM   18  H   UNL     1      -3.313   0.509 -32.329  1.00  0.00     0.167 HD
HETATM   19  C   UNL     1      -5.534  -2.603 -34.205  1.00  0.00     0.002 A 
HETATM   20  C   UNL     1      -6.674  -2.028 -34.774  1.00  0.00     0.002 A 
ENDBRANCH   6  11
ENDBRANCH   1   5
BRANCH   2  21
HETATM   21  C   UNL     1      -8.943   3.842 -33.249  1.00  0.00     0.032 A 
HETATM   22  C   UNL     1      -9.985   4.657 -33.690  1.00  0.00     0.019 A 
HETATM   23  C   UNL     1     -11.303   4.172 -33.693  1.00  0.00     0.031 A 
HETATM   24  C   UNL     1     -11.622   2.871 -33.261  1.00  0.00     0.045 A 
HETATM   25  C   UNL     1     -10.550   2.077 -32.816  1.00  0.00     0.031 A 
HETATM   26  C   UNL     1      -9.230   2.555 -32.801  1.00  0.00     0.019 A 
BRANCH  24  27
HETATM   27  N   UNL     1     -12.974   2.388 -33.259  1.00  0.00    -0.252 N 
HETATM   28  C   UNL     1     -13.915   2.693 -32.297  1.00  0.00     0.231 C 
HETATM   29  O   UNL     1     -13.848   3.472 -31.356  1.00  0.00    -0.273 OA
HETATM   30  C   UNL     1     -15.148   1.876 -32.540  1.00  0.00     0.113 C 
HETATM   31  C   UNL     1     -14.977   1.371 -33.945  1.00  0.00     0.113 C 
HETATM   32  C   UNL     1     -13.516   1.560 -34.221  1.00  0.00     0.231 C 
HETATM   33  O   UNL     1     -12.986   1.034 -35.192  1.00  0.00    -0.273 OA
ENDBRANCH  24  27
ENDBRANCH   2  21
TORSDOF 4
ENDMDL
MODEL 6
REMARK VINA RESULT:      -9.2      3.167      7.554
REMARK  4 active torsions:
REMARK  status: ('A' for Active; 'I' for Inactive)
REMARK    1  A    between atoms: C_3  and  C_4 
REMARK    2  A    between atoms: C_14  and  N_15 
REMARK       I    between atoms: N_15  and  C_16 
REMARK    3  A    between atoms: C_16  and  C_17 
REMARK    4  A    between atoms: C_20  and  N_21 
ROOT
HETATM    1  N   UNL     1      -9.358   2.743 -34.582  1.00  0.00    -0.322 N 
HETATM    2  C   UNL     1      -9.263   1.950 -33.454  1.00  0.00     0.256 C 
HETATM    3  O   UNL     1      -9.795   2.159 -32.370  1.00  0.00    -0.267 OA
HETATM    4  H   UNL     1      -8.721   2.543 -35.345  1.00  0.00     0.169 HD
ENDROOT
BRANCH   1   5
HETATM    5  C   UNL     1     -10.251   3.826 -34.787  1.00  0.00     0.049 A 
HETATM    6  C   UNL     1      -9.798   5.150 -34.585  1.00  0.00     0.037 A 
HETATM    7  C   UNL     1     -10.631   6.229 -34.924  1.00  0.00     0.017 A 
HETATM    8  C   UNL     1     -11.916   6.008 -35.417  1.00  0.00     0.001 A 
HETATM    9  C   UNL     1     -12.379   4.706 -35.575  1.00  0.00     0.002 A 
HETATM   10  C   UNL     1     -11.552   3.623 -35.265  1.00  0.00     0.030 A 
BRANCH   6  11
HETATM   11  C   UNL     1      -8.512   5.455 -33.956  1.00  0.00     0.141 A 
HETATM   12  N   UNL     1      -7.355   4.869 -34.190  1.00  0.00    -0.228 NA
HETATM   13  C   UNL     1      -6.440   5.509 -33.390  1.00  0.00     0.086 A 
HETATM   14  C   UNL     1      -7.046   6.521 -32.656  1.00  0.00     0.062 A 
HETATM   15  C   UNL     1      -5.065   5.281 -33.236  1.00  0.00     0.034 A 
HETATM   16  N   UNL     1      -8.354   6.487 -33.056  1.00  0.00    -0.338 N 
HETATM   17  C   UNL     1      -6.357   7.335 -31.753  1.00  0.00     0.032 A 
HETATM   18  H   UNL     1      -9.089   7.111 -32.756  1.00  0.00     0.167 HD
HETATM   19  C   UNL     1      -4.987   7.088 -31.608  1.00  0.00     0.002 A 
HETATM   20  C   UNL     1      -4.348   6.081 -32.337  1.00  0.00     0.002 A 
ENDBRANCH   6  11
ENDBRANCH   1   5
BRANCH   2  21
HETATM   21  C   UNL     1      -8.351   0.783 -33.588  1.00  0.00     0.032 A 
HETATM   22  C   UNL     1      -7.724   0.208 -32.484  1.00  0.00     0.019 A 
HETATM   23  C   UNL     1      -6.856  -0.882 -32.656  1.00  0.00     0.031 A 
HETATM   24  C   UNL     1      -6.587  -1.430 -33.925  1.00  0.00     0.045 A 
HETATM   25  C   UNL     1      -7.229  -0.824 -35.019  1.00  0.00     0.031 A 
HETATM   26  C   UNL     1      -8.092   0.272 -34.858  1.00  0.00     0.019 A 
BRANCH  24  27
HETATM   27  N   UNL     1      -5.691  -2.539 -34.092  1.00  0.00    -0.252 N 
HETATM   28  C   UNL     1      -4.375  -2.555 -33.677  1.00  0.00     0.231 C 
HETATM   29  O   UNL     1      -3.751  -1.728 -33.025  1.00  0.00    -0.273 OA
HETATM   30  C   UNL     1      -3.718  -3.808 -34.172  1.00  0.00     0.113 C 
HETATM   31  C   UNL     1      -4.871  -4.688 -34.567  1.00  0.00     0.113 C 
HETATM   32  C   UNL     1      -6.026  -3.741 -34.684  1.00  0.00     0.231 C 
HETATM   33  O   UNL     1      -7.071  -4.085 -35.220  1.00  0.00    -0.273 OA
ENDBRANCH  24  27
ENDBRANCH   2  21
TORSDOF 4
ENDMDL
MODEL 7
REMARK VINA RESULT:      -9.2      3.658      7.360
REMARK  4 active torsions:
REMARK  status: ('A' for Active; 'I' for Inactive)
REMARK    1  A    between atoms: C_3  and  C_4 
REMARK    2  A    between atoms: C_14  and  N_15 
REMARK       I    between atoms: N_15  and  C_16 
REMARK    3  A    between atoms: C_16  and  C_17 
REMARK    4  A    between atoms: C_20  and  N_21 
ROOT
HETATM    1  N   UNL     1      -7.193   2.785 -31.204  1.00  0.00    -0.322 N 
HETATM    2  C   UNL     1      -6.266   2.701 -32.225  1.00  0.00     0.256 C 
HETATM    3  O   UNL     1      -5.869   3.624 -32.926  1.00  0.00    -0.267 OA
HETATM    4  H   UNL     1      -7.557   1.914 -30.834  1.00  0.00     0.169 HD
ENDROOT
BRANCH   1   5
HETATM    5  C   UNL     1      -7.705   3.970 -30.615  1.00  0.00     0.049 A 
HETATM    6  C   UNL     1      -9.014   4.397 -30.936  1.00  0.00     0.037 A 
HETATM    7  C   UNL     1      -9.578   5.485 -30.250  1.00  0.00     0.017 A 
HETATM    8  C   UNL     1      -8.844   6.177 -29.287  1.00  0.00     0.001 A 
HETATM    9  C   UNL     1      -7.540   5.786 -29.003  1.00  0.00     0.002 A 
HETATM   10  C   UNL     1      -6.975   4.689 -29.659  1.00  0.00     0.030 A 
BRANCH   6  11
HETATM   11  C   UNL     1      -9.795   3.799 -32.020  1.00  0.00     0.141 A 
HETATM   12  N   UNL     1     -10.110   2.527 -32.163  1.00  0.00    -0.228 NA
HETATM   13  C   UNL     1     -10.868   2.453 -33.306  1.00  0.00     0.086 A 
HETATM   14  C   UNL     1     -11.034   3.710 -33.873  1.00  0.00     0.062 A 
HETATM   15  C   UNL     1     -11.454   1.340 -33.926  1.00  0.00     0.034 A 
HETATM   16  N   UNL     1     -10.369   4.551 -33.021  1.00  0.00    -0.338 N 
HETATM   17  C   UNL     1     -11.756   3.936 -35.047  1.00  0.00     0.032 A 
HETATM   18  H   UNL     1     -10.309   5.556 -33.098  1.00  0.00     0.167 HD
HETATM   19  C   UNL     1     -12.328   2.813 -35.655  1.00  0.00     0.002 A 
HETATM   20  C   UNL     1     -12.183   1.535 -35.105  1.00  0.00     0.002 A 
ENDBRANCH   6  11
ENDBRANCH   1   5
BRANCH   2  21
HETATM   21  C   UNL     1      -5.790   1.324 -32.523  1.00  0.00     0.032 A 
HETATM   22  C   UNL     1      -4.436   1.030 -32.677  1.00  0.00     0.019 A 
HETATM   23  C   UNL     1      -4.030  -0.280 -32.976  1.00  0.00     0.031 A 
HETATM   24  C   UNL     1      -4.953  -1.332 -33.128  1.00  0.00     0.045 A 
HETATM   25  C   UNL     1      -6.311  -1.003 -32.974  1.00  0.00     0.031 A 
HETATM   26  C   UNL     1      -6.728   0.306 -32.684  1.00  0.00     0.019 A 
BRANCH  24  27
HETATM   27  N   UNL     1      -4.529  -2.667 -33.443  1.00  0.00    -0.252 N 
HETATM   28  C   UNL     1      -5.016  -3.419 -34.492  1.00  0.00     0.231 C 
HETATM   29  O   UNL     1      -5.785  -3.102 -35.390  1.00  0.00    -0.273 OA
HETATM   30  C   UNL     1      -4.463  -4.809 -34.400  1.00  0.00     0.113 C 
HETATM   31  C   UNL     1      -3.315  -4.678 -33.439  1.00  0.00     0.113 C 
HETATM   32  C   UNL     1      -3.572  -3.376 -32.744  1.00  0.00     0.231 C 
HETATM   33  O   UNL     1      -2.959  -3.072 -31.729  1.00  0.00    -0.273 OA
ENDBRANCH  24  27
ENDBRANCH   2  21
TORSDOF 4
ENDMDL
MODEL 8
REMARK VINA RESULT:      -9.1      2.937      7.505
REMARK  4 active torsions:
REMARK  status: ('A' for Active; 'I' for Inactive)
REMARK    1  A    between atoms: C_3  and  C_4 
REMARK    2  A    between atoms: C_14  and  N_15 
REMARK       I    between atoms: N_15  and  C_16 
REMARK    3  A    between atoms: C_16  and  C_17 
REMARK    4  A    between atoms: C_20  and  N_21 
ROOT
HETATM    1  N   UNL     1      -6.690   3.385 -32.213  1.00  0.00    -0.322 N 
HETATM    2  C   UNL     1      -5.763   2.745 -31.413  1.00  0.00     0.256 C 
HETATM    3  O   UNL     1      -5.206   3.212 -30.427  1.00  0.00    -0.267 OA
HETATM    4  H   UNL     1      -6.928   2.942 -33.094  1.00  0.00     0.169 HD
ENDROOT
BRANCH   1   5
HETATM    5  C   UNL     1      -7.345   4.613 -31.941  1.00  0.00     0.049 A 
HETATM    6  C   UNL     1      -6.715   5.830 -32.289  1.00  0.00     0.037 A 
HETATM    7  C   UNL     1      -7.416   7.039 -32.155  1.00  0.00     0.017 A 
HETATM    8  C   UNL     1      -8.712   7.057 -31.640  1.00  0.00     0.001 A 
HETATM    9  C   UNL     1      -9.316   5.865 -31.254  1.00  0.00     0.002 A 
HETATM   10  C   UNL     1      -8.639   4.652 -31.407  1.00  0.00     0.030 A 
BRANCH   6  11
HETATM   11  C   UNL     1      -5.317   5.899 -32.718  1.00  0.00     0.141 A 
HETATM   12  N   UNL     1      -4.303   6.402 -32.042  1.00  0.00    -0.228 NA
HETATM   13  C   UNL     1      -3.195   6.219 -32.834  1.00  0.00     0.086 A 
HETATM   14  C   UNL     1      -3.533   5.577 -34.018  1.00  0.00     0.062 A 
HETATM   15  C   UNL     1      -1.859   6.575 -32.605  1.00  0.00     0.034 A 
HETATM   16  N   UNL     1      -4.880   5.358 -33.907  1.00  0.00    -0.338 N 
HETATM   17  C   UNL     1      -2.607   5.267 -35.017  1.00  0.00     0.032 A 
HETATM   18  H   UNL     1      -5.465   4.876 -34.574  1.00  0.00     0.167 HD
HETATM   19  C   UNL     1      -1.279   5.636 -34.774  1.00  0.00     0.002 A 
HETATM   20  C   UNL     1      -0.907   6.277 -33.589  1.00  0.00     0.002 A 
ENDBRANCH   6  11
ENDBRANCH   1   5
BRANCH   2  21
HETATM   21  C   UNL     1      -5.372   1.386 -31.876  1.00  0.00     0.032 A 
HETATM   22  C   UNL     1      -4.104   1.121 -32.392  1.00  0.00     0.019 A 
HETATM   23  C   UNL     1      -3.782  -0.172 -32.836  1.00  0.00     0.031 A 
HETATM   24  C   UNL     1      -4.705  -1.233 -32.779  1.00  0.00     0.045 A 
HETATM   25  C   UNL     1      -5.976  -0.932 -32.260  1.00  0.00     0.031 A 
HETATM   26  C   UNL     1      -6.312   0.359 -31.822  1.00  0.00     0.019 A 
BRANCH  24  27
HETATM   27  N   UNL     1      -4.369  -2.550 -33.243  1.00  0.00    -0.252 N 
HETATM   28  C   UNL     1      -4.889  -3.138 -34.378  1.00  0.00     0.231 C 
HETATM   29  O   UNL     1      -5.618  -2.666 -35.240  1.00  0.00    -0.273 OA
HETATM   30  C   UNL     1      -4.435  -4.565 -34.443  1.00  0.00     0.113 C 
HETATM   31  C   UNL     1      -3.298  -4.628 -33.463  1.00  0.00     0.113 C 
HETATM   32  C   UNL     1      -3.477  -3.400 -32.622  1.00  0.00     0.231 C 
HETATM   33  O   UNL     1      -2.862  -3.261 -31.573  1.00  0.00    -0.273 OA
ENDBRANCH  24  27
ENDBRANCH   2  21
TORSDOF 4
ENDMDL
MODEL 9
REMARK VINA RESULT:      -9.0      3.148      7.774
REMARK  4 active torsions:
REMARK  status: ('A' for Active; 'I' for Inactive)
REMARK    1  A    between atoms: C_3  and  C_4 
REMARK    2  A    between atoms: C_14  and  N_15 
REMARK       I    between atoms: N_15  and  C_16 
REMARK    3  A    between atoms: C_16  and  C_17 
REMARK    4  A    between atoms: C_20  and  N_21 
ROOT
HETATM    1  N   UNL     1      -6.113   3.939 -30.189  1.00  0.00    -0.322 N 
HETATM    2  C   UNL     1      -7.103   3.262 -30.876  1.00  0.00     0.256 C 
HETATM    3  O   UNL     1      -8.283   3.580 -30.952  1.00  0.00    -0.267 OA
HETATM    4  H   UNL     1      -5.226   3.463 -30.066  1.00  0.00     0.169 HD
ENDROOT
BRANCH   1   5
HETATM    5  C   UNL     1      -6.205   5.236 -29.622  1.00  0.00     0.049 A 
HETATM    6  C   UNL     1      -5.551   6.319 -30.252  1.00  0.00     0.037 A 
HETATM    7  C   UNL     1      -5.757   7.625 -29.777  1.00  0.00     0.017 A 
HETATM    8  C   UNL     1      -6.564   7.860 -28.665  1.00  0.00     0.001 A 
HETATM    9  C   UNL     1      -7.171   6.789 -28.017  1.00  0.00     0.002 A 
HETATM   10  C   UNL     1      -6.996   5.487 -28.493  1.00  0.00     0.030 A 
BRANCH   6  11
HETATM   11  C   UNL     1      -4.595   6.136 -31.344  1.00  0.00     0.141 A 
HETATM   12  N   UNL     1      -4.787   5.465 -32.463  1.00  0.00    -0.228 NA
HETATM   13  C   UNL     1      -3.625   5.596 -33.184  1.00  0.00     0.086 A 
HETATM   14  C   UNL     1      -2.702   6.377 -32.499  1.00  0.00     0.062 A 
HETATM   15  C   UNL     1      -3.283   5.075 -34.440  1.00  0.00     0.034 A 
HETATM   16  N   UNL     1      -3.353   6.732 -31.348  1.00  0.00    -0.338 N 
HETATM   17  C   UNL     1      -1.428   6.672 -32.991  1.00  0.00     0.032 A 
HETATM   18  H   UNL     1      -2.997   7.335 -30.621  1.00  0.00     0.167 HD
HETATM   19  C   UNL     1      -1.103   6.139 -34.243  1.00  0.00     0.002 A 
HETATM   20  C   UNL     1      -2.012   5.355 -34.959  1.00  0.00     0.002 A 
ENDBRANCH   6  11
ENDBRANCH   1   5
BRANCH   2  21
HETATM   21  C   UNL     1      -6.666   1.987 -31.504  1.00  0.00     0.032 A 
HETATM   22  C   UNL     1      -6.789   0.763 -30.847  1.00  0.00     0.019 A 
HETATM   23  C   UNL     1      -6.347  -0.416 -31.467  1.00  0.00     0.031 A 
HETATM   24  C   UNL     1      -5.773  -0.414 -32.753  1.00  0.00     0.045 A 
HETATM   25  C   UNL     1      -5.656   0.836 -33.386  1.00  0.00     0.031 A 
HETATM   26  C   UNL     1      -6.087   2.022 -32.771  1.00  0.00     0.019 A 
BRANCH  24  27
HETATM   27  N   UNL     1      -5.315  -1.624 -33.376  1.00  0.00    -0.252 N 
HETATM   28  C   UNL     1      -4.119  -2.250 -33.090  1.00  0.00     0.231 C 
HETATM   29  O   UNL     1      -3.289  -1.995 -32.228  1.00  0.00    -0.273 OA
HETATM   30  C   UNL     1      -3.915  -3.381 -34.052  1.00  0.00     0.113 C 
HETATM   31  C   UNL     1      -5.274  -3.592 -34.657  1.00  0.00     0.113 C 
HETATM   32  C   UNL     1      -6.012  -2.327 -34.338  1.00  0.00     0.231 C 
HETATM   33  O   UNL     1      -7.074  -2.062 -34.887  1.00  0.00    -0.273 OA
ENDBRANCH  24  27
ENDBRANCH   2  21
TORSDOF 4
ENDMDL
MODEL 10
REMARK VINA RESULT:      -8.5      2.988      5.939
REMARK  4 active torsions:
REMARK  status: ('A' for Active; 'I' for Inactive)
REMARK    1  A    between atoms: C_3  and  C_4 
REMARK    2  A    between atoms: C_14  and  N_15 
REMARK       I    between atoms: N_15  and  C_16 
REMARK    3  A    between atoms: C_16  and  C_17 
REMARK    4  A    between atoms: C_20  and  N_21 
ROOT
HETATM    1  N   UNL     1     -10.010   1.978 -33.520  1.00  0.00    -0.322 N 
HETATM    2  C   UNL     1      -8.830   1.495 -34.053  1.00  0.00     0.256 C 
HETATM    3  O   UNL     1      -8.670   0.415 -34.608  1.00  0.00    -0.267 OA
HETATM    4  H   UNL     1      -9.951   2.804 -32.935  1.00  0.00     0.169 HD
ENDROOT
BRANCH   1   5
HETATM    5  C   UNL     1     -11.308   1.432 -33.693  1.00  0.00     0.049 A 
HETATM    6  C   UNL     1     -12.283   2.167 -34.406  1.00  0.00     0.037 A 
HETATM    7  C   UNL     1     -13.520   1.572 -34.704  1.00  0.00     0.017 A 
HETATM    8  C   UNL     1     -13.814   0.282 -34.267  1.00  0.00     0.001 A 
HETATM    9  C   UNL     1     -12.872  -0.425 -33.526  1.00  0.00     0.002 A 
HETATM   10  C   UNL     1     -11.627   0.144 -33.244  1.00  0.00     0.030 A 
BRANCH   6  11
HETATM   11  C   UNL     1     -12.091   3.566 -34.788  1.00  0.00     0.141 A 
HETATM   12  N   UNL     1     -10.945   4.202 -34.927  1.00  0.00    -0.228 NA
HETATM   13  C   UNL     1     -11.267   5.478 -35.321  1.00  0.00     0.086 A 
HETATM   14  C   UNL     1     -12.643   5.627 -35.439  1.00  0.00     0.062 A 
HETATM   15  C   UNL     1     -10.433   6.570 -35.599  1.00  0.00     0.034 A 
HETATM   16  N   UNL     1     -13.142   4.392 -35.126  1.00  0.00    -0.338 N 
HETATM   17  C   UNL     1     -13.257   6.824 -35.818  1.00  0.00     0.032 A 
HETATM   18  H   UNL     1     -14.113   4.117 -35.142  1.00  0.00     0.167 HD
HETATM   19  C   UNL     1     -12.409   7.904 -36.085  1.00  0.00     0.002 A 
HETATM   20  C   UNL     1     -11.021   7.783 -35.980  1.00  0.00     0.002 A 
ENDBRANCH   6  11
ENDBRANCH   1   5
BRANCH   2  21
HETATM   21  C   UNL     1      -7.646   2.370 -33.841  1.00  0.00     0.032 A 
HETATM   22  C   UNL     1      -6.381   1.846 -33.576  1.00  0.00     0.019 A 
HETATM   23  C   UNL     1      -5.294   2.708 -33.363  1.00  0.00     0.031 A 
HETATM   24  C   UNL     1      -5.430   4.109 -33.407  1.00  0.00     0.045 A 
HETATM   25  C   UNL     1      -6.719   4.606 -33.669  1.00  0.00     0.031 A 
HETATM   26  C   UNL     1      -7.814   3.753 -33.875  1.00  0.00     0.019 A 
BRANCH  24  27
HETATM   27  N   UNL     1      -4.314   4.982 -33.179  1.00  0.00    -0.252 N 
HETATM   28  C   UNL     1      -3.837   5.338 -31.934  1.00  0.00     0.231 C 
HETATM   29  O   UNL     1      -4.166   4.935 -30.826  1.00  0.00    -0.273 OA
HETATM   30  C   UNL     1      -2.779   6.387 -32.094  1.00  0.00     0.113 C 
HETATM   31  C   UNL     1      -2.417   6.315 -33.550  1.00  0.00     0.113 C 
HETATM   32  C   UNL     1      -3.562   5.577 -34.172  1.00  0.00     0.231 C 
HETATM   33  O   UNL     1      -3.708   5.549 -35.388  1.00  0.00    -0.273 OA
ENDBRANCH  24  27
ENDBRANCH   2  21
TORSDOF 4
ENDMDL
