MODEL 1
REMARK VINA RESULT:      -8.8      0.000      0.000
REMARK  7 active torsions:
REMARK  status: ('A' for Active; 'I' for Inactive)
REMARK    1  A    between atoms: C_2  and  O_3 
REMARK    2  A    between atoms: O_3  and  C_4 
REMARK    3  A    between atoms: C_4  and  C_5 
REMARK    4  A    between atoms: C_6  and  C_7 
REMARK    5  A    between atoms: C_18  and  S_19 
REMARK    6  A    between atoms: S_19  and  C_20 
REMARK    7  A    between atoms: C_20  and  C_21 
ROOT
HETATM    1  C   UNL     1      -4.201   4.612 -32.485  1.00  0.00     0.070 C 
HETATM    2  C   UNL     1      -5.019   3.342 -32.736  1.00  0.00     0.203 C 
HETATM    3  N   UNL     1      -4.339   2.165 -32.191  1.00  0.00    -0.082 N 
HETATM    4  C   UNL     1      -3.317   2.228 -31.286  1.00  0.00     0.726 A 
HETATM    5  N   UNL     1      -2.873   3.436 -30.887  1.00  0.00    -0.192 N 
HETATM    6  N   UNL     1      -4.576   0.901 -32.580  1.00  0.00    -0.128 NA
HETATM    7  C   UNL     1      -3.696   0.235 -31.823  1.00  0.00     0.226 A 
HETATM    8  N   UNL     1      -2.914   1.015 -31.002  1.00  0.00    -0.035 NA
HETATM    9  C   UNL     1      -3.221   4.622 -31.541  1.00  0.00     0.037 C 
HETATM   10  C   UNL     1      -2.448   5.842 -31.106  1.00  0.00     0.070 C 
HETATM   11  H   UNL     1      -2.049   3.467 -30.290  1.00  0.00     0.184 HD
ENDROOT
BRANCH   7  12
HETATM   12  S   UNL     1      -3.562  -1.494 -31.944  1.00  0.00    -0.083 SA
BRANCH  12  13
HETATM   13  C   UNL     1      -3.608  -1.707 -33.744  1.00  0.00     0.123 C 
BRANCH  13  14
HETATM   14  C   UNL     1      -4.741  -2.621 -34.153  1.00  0.00    -0.027 A 
HETATM   15  C   UNL     1      -4.595  -4.013 -34.269  1.00  0.00     0.041 A 
HETATM   16 CL   UNL     1      -3.105  -4.814 -33.915  1.00  0.00    -0.084 Cl
HETATM   17  C   UNL     1      -5.668  -4.808 -34.686  1.00  0.00     0.024 A 
HETATM   18  C   UNL     1      -6.896  -4.227 -35.000  1.00  0.00     0.002 A 
HETATM   19  C   UNL     1      -7.055  -2.849 -34.898  1.00  0.00     0.001 A 
HETATM   20  C   UNL     1      -5.987  -2.052 -34.480  1.00  0.00     0.009 A 
ENDBRANCH  13  14
ENDBRANCH  12  13
ENDBRANCH   7  12
BRANCH   2  21
HETATM   21  C   UNL     1      -6.431   3.433 -32.148  1.00  0.00    -0.028 A 
HETATM   22  C   UNL     1      -6.599   3.627 -30.766  1.00  0.00     0.011 A 
HETATM   23  C   UNL     1      -7.877   3.683 -30.203  1.00  0.00     0.024 A 
HETATM   24  C   UNL     1      -8.999   3.545 -31.015  1.00  0.00     0.034 A 
HETATM   25 CL   UNL     1     -10.572   3.601 -30.320  1.00  0.00    -0.084 Cl
HETATM   26  C   UNL     1      -8.856   3.357 -32.387  1.00  0.00     0.024 A 
HETATM   27  C   UNL     1      -7.579   3.302 -32.952  1.00  0.00     0.011 A 
ENDBRANCH   2  21
BRANCH   1  28
HETATM   28  C   UNL     1      -4.577   5.715 -33.408  1.00  0.00     0.293 C 
HETATM   29  O   UNL     1      -5.455   6.526 -33.147  1.00  0.00    -0.259 OA
BRANCH  28  30
HETATM   30  O   UNL     1      -3.925   5.639 -34.591  1.00  0.00    -0.318 OA
BRANCH  30  31
HETATM   31  C   UNL     1      -2.596   6.184 -34.612  1.00  0.00     0.174 C 
HETATM   32  C   UNL     1      -1.576   5.105 -34.928  1.00  0.00     0.034 C 
ENDBRANCH  30  31
ENDBRANCH  28  30
ENDBRANCH   1  28
TORSDOF 7
ENDMDL
MODEL 2
REMARK VINA RESULT:      -8.6      2.025      2.697
REMARK  7 active torsions:
REMARK  status: ('A' for Active; 'I' for Inactive)
REMARK    1  A    between atoms: C_2  and  O_3 
REMARK    2  A    between atoms: O_3  and  C_4 
REMARK    3  A    between atoms: C_4  and  C_5 
REMARK    4  A    between atoms: C_6  and  C_7 
REMARK    5  A    between atoms: C_18  and  S_19 
REMARK    6  A    between atoms: S_19  and  C_20 
REMARK    7  A    between atoms: C_20  and  C_21 
ROOT
HETATM    1  C   UNL     1      -6.547   4.049 -31.395  1.00  0.00     0.070 C 
HETATM    2  C   UNL     1      -6.497   2.861 -32.360  1.00  0.00     0.203 C 
HETATM    3  N   UNL     1      -5.684   1.774 -31.810  1.00  0.00    -0.082 N 
HETATM    4  C   UNL     1      -5.325   1.683 -30.495  1.00  0.00     0.726 A 
HETATM    5  N   UNL     1      -5.703   2.660 -29.647  1.00  0.00    -0.192 N 
HETATM    6  N   UNL     1      -5.125   0.796 -32.543  1.00  0.00    -0.128 NA
HETATM    7  C   UNL     1      -4.482   0.106 -31.592  1.00  0.00     0.226 A 
HETATM    8  N   UNL     1      -4.594   0.612 -30.318  1.00  0.00    -0.035 NA
HETATM    9  C   UNL     1      -6.214   3.885 -30.086  1.00  0.00     0.037 C 
HETATM   10  C   UNL     1      -6.358   4.938 -29.016  1.00  0.00     0.070 C 
HETATM   11  H   UNL     1      -5.345   2.628 -28.695  1.00  0.00     0.184 HD
ENDROOT
BRANCH   7  12
HETATM   12  S   UNL     1      -3.546  -1.300 -32.007  1.00  0.00    -0.083 SA
BRANCH  12  13
HETATM   13  C   UNL     1      -3.787  -1.344 -33.804  1.00  0.00     0.123 C 
BRANCH  13  14
HETATM   14  C   UNL     1      -4.656  -2.514 -34.206  1.00  0.00    -0.027 A 
HETATM   15  C   UNL     1      -5.972  -2.362 -34.674  1.00  0.00     0.041 A 
HETATM   16 CL   UNL     1      -6.706  -0.809 -34.868  1.00  0.00    -0.084 Cl
HETATM   17  C   UNL     1      -6.744  -3.483 -35.000  1.00  0.00     0.024 A 
HETATM   18  C   UNL     1      -6.219  -4.766 -34.855  1.00  0.00     0.002 A 
HETATM   19  C   UNL     1      -4.921  -4.934 -34.386  1.00  0.00     0.001 A 
HETATM   20  C   UNL     1      -4.146  -3.818 -34.062  1.00  0.00     0.009 A 
ENDBRANCH  13  14
ENDBRANCH  12  13
ENDBRANCH   7  12
BRANCH   2  21
HETATM   21  C   UNL     1      -7.892   2.331 -32.704  1.00  0.00    -0.028 A 
HETATM   22  C   UNL     1      -8.537   1.444 -31.824  1.00  0.00     0.011 A 
HETATM   23  C   UNL     1      -9.797   0.924 -32.131  1.00  0.00     0.024 A 
HETATM   24  C   UNL     1     -10.425   1.284 -33.320  1.00  0.00     0.034 A 
HETATM   25 CL   UNL     1     -11.970   0.633 -33.704  1.00  0.00    -0.084 Cl
HETATM   26  C   UNL     1      -9.807   2.165 -34.204  1.00  0.00     0.024 A 
HETATM   27  C   UNL     1      -8.547   2.686 -33.898  1.00  0.00     0.011 A 
ENDBRANCH   2  21
BRANCH   1  28
HETATM   28  C   UNL     1      -6.922   5.314 -32.080  1.00  0.00     0.293 C 
HETATM   29  O   UNL     1      -7.872   6.000 -31.728  1.00  0.00    -0.259 OA
BRANCH  28  30
HETATM   30  O   UNL     1      -6.173   5.542 -33.183  1.00  0.00    -0.318 OA
BRANCH  30  31
HETATM   31  C   UNL     1      -4.852   6.057 -32.951  1.00  0.00     0.174 C 
HETATM   32  C   UNL     1      -3.849   5.410 -33.889  1.00  0.00     0.034 C 
ENDBRANCH  30  31
ENDBRANCH  28  30
ENDBRANCH   1  28
TORSDOF 7
ENDMDL
MODEL 3
REMARK VINA RESULT:      -8.4      2.968      4.499
REMARK  7 active torsions:
REMARK  status: ('A' for Active; 'I' for Inactive)
REMARK    1  A    between atoms: C_2  and  O_3 
REMARK    2  A    between atoms: O_3  and  C_4 
REMARK    3  A    between atoms: C_4  and  C_5 
REMARK    4  A    between atoms: C_6  and  C_7 
REMARK    5  A    between atoms: C_18  and  S_19 
REMARK    6  A    between atoms: S_19  and  C_20 
REMARK    7  A    between atoms: C_20  and  C_21 
ROOT
HETATM    1  C   UNL     1      -6.496   4.896 -30.745  1.00  0.00     0.070 C 
HETATM    2  C   UNL     1      -5.787   3.682 -31.351  1.00  0.00     0.203 C 
HETATM    3  N   UNL     1      -6.739   2.815 -32.050  1.00  0.00    -0.082 N 
HETATM    4  C   UNL     1      -7.995   3.205 -32.416  1.00  0.00     0.726 A 
HETATM    5  N   UNL     1      -8.413   4.446 -32.094  1.00  0.00    -0.192 N 
HETATM    6  N   UNL     1      -6.523   1.519 -32.330  1.00  0.00    -0.128 NA
HETATM    7  C   UNL     1      -7.678   1.195 -32.925  1.00  0.00     0.226 A 
HETATM    8  N   UNL     1      -8.603   2.210 -33.011  1.00  0.00    -0.035 NA
HETATM    9  C   UNL     1      -7.733   5.257 -31.181  1.00  0.00     0.037 C 
HETATM   10  C   UNL     1      -8.468   6.506 -30.764  1.00  0.00     0.070 C 
HETATM   11  H   UNL     1      -9.383   4.686 -32.286  1.00  0.00     0.184 HD
ENDROOT
BRANCH   7  12
HETATM   12  S   UNL     1      -7.952  -0.427 -33.489  1.00  0.00    -0.083 SA
BRANCH  12  13
HETATM   13  C   UNL     1      -6.534  -0.639 -34.599  1.00  0.00     0.123 C 
BRANCH  13  14
HETATM   14  C   UNL     1      -5.968  -2.037 -34.493  1.00  0.00    -0.027 A 
HETATM   15  C   UNL     1      -4.663  -2.300 -34.044  1.00  0.00     0.041 A 
HETATM   16 CL   UNL     1      -3.595  -1.041 -33.533  1.00  0.00    -0.084 Cl
HETATM   17  C   UNL     1      -4.178  -3.612 -33.999  1.00  0.00     0.024 A 
HETATM   18  C   UNL     1      -4.982  -4.675 -34.409  1.00  0.00     0.002 A 
HETATM   19  C   UNL     1      -6.273  -4.431 -34.864  1.00  0.00     0.001 A 
HETATM   20  C   UNL     1      -6.762  -3.124 -34.907  1.00  0.00     0.009 A 
ENDBRANCH  13  14
ENDBRANCH  12  13
ENDBRANCH   7  12
BRANCH   2  21
HETATM   21  C   UNL     1      -4.663   4.083 -32.311  1.00  0.00    -0.028 A 
HETATM   22  C   UNL     1      -3.349   3.649 -32.065  1.00  0.00     0.011 A 
HETATM   23  C   UNL     1      -2.302   4.027 -32.910  1.00  0.00     0.024 A 
HETATM   24  C   UNL     1      -2.557   4.842 -34.010  1.00  0.00     0.034 A 
HETATM   25 CL   UNL     1      -1.267   5.318 -35.043  1.00  0.00    -0.084 Cl
HETATM   26  C   UNL     1      -3.853   5.279 -34.275  1.00  0.00     0.024 A 
HETATM   27  C   UNL     1      -4.901   4.901 -33.431  1.00  0.00     0.011 A 
ENDBRANCH   2  21
BRANCH   1  28
HETATM   28  C   UNL     1      -5.706   5.520 -29.650  1.00  0.00     0.293 C 
HETATM   29  O   UNL     1      -5.705   5.088 -28.506  1.00  0.00    -0.259 OA
BRANCH  28  30
HETATM   30  O   UNL     1      -5.099   6.663 -30.044  1.00  0.00    -0.318 OA
BRANCH  30  31
HETATM   31  C   UNL     1      -3.680   6.728 -29.828  1.00  0.00     0.174 C 
HETATM   32  C   UNL     1      -2.977   7.306 -31.044  1.00  0.00     0.034 C 
ENDBRANCH  30  31
ENDBRANCH  28  30
ENDBRANCH   1  28
TORSDOF 7
ENDMDL
MODEL 4
REMARK VINA RESULT:      -8.4      3.449      7.566
REMARK  7 active torsions:
REMARK  status: ('A' for Active; 'I' for Inactive)
REMARK    1  A    between atoms: C_2  and  O_3 
REMARK    2  A    between atoms: O_3  and  C_4 
REMARK    3  A    between atoms: C_4  and  C_5 
REMARK    4  A    between atoms: C_6  and  C_7 
REMARK    5  A    between atoms: C_18  and  S_19 
REMARK    6  A    between atoms: S_19  and  C_20 
REMARK    7  A    between atoms: C_20  and  C_21 
ROOT
HETATM    1  C   UNL     1      -8.582   2.207 -32.854  1.00  0.00     0.070 C 
HETATM    2  C   UNL     1      -7.479   2.145 -33.913  1.00  0.00     0.203 C 
HETATM    3  N   UNL     1      -6.490   3.205 -33.700  1.00  0.00    -0.082 N 
HETATM    4  C   UNL     1      -6.369   3.910 -32.537  1.00  0.00     0.726 A 
HETATM    5  N   UNL     1      -7.224   3.653 -31.527  1.00  0.00    -0.192 N 
HETATM    6  N   UNL     1      -5.653   3.665 -34.645  1.00  0.00    -0.128 NA
HETATM    7  C   UNL     1      -5.005   4.619 -33.965  1.00  0.00     0.226 A 
HETATM    8  N   UNL     1      -5.407   4.789 -32.660  1.00  0.00    -0.035 NA
HETATM    9  C   UNL     1      -8.386   2.895 -31.697  1.00  0.00     0.037 C 
HETATM   10  C   UNL     1      -9.336   2.911 -30.526  1.00  0.00     0.070 C 
HETATM   11  H   UNL     1      -7.184   4.253 -30.706  1.00  0.00     0.184 HD
ENDROOT
BRANCH   7  12
HETATM   12  S   UNL     1      -3.781   5.578 -34.743  1.00  0.00    -0.083 SA
BRANCH  12  13
HETATM   13  C   UNL     1      -2.290   4.654 -34.284  1.00  0.00     0.123 C 
BRANCH  13  14
HETATM   14  C   UNL     1      -1.640   5.250 -33.056  1.00  0.00    -0.027 A 
HETATM   15  C   UNL     1      -1.774   4.690 -31.774  1.00  0.00     0.041 A 
HETATM   16 CL   UNL     1      -2.669   3.239 -31.493  1.00  0.00    -0.084 Cl
HETATM   17  C   UNL     1      -1.179   5.303 -30.665  1.00  0.00     0.024 A 
HETATM   18  C   UNL     1      -0.452   6.483 -30.818  1.00  0.00     0.002 A 
HETATM   19  C   UNL     1      -0.317   7.054 -32.079  1.00  0.00     0.001 A 
HETATM   20  C   UNL     1      -0.907   6.444 -33.188  1.00  0.00     0.009 A 
ENDBRANCH  13  14
ENDBRANCH  12  13
ENDBRANCH   7  12
BRANCH   2  21
HETATM   21  C   UNL     1      -6.772   0.787 -33.941  1.00  0.00    -0.028 A 
HETATM   22  C   UNL     1      -5.785   0.495 -32.984  1.00  0.00     0.011 A 
HETATM   23  C   UNL     1      -5.106  -0.726 -33.007  1.00  0.00     0.024 A 
HETATM   24  C   UNL     1      -5.407  -1.669 -33.987  1.00  0.00     0.034 A 
HETATM   25 CL   UNL     1      -4.563  -3.166 -34.024  1.00  0.00    -0.084 Cl
HETATM   26  C   UNL     1      -6.386  -1.402 -34.942  1.00  0.00     0.024 A 
HETATM   27  C   UNL     1      -7.066  -0.182 -34.919  1.00  0.00     0.011 A 
ENDBRANCH   2  21
BRANCH   1  28
HETATM   28  C   UNL     1      -9.820   1.508 -33.290  1.00  0.00     0.293 C 
HETATM   29  O   UNL     1     -10.131   0.397 -32.884  1.00  0.00    -0.259 OA
BRANCH  28  30
HETATM   30  O   UNL     1     -10.479   2.187 -34.257  1.00  0.00    -0.318 OA
BRANCH  30  31
HETATM   31  C   UNL     1     -11.891   2.358 -34.055  1.00  0.00     0.174 C 
HETATM   32  C   UNL     1     -12.682   1.475 -35.003  1.00  0.00     0.034 C 
ENDBRANCH  30  31
ENDBRANCH  28  30
ENDBRANCH   1  28
TORSDOF 7
ENDMDL
MODEL 5
REMARK VINA RESULT:      -8.4      3.187      7.950
REMARK  7 active torsions:
REMARK  status: ('A' for Active; 'I' for Inactive)
REMARK    1  A    between atoms: C_2  and  O_3 
REMARK    2  A    between atoms: O_3  and  C_4 
REMARK    3  A    between atoms: C_4  and  C_5 
REMARK    4  A    between atoms: C_6  and  C_7 
REMARK    5  A    between atoms: C_18  and  S_19 
REMARK    6  A    between atoms: S_19  and  C_20 
REMARK    7  A    between atoms: C_20  and  C_21 
ROOT
HETATM    1  C   UNL     1      -8.329   3.017 -32.552  1.00  0.00     0.070 C 
HETATM    2  C   UNL     1      -7.094   2.723 -33.408  1.00  0.00     0.203 C 
HETATM    3  N   UNL     1      -5.878   3.223 -32.761  1.00  0.00    -0.082 N 
HETATM    4  C   UNL     1      -5.807   3.571 -31.442  1.00  0.00     0.726 A 
HETATM    5  N   UNL     1      -6.919   3.489 -30.685  1.00  0.00    -0.192 N 
HETATM    6  N   UNL     1      -4.726   3.481 -33.402  1.00  0.00    -0.128 NA
HETATM    7  C   UNL     1      -3.972   3.932 -32.392  1.00  0.00     0.226 A 
HETATM    8  N   UNL     1      -4.597   3.988 -31.168  1.00  0.00    -0.035 NA
HETATM    9  C   UNL     1      -8.194   3.320 -31.233  1.00  0.00     0.037 C 
HETATM   10  C   UNL     1      -9.335   3.489 -30.261  1.00  0.00     0.070 C 
HETATM   11  H   UNL     1      -6.873   3.845 -29.732  1.00  0.00     0.184 HD
ENDROOT
BRANCH   7  12
HETATM   12  S   UNL     1      -2.334   4.443 -32.678  1.00  0.00    -0.083 SA
BRANCH  12  13
HETATM   13  C   UNL     1      -2.473   6.217 -32.331  1.00  0.00     0.123 C 
BRANCH  13  14
HETATM   14  C   UNL     1      -1.560   6.621 -31.195  1.00  0.00    -0.027 A 
HETATM   15  C   UNL     1      -2.038   7.004 -29.931  1.00  0.00     0.041 A 
HETATM   16 CL   UNL     1      -3.723   7.012 -29.549  1.00  0.00    -0.084 Cl
HETATM   17  C   UNL     1      -1.150   7.402 -28.926  1.00  0.00     0.024 A 
HETATM   18  C   UNL     1       0.223   7.431 -29.169  1.00  0.00     0.002 A 
HETATM   19  C   UNL     1       0.712   7.061 -30.418  1.00  0.00     0.001 A 
HETATM   20  C   UNL     1      -0.171   6.661 -31.423  1.00  0.00     0.009 A 
ENDBRANCH  13  14
ENDBRANCH  12  13
ENDBRANCH   7  12
BRANCH   2  21
HETATM   21  C   UNL     1      -6.934   1.230 -33.708  1.00  0.00    -0.028 A 
HETATM   22  C   UNL     1      -7.268   0.735 -34.980  1.00  0.00     0.011 A 
HETATM   23  C   UNL     1      -7.159  -0.628 -35.268  1.00  0.00     0.024 A 
HETATM   24  C   UNL     1      -6.716  -1.511 -34.287  1.00  0.00     0.034 A 
HETATM   25 CL   UNL     1      -6.594  -3.190 -34.636  1.00  0.00    -0.084 Cl
HETATM   26  C   UNL     1      -6.374  -1.041 -33.021  1.00  0.00     0.024 A 
HETATM   27  C   UNL     1      -6.482   0.322 -32.732  1.00  0.00     0.011 A 
ENDBRANCH   2  21
BRANCH   1  28
HETATM   28  C   UNL     1      -9.585   2.984 -33.348  1.00  0.00     0.293 C 
HETATM   29  O   UNL     1      -9.783   3.723 -34.302  1.00  0.00    -0.259 OA
BRANCH  28  30
HETATM   30  O   UNL     1     -10.502   2.138 -32.824  1.00  0.00    -0.318 OA
BRANCH  30  31
HETATM   31  C   UNL     1     -10.704   0.908 -33.537  1.00  0.00     0.174 C 
HETATM   32  C   UNL     1     -10.176  -0.271 -32.739  1.00  0.00     0.034 C 
ENDBRANCH  30  31
ENDBRANCH  28  30
ENDBRANCH   1  28
TORSDOF 7
ENDMDL
MODEL 6
REMARK VINA RESULT:      -8.3      3.259      8.204
REMARK  7 active torsions:
REMARK  status: ('A' for Active; 'I' for Inactive)
REMARK    1  A    between atoms: C_2  and  O_3 
REMARK    2  A    between atoms: O_3  and  C_4 
REMARK    3  A    between atoms: C_4  and  C_5 
REMARK    4  A    between atoms: C_6  and  C_7 
REMARK    5  A    between atoms: C_18  and  S_19 
REMARK    6  A    between atoms: S_19  and  C_20 
REMARK    7  A    between atoms: C_20  and  C_21 
ROOT
HETATM    1  C   UNL     1      -6.479   2.405 -31.812  1.00  0.00     0.070 C 
HETATM    2  C   UNL     1      -5.213   2.211 -32.651  1.00  0.00     0.203 C 
HETATM    3  N   UNL     1      -4.225   3.252 -32.356  1.00  0.00    -0.082 N 
HETATM    4  C   UNL     1      -4.273   4.055 -31.253  1.00  0.00     0.726 A 
HETATM    5  N   UNL     1      -5.301   3.920 -30.392  1.00  0.00    -0.192 N 
HETATM    6  N   UNL     1      -3.216   3.597 -33.174  1.00  0.00    -0.128 NA
HETATM    7  C   UNL     1      -2.651   4.586 -32.472  1.00  0.00     0.226 A 
HETATM    8  N   UNL     1      -3.263   4.887 -31.277  1.00  0.00    -0.035 NA
HETATM    9  C   UNL     1      -6.452   3.188 -30.700  1.00  0.00     0.037 C 
HETATM   10  C   UNL     1      -7.589   3.343 -29.720  1.00  0.00     0.070 C 
HETATM   11  H   UNL     1      -5.375   4.590 -29.630  1.00  0.00     0.184 HD
ENDROOT
BRANCH   7  12
HETATM   12  S   UNL     1      -1.265   5.429 -33.099  1.00  0.00    -0.083 SA
BRANCH  12  13
HETATM   13  C   UNL     1      -1.678   7.135 -32.646  1.00  0.00     0.123 C 
BRANCH  13  14
HETATM   14  C   UNL     1      -1.190   7.459 -31.252  1.00  0.00    -0.027 A 
HETATM   15  C   UNL     1      -1.855   8.357 -30.401  1.00  0.00     0.041 A 
HETATM   16 CL   UNL     1      -3.319   9.150 -30.863  1.00  0.00    -0.084 Cl
HETATM   17  C   UNL     1      -1.340   8.648 -29.132  1.00  0.00     0.024 A 
HETATM   18  C   UNL     1      -0.155   8.054 -28.700  1.00  0.00     0.002 A 
HETATM   19  C   UNL     1       0.519   7.167 -29.533  1.00  0.00     0.001 A 
HETATM   20  C   UNL     1       0.007   6.873 -30.799  1.00  0.00     0.009 A 
ENDBRANCH  13  14
ENDBRANCH  12  13
ENDBRANCH   7  12
BRANCH   2  21
HETATM   21  C   UNL     1      -4.580   0.833 -32.440  1.00  0.00    -0.028 A 
HETATM   22  C   UNL     1      -4.907  -0.225 -33.305  1.00  0.00     0.011 A 
HETATM   23  C   UNL     1      -4.365  -1.499 -33.114  1.00  0.00     0.024 A 
HETATM   24  C   UNL     1      -3.489  -1.728 -32.056  1.00  0.00     0.034 A 
HETATM   25 CL   UNL     1      -2.832  -3.298 -31.813  1.00  0.00    -0.084 Cl
HETATM   26  C   UNL     1      -3.147  -0.693 -31.189  1.00  0.00     0.024 A 
HETATM   27  C   UNL     1      -3.688   0.581 -31.380  1.00  0.00     0.011 A 
ENDBRANCH   2  21
BRANCH   1  28
HETATM   28  C   UNL     1      -7.655   1.711 -32.400  1.00  0.00     0.293 C 
HETATM   29  O   UNL     1      -8.210   0.770 -31.851  1.00  0.00    -0.259 OA
BRANCH  28  30
HETATM   30  O   UNL     1      -7.951   2.164 -33.640  1.00  0.00    -0.318 OA
BRANCH  30  31
HETATM   31  C   UNL     1      -8.702   1.268 -34.475  1.00  0.00     0.174 C 
HETATM   32  C   UNL     1      -7.777   0.325 -35.222  1.00  0.00     0.034 C 
ENDBRANCH  30  31
ENDBRANCH  28  30
ENDBRANCH   1  28
TORSDOF 7
ENDMDL
MODEL 7
REMARK VINA RESULT:      -8.2      1.990      2.416
REMARK  7 active torsions:
REMARK  status: ('A' for Active; 'I' for Inactive)
REMARK    1  A    between atoms: C_2  and  O_3 
REMARK    2  A    between atoms: O_3  and  C_4 
REMARK    3  A    between atoms: C_4  and  C_5 
REMARK    4  A    between atoms: C_6  and  C_7 
REMARK    5  A    between atoms: C_18  and  S_19 
REMARK    6  A    between atoms: S_19  and  C_20 
REMARK    7  A    between atoms: C_20  and  C_21 
ROOT
HETATM    1  C   UNL     1      -3.353   5.329 -31.871  1.00  0.00     0.070 C 
HETATM    2  C   UNL     1      -4.697   4.600 -31.950  1.00  0.00     0.203 C 
HETATM    3  N   UNL     1      -4.519   3.156 -31.776  1.00  0.00    -0.082 N 
HETATM    4  C   UNL     1      -3.389   2.585 -31.265  1.00  0.00     0.726 A 
HETATM    5  N   UNL     1      -2.353   3.378 -30.927  1.00  0.00    -0.192 N 
HETATM    6  N   UNL     1      -5.403   2.227 -32.179  1.00  0.00    -0.128 NA
HETATM    7  C   UNL     1      -4.765   1.104 -31.825  1.00  0.00     0.226 A 
HETATM    8  N   UNL     1      -3.530   1.284 -31.246  1.00  0.00    -0.035 NA
HETATM    9  C   UNL     1      -2.272   4.719 -31.314  1.00  0.00     0.037 C 
HETATM   10  C   UNL     1      -0.942   5.380 -31.053  1.00  0.00     0.070 C 
HETATM   11  H   UNL     1      -1.485   2.931 -30.641  1.00  0.00     0.184 HD
ENDROOT
BRANCH   7  12
HETATM   12  S   UNL     1      -5.478  -0.449 -32.144  1.00  0.00    -0.083 SA
BRANCH  12  13
HETATM   13  C   UNL     1      -4.456  -1.007 -33.534  1.00  0.00     0.123 C 
BRANCH  13  14
HETATM   14  C   UNL     1      -4.922  -2.352 -34.043  1.00  0.00    -0.027 A 
HETATM   15  C   UNL     1      -6.159  -2.540 -34.682  1.00  0.00     0.041 A 
HETATM   16 CL   UNL     1      -7.249  -1.232 -34.977  1.00  0.00    -0.084 Cl
HETATM   17  C   UNL     1      -6.555  -3.814 -35.104  1.00  0.00     0.024 A 
HETATM   18  C   UNL     1      -5.730  -4.917 -34.886  1.00  0.00     0.002 A 
HETATM   19  C   UNL     1      -4.505  -4.749 -34.249  1.00  0.00     0.001 A 
HETATM   20  C   UNL     1      -4.104  -3.479 -33.829  1.00  0.00     0.009 A 
ENDBRANCH  13  14
ENDBRANCH  12  13
ENDBRANCH   7  12
BRANCH   2  21
HETATM   21  C   UNL     1      -5.702   5.117 -30.917  1.00  0.00    -0.028 A 
HETATM   22  C   UNL     1      -6.915   5.681 -31.348  1.00  0.00     0.011 A 
HETATM   23  C   UNL     1      -7.835   6.187 -30.425  1.00  0.00     0.024 A 
HETATM   24  C   UNL     1      -7.552   6.135 -29.063  1.00  0.00     0.034 A 
HETATM   25 CL   UNL     1      -8.678   6.770 -27.928  1.00  0.00    -0.084 Cl
HETATM   26  C   UNL     1      -6.358   5.576 -28.614  1.00  0.00     0.024 A 
HETATM   27  C   UNL     1      -5.438   5.069 -29.536  1.00  0.00     0.011 A 
ENDBRANCH   2  21
BRANCH   1  28
HETATM   28  C   UNL     1      -3.404   6.672 -32.509  1.00  0.00     0.293 C 
HETATM   29  O   UNL     1      -3.675   7.689 -31.887  1.00  0.00    -0.259 OA
BRANCH  28  30
HETATM   30  O   UNL     1      -3.232   6.609 -33.849  1.00  0.00    -0.318 OA
BRANCH  30  31
HETATM   31  C   UNL     1      -1.872   6.607 -34.310  1.00  0.00     0.174 C 
HETATM   32  C   UNL     1      -1.530   5.284 -34.973  1.00  0.00     0.034 C 
ENDBRANCH  30  31
ENDBRANCH  28  30
ENDBRANCH   1  28
TORSDOF 7
ENDMDL
MODEL 8
REMARK VINA RESULT:      -8.2      3.793      6.443
REMARK  7 active torsions:
REMARK  status: ('A' for Active; 'I' for Inactive)
REMARK    1  A    between atoms: C_2  and  O_3 
REMARK    2  A    between atoms: O_3  and  C_4 
REMARK    3  A    between atoms: C_4  and  C_5 
REMARK    4  A    between atoms: C_6  and  C_7 
REMARK    5  A    between atoms: C_18  and  S_19 
REMARK    6  A    between atoms: S_19  and  C_20 
REMARK    7  A    between atoms: C_20  and  C_21 
ROOT
HETATM    1  C   UNL     1      -5.011   3.407 -32.926  1.00  0.00     0.070 C 
HETATM    2  C   UNL     1      -6.183   2.592 -32.373  1.00  0.00     0.203 C 
HETATM    3  N   UNL     1      -7.449   3.304 -32.560  1.00  0.00    -0.082 N 
HETATM    4  C   UNL     1      -7.610   4.358 -33.413  1.00  0.00     0.726 A 
HETATM    5  N   UNL     1      -6.544   4.806 -34.106  1.00  0.00    -0.192 N 
HETATM    6  N   UNL     1      -8.568   3.064 -31.856  1.00  0.00    -0.128 NA
HETATM    7  C   UNL     1      -9.395   3.978 -32.378  1.00  0.00     0.226 A 
HETATM    8  N   UNL     1      -8.847   4.783 -33.350  1.00  0.00    -0.035 NA
HETATM    9  C   UNL     1      -5.233   4.422 -33.804  1.00  0.00     0.037 C 
HETATM   10  C   UNL     1      -4.159   5.200 -34.522  1.00  0.00     0.070 C 
HETATM   11  H   UNL     1      -6.657   5.651 -34.661  1.00  0.00     0.184 HD
ENDROOT
BRANCH   7  12
HETATM   12  S   UNL     1     -11.027   4.124 -31.795  1.00  0.00    -0.083 SA
BRANCH  12  13
HETATM   13  C   UNL     1     -11.952   3.945 -33.343  1.00  0.00     0.123 C 
BRANCH  13  14
HETATM   14  C   UNL     1     -12.709   2.637 -33.375  1.00  0.00    -0.027 A 
HETATM   15  C   UNL     1     -12.129   1.430 -33.799  1.00  0.00     0.041 A 
HETATM   16 CL   UNL     1     -10.475   1.327 -34.290  1.00  0.00    -0.084 Cl
HETATM   17  C   UNL     1     -12.886   0.254 -33.842  1.00  0.00     0.024 A 
HETATM   18  C   UNL     1     -14.231   0.267 -33.472  1.00  0.00     0.002 A 
HETATM   19  C   UNL     1     -14.822   1.456 -33.056  1.00  0.00     0.001 A 
HETATM   20  C   UNL     1     -14.069   2.631 -33.010  1.00  0.00     0.009 A 
ENDBRANCH  13  14
ENDBRANCH  12  13
ENDBRANCH   7  12
BRANCH   2  21
HETATM   21  C   UNL     1      -6.279   1.204 -33.011  1.00  0.00    -0.028 A 
HETATM   22  C   UNL     1      -5.913   0.068 -32.268  1.00  0.00     0.011 A 
HETATM   23  C   UNL     1      -5.964  -1.206 -32.838  1.00  0.00     0.024 A 
HETATM   24  C   UNL     1      -6.381  -1.359 -34.158  1.00  0.00     0.034 A 
HETATM   25 CL   UNL     1      -6.432  -2.926 -34.864  1.00  0.00    -0.084 Cl
HETATM   26  C   UNL     1      -6.754  -0.248 -34.911  1.00  0.00     0.024 A 
HETATM   27  C   UNL     1      -6.704   1.026 -34.341  1.00  0.00     0.011 A 
ENDBRANCH   2  21
BRANCH   1  28
HETATM   28  C   UNL     1      -3.709   2.987 -32.343  1.00  0.00     0.293 C 
HETATM   29  O   UNL     1      -3.132   1.963 -32.683  1.00  0.00    -0.259 OA
BRANCH  28  30
HETATM   30  O   UNL     1      -3.313   3.796 -31.334  1.00  0.00    -0.318 OA
BRANCH  30  31
HETATM   31  C   UNL     1      -2.057   4.467 -31.521  1.00  0.00     0.174 C 
HETATM   32  C   UNL     1      -2.225   5.970 -31.390  1.00  0.00     0.034 C 
ENDBRANCH  30  31
ENDBRANCH  28  30
ENDBRANCH   1  28
TORSDOF 7
ENDMDL
MODEL 9
REMARK VINA RESULT:      -8.1      3.007      3.937
REMARK  7 active torsions:
REMARK  status: ('A' for Active; 'I' for Inactive)
REMARK    1  A    between atoms: C_2  and  O_3 
REMARK    2  A    between atoms: O_3  and  C_4 
REMARK    3  A    between atoms: C_4  and  C_5 
REMARK    4  A    between atoms: C_6  and  C_7 
REMARK    5  A    between atoms: C_18  and  S_19 
REMARK    6  A    between atoms: S_19  and  C_20 
REMARK    7  A    between atoms: C_20  and  C_21 
ROOT
HETATM    1  C   UNL     1      -2.452   6.440 -31.700  1.00  0.00     0.070 C 
HETATM    2  C   UNL     1      -3.936   6.246 -32.022  1.00  0.00     0.203 C 
HETATM    3  N   UNL     1      -4.250   4.826 -32.204  1.00  0.00    -0.082 N 
HETATM    4  C   UNL     1      -3.436   3.808 -31.798  1.00  0.00     0.726 A 
HETATM    5  N   UNL     1      -2.253   4.109 -31.224  1.00  0.00    -0.192 N 
HETATM    6  N   UNL     1      -5.324   4.364 -32.867  1.00  0.00    -0.128 NA
HETATM    7  C   UNL     1      -5.128   3.044 -32.774  1.00  0.00     0.226 A 
HETATM    8  N   UNL     1      -3.985   2.662 -32.110  1.00  0.00    -0.035 NA
HETATM    9  C   UNL     1      -1.701   5.393 -31.261  1.00  0.00     0.037 C 
HETATM   10  C   UNL     1      -0.275   5.489 -30.781  1.00  0.00     0.070 C 
HETATM   11  H   UNL     1      -1.617   3.342 -31.018  1.00  0.00     0.184 HD
ENDROOT
BRANCH   7  12
HETATM   12  S   UNL     1      -6.251   1.934 -33.503  1.00  0.00    -0.083 SA
BRANCH  12  13
HETATM   13  C   UNL     1      -6.056   0.497 -32.414  1.00  0.00     0.123 C 
BRANCH  13  14
HETATM   14  C   UNL     1      -5.843  -0.766 -33.216  1.00  0.00    -0.027 A 
HETATM   15  C   UNL     1      -4.578  -1.348 -33.402  1.00  0.00     0.041 A 
HETATM   16 CL   UNL     1      -3.148  -0.685 -32.693  1.00  0.00    -0.084 Cl
HETATM   17  C   UNL     1      -4.433  -2.499 -34.184  1.00  0.00     0.024 A 
HETATM   18  C   UNL     1      -5.543  -3.080 -34.796  1.00  0.00     0.002 A 
HETATM   19  C   UNL     1      -6.802  -2.512 -34.628  1.00  0.00     0.001 A 
HETATM   20  C   UNL     1      -6.951  -1.365 -33.846  1.00  0.00     0.009 A 
ENDBRANCH  13  14
ENDBRANCH  12  13
ENDBRANCH   7  12
BRANCH   2  21
HETATM   21  C   UNL     1      -4.848   6.835 -30.942  1.00  0.00    -0.028 A 
HETATM   22  C   UNL     1      -5.760   7.850 -31.278  1.00  0.00     0.011 A 
HETATM   23  C   UNL     1      -6.582   8.424 -30.304  1.00  0.00     0.024 A 
HETATM   24  C   UNL     1      -6.500   7.989 -28.984  1.00  0.00     0.034 A 
HETATM   25 CL   UNL     1      -7.501   8.704 -27.783  1.00  0.00    -0.084 Cl
HETATM   26  C   UNL     1      -5.606   6.981 -28.630  1.00  0.00     0.024 A 
HETATM   27  C   UNL     1      -4.785   6.406 -29.603  1.00  0.00     0.011 A 
ENDBRANCH   2  21
BRANCH   1  28
HETATM   28  C   UNL     1      -1.991   7.824 -31.986  1.00  0.00     0.293 C 
HETATM   29  O   UNL     1      -1.753   8.222 -33.117  1.00  0.00    -0.259 OA
BRANCH  28  30
HETATM   30  O   UNL     1      -1.761   8.531 -30.855  1.00  0.00    -0.318 OA
BRANCH  30  31
HETATM   31  C   UNL     1      -2.503   9.753 -30.716  1.00  0.00     0.174 C 
HETATM   32  C   UNL     1      -3.148   9.839 -29.344  1.00  0.00     0.034 C 
ENDBRANCH  30  31
ENDBRANCH  28  30
ENDBRANCH   1  28
TORSDOF 7
ENDMDL
MODEL 10
REMARK VINA RESULT:      -8.0      3.000      4.950
REMARK  7 active torsions:
REMARK  status: ('A' for Active; 'I' for Inactive)
REMARK    1  A    between atoms: C_2  and  O_3 
REMARK    2  A    between atoms: O_3  and  C_4 
REMARK    3  A    between atoms: C_4  and  C_5 
REMARK    4  A    between atoms: C_6  and  C_7 
REMARK    5  A    between atoms: C_18  and  S_19 
REMARK    6  A    between atoms: S_19  and  C_20 
REMARK    7  A    between atoms: C_20  and  C_21 
ROOT
HETATM    1  C   UNL     1      -7.351   5.209 -32.324  1.00  0.00     0.070 C 
HETATM    2  C   UNL     1      -6.384   4.023 -32.346  1.00  0.00     0.203 C 
HETATM    3  N   UNL     1      -6.994   2.862 -32.998  1.00  0.00    -0.082 N 
HETATM    4  C   UNL     1      -8.110   2.929 -33.783  1.00  0.00     0.726 A 
HETATM    5  N   UNL     1      -8.718   4.121 -33.951  1.00  0.00    -0.192 N 
HETATM    6  N   UNL     1      -6.586   1.593 -32.830  1.00  0.00    -0.128 NA
HETATM    7  C   UNL     1      -7.470   0.941 -33.594  1.00  0.00     0.226 A 
HETATM    8  N   UNL     1      -8.414   1.730 -34.210  1.00  0.00    -0.035 NA
HETATM    9  C   UNL     1      -8.425   5.236 -33.159  1.00  0.00     0.037 C 
HETATM   10  C   UNL     1      -9.364   6.404 -33.329  1.00  0.00     0.070 C 
HETATM   11  H   UNL     1      -9.601   4.137 -34.456  1.00  0.00     0.184 HD
ENDROOT
BRANCH   7  12
HETATM   12  S   UNL     1      -7.409  -0.792 -33.726  1.00  0.00    -0.083 SA
BRANCH  12  13
HETATM   13  C   UNL     1      -5.718  -1.023 -34.337  1.00  0.00     0.123 C 
BRANCH  13  14
HETATM   14  C   UNL     1      -5.301  -2.473 -34.245  1.00  0.00    -0.027 A 
HETATM   15  C   UNL     1      -4.216  -2.906 -33.464  1.00  0.00     0.041 A 
HETATM   16 CL   UNL     1      -3.279  -1.816 -32.505  1.00  0.00    -0.084 Cl
HETATM   17  C   UNL     1      -3.851  -4.257 -33.442  1.00  0.00     0.024 A 
HETATM   18  C   UNL     1      -4.556  -5.190 -34.202  1.00  0.00     0.002 A 
HETATM   19  C   UNL     1      -5.628  -4.776 -34.986  1.00  0.00     0.001 A 
HETATM   20  C   UNL     1      -5.997  -3.429 -35.009  1.00  0.00     0.009 A 
ENDBRANCH  13  14
ENDBRANCH  12  13
ENDBRANCH   7  12
BRANCH   2  21
HETATM   21  C   UNL     1      -5.062   4.362 -33.043  1.00  0.00    -0.028 A 
HETATM   22  C   UNL     1      -3.845   4.121 -32.384  1.00  0.00     0.011 A 
HETATM   23  C   UNL     1      -2.628   4.450 -32.987  1.00  0.00     0.024 A 
HETATM   24  C   UNL     1      -2.616   5.024 -34.256  1.00  0.00     0.034 A 
HETATM   25 CL   UNL     1      -1.119   5.441 -34.993  1.00  0.00    -0.084 Cl
HETATM   26  C   UNL     1      -3.810   5.267 -34.929  1.00  0.00     0.024 A 
HETATM   27  C   UNL     1      -5.027   4.937 -34.327  1.00  0.00     0.011 A 
ENDBRANCH   2  21
BRANCH   1  28
HETATM   28  C   UNL     1      -6.993   6.208 -31.282  1.00  0.00     0.293 C 
HETATM   29  O   UNL     1      -6.567   7.322 -31.553  1.00  0.00    -0.259 OA
BRANCH  28  30
HETATM   30  O   UNL     1      -7.083   5.700 -30.032  1.00  0.00    -0.318 OA
BRANCH  30  31
HETATM   31  C   UNL     1      -8.412   5.449 -29.549  1.00  0.00     0.174 C 
HETATM   32  C   UNL     1      -9.208   6.739 -29.468  1.00  0.00     0.034 C 
ENDBRANCH  30  31
ENDBRANCH  28  30
ENDBRANCH   1  28
TORSDOF 7
ENDMDL
