MODEL 1
REMARK VINA RESULT:      -9.3      0.000      0.000
REMARK  10 active torsions:
REMARK  status: ('A' for Active; 'I' for Inactive)
REMARK    1  A    between atoms: C_6  and  N_7 
REMARK    2  A    between atoms: C_6  and  C_29 
REMARK       I    between atoms: N_7  and  C_8 
REMARK    3  A    between atoms: N_7  and  C_23 
REMARK    4  A    between atoms: C_8  and  C_9 
REMARK    5  A    between atoms: C_9  and  N_10 
REMARK    6  A    between atoms: C_14  and  C_15 
REMARK    7  A    between atoms: C_23  and  C_24 
REMARK       I    between atoms: C_29  and  N_30 
REMARK    8  A    between atoms: N_30  and  C_31 
REMARK    9  A    between atoms: C_32  and  O_33 
REMARK   10  A    between atoms: C_36  and  O_37 
ROOT
HETATM    1  N   UNL     1      -4.581   5.215 -31.488  1.00  0.00    -0.326 N 
HETATM    2  C   UNL     1      -5.040   3.892 -31.279  1.00  0.00     0.239 C 
HETATM    3  O   UNL     1      -5.944   3.648 -30.480  1.00  0.00    -0.271 OA
ENDROOT
BRANCH   1   4
HETATM    4  C   UNL     1      -4.979   6.279 -30.488  1.00  0.00     0.120 C 
HETATM    5  C   UNL     1      -6.184   7.112 -30.993  1.00  0.00     0.069 C 
HETATM    6  C   UNL     1      -6.713   8.127 -29.984  1.00  0.00     0.237 C 
HETATM    7  N   UNL     1      -6.952   7.487 -28.643  1.00  0.00    -0.075 N 
HETATM    8  C   UNL     1      -7.463   8.501 -27.649  1.00  0.00     0.269 C 
HETATM    9  H   UNL     1      -7.702   6.789 -28.763  1.00  0.00     0.279 HD
HETATM   10  C   UNL     1      -5.746   6.766 -28.104  1.00  0.00     0.237 C 
HETATM   11  C   UNL     1      -5.324   5.685 -29.090  1.00  0.00     0.069 C 
BRANCH   4  12
HETATM   12  C   UNL     1      -3.734   7.202 -30.239  1.00  0.00     0.251 C 
HETATM   13  N   UNL     1      -2.725   6.574 -29.542  1.00  0.00    -0.323 N 
HETATM   14  H   UNL     1      -2.791   5.568 -29.406  1.00  0.00     0.169 HD
HETATM   15  O   UNL     1      -3.780   8.399 -30.508  1.00  0.00    -0.270 OA
BRANCH  13  16
HETATM   16  C   UNL     1      -1.582   7.143 -28.938  1.00  0.00     0.068 A 
HETATM   17  C   UNL     1      -0.365   7.018 -29.642  1.00  0.00     0.097 A 
HETATM   18  C   UNL     1       0.819   7.529 -29.096  1.00  0.00     0.075 A 
HETATM   19  C   UNL     1       0.796   8.165 -27.853  1.00  0.00     0.070 A 
HETATM   20  C   UNL     1      -0.411   8.281 -27.162  1.00  0.00     0.039 A 
HETATM   21  C   UNL     1      -1.597   7.778 -27.699  1.00  0.00     0.035 A 
BRANCH  17  22
HETATM   22  O   UNL     1      -0.454   6.347 -30.844  1.00  0.00    -0.354 OA
HETATM   23  C   UNL     1       0.431   5.248 -31.040  1.00  0.00     0.210 C 
ENDBRANCH  17  22
BRANCH  19  24
HETATM   24  O   UNL     1       1.872   8.698 -27.202  1.00  0.00    -0.356 OA
HETATM   25  C   UNL     1       2.073   8.310 -25.848  1.00  0.00     0.210 C 
ENDBRANCH  19  24
ENDBRANCH  13  16
ENDBRANCH   4  12
ENDBRANCH   1   4
BRANCH   1  26
HETATM   26  C   UNL     1      -4.561   5.636 -32.905  1.00  0.00     0.192 C 
BRANCH  26  27
HETATM   27  C   UNL     1      -3.201   5.749 -33.490  1.00  0.00     0.070 A 
HETATM   28  O   UNL     1      -2.686   7.014 -33.462  1.00  0.00    -0.325 OA
HETATM   29  C   UNL     1      -1.453   6.966 -34.024  1.00  0.00     0.142 A 
HETATM   30  C   UNL     1      -1.163   5.684 -34.425  1.00  0.00     0.027 A 
HETATM   31  C   UNL     1      -2.291   4.897 -34.083  1.00  0.00     0.036 A 
ENDBRANCH  26  27
ENDBRANCH   1  26
BRANCH   2  32
HETATM   32  C   UNL     1      -4.268   2.788 -32.038  1.00  0.00     0.228 C 
BRANCH  32  33
HETATM   33  N   UNL     1      -5.110   1.766 -32.642  1.00  0.00    -0.347 N 
HETATM   34  C   UNL     1      -6.219   1.948 -33.467  1.00  0.00     0.171 C 
HETATM   35  S   UNL     1      -6.930   3.362 -33.948  1.00  0.00    -0.041 SA
HETATM   36  N   UNL     1      -6.689   0.690 -33.833  1.00  0.00    -0.357 N 
HETATM   37  C   UNL     1      -6.066  -0.329 -33.018  1.00  0.00     0.135 C 
HETATM   38  H   UNL     1      -7.593   0.582 -34.276  1.00  0.00     0.162 HD
HETATM   39  C   UNL     1      -4.775   0.355 -32.556  1.00  0.00     0.155 C 
BRANCH  37  40
HETATM   40  C   UNL     1      -5.848  -1.652 -33.696  1.00  0.00    -0.034 A 
HETATM   41  C   UNL     1      -4.587  -2.262 -33.749  1.00  0.00     0.009 A 
HETATM   42  C   UNL     1      -4.429  -3.514 -34.348  1.00  0.00     0.001 A 
HETATM   43  C   UNL     1      -5.529  -4.175 -34.891  1.00  0.00     0.000 A 
HETATM   44  C   UNL     1      -6.789  -3.585 -34.840  1.00  0.00     0.001 A 
HETATM   45  C   UNL     1      -6.948  -2.333 -34.245  1.00  0.00     0.009 A 
ENDBRANCH  37  40
ENDBRANCH  32  33
ENDBRANCH   2  32
TORSDOF 10
ENDMDL
MODEL 2
REMARK VINA RESULT:      -9.3      1.039      1.821
REMARK  10 active torsions:
REMARK  status: ('A' for Active; 'I' for Inactive)
REMARK    1  A    between atoms: C_6  and  N_7 
REMARK    2  A    between atoms: C_6  and  C_29 
REMARK       I    between atoms: N_7  and  C_8 
REMARK    3  A    between atoms: N_7  and  C_23 
REMARK    4  A    between atoms: C_8  and  C_9 
REMARK    5  A    between atoms: C_9  and  N_10 
REMARK    6  A    between atoms: C_14  and  C_15 
REMARK    7  A    between atoms: C_23  and  C_24 
REMARK       I    between atoms: C_29  and  N_30 
REMARK    8  A    between atoms: N_30  and  C_31 
REMARK    9  A    between atoms: C_32  and  O_33 
REMARK   10  A    between atoms: C_36  and  O_37 
ROOT
HETATM    1  N   UNL     1      -4.290   5.604 -31.220  1.00  0.00    -0.326 N 
HETATM    2  C   UNL     1      -4.791   4.291 -31.039  1.00  0.00     0.239 C 
HETATM    3  O   UNL     1      -5.697   4.058 -30.239  1.00  0.00    -0.271 OA
ENDROOT
BRANCH   1   4
HETATM    4  C   UNL     1      -4.644   6.654 -30.192  1.00  0.00     0.120 C 
HETATM    5  C   UNL     1      -5.752   7.607 -30.710  1.00  0.00     0.069 C 
HETATM    6  C   UNL     1      -6.241   8.621 -29.680  1.00  0.00     0.237 C 
HETATM    7  N   UNL     1      -6.595   7.948 -28.380  1.00  0.00    -0.075 N 
HETATM    8  C   UNL     1      -7.066   8.960 -27.365  1.00  0.00     0.269 C 
HETATM    9  H   UNL     1      -7.394   7.322 -28.564  1.00  0.00     0.279 HD
HETATM   10  C   UNL     1      -5.480   7.106 -27.823  1.00  0.00     0.237 C 
HETATM   11  C   UNL     1      -5.103   6.035 -28.838  1.00  0.00     0.069 C 
BRANCH   4  12
HETATM   12  C   UNL     1      -3.340   7.458 -29.848  1.00  0.00     0.251 C 
HETATM   13  N   UNL     1      -2.357   6.677 -29.283  1.00  0.00    -0.323 N 
HETATM   14  H   UNL     1      -2.480   5.667 -29.295  1.00  0.00     0.169 HD
HETATM   15  O   UNL     1      -3.319   8.682 -29.935  1.00  0.00    -0.270 OA
BRANCH  13  16
HETATM   16  C   UNL     1      -1.167   7.083 -28.638  1.00  0.00     0.068 A 
HETATM   17  C   UNL     1      -1.196   7.130 -27.227  1.00  0.00     0.097 A 
HETATM   18  C   UNL     1      -0.066   7.551 -26.514  1.00  0.00     0.075 A 
HETATM   19  C   UNL     1       1.091   7.925 -27.200  1.00  0.00     0.070 A 
HETATM   20  C   UNL     1       1.109   7.880 -28.595  1.00  0.00     0.039 A 
HETATM   21  C   UNL     1      -0.010   7.458 -29.314  1.00  0.00     0.035 A 
BRANCH  17  22
HETATM   22  O   UNL     1      -2.398   6.767 -26.657  1.00  0.00    -0.354 OA
HETATM   23  C   UNL     1      -2.711   7.333 -25.386  1.00  0.00     0.210 C 
ENDBRANCH  17  22
BRANCH  19  24
HETATM   24  O   UNL     1       2.256   8.363 -26.635  1.00  0.00    -0.356 OA
HETATM   25  C   UNL     1       2.258   8.577 -25.229  1.00  0.00     0.210 C 
ENDBRANCH  19  24
ENDBRANCH  13  16
ENDBRANCH   4  12
ENDBRANCH   1   4
BRANCH   1  26
HETATM   26  C   UNL     1      -4.266   6.058 -32.627  1.00  0.00     0.192 C 
BRANCH  26  27
HETATM   27  C   UNL     1      -2.904   6.239 -33.188  1.00  0.00     0.070 A 
HETATM   28  O   UNL     1      -2.557   5.306 -34.123  1.00  0.00    -0.325 OA
HETATM   29  C   UNL     1      -1.299   5.595 -34.542  1.00  0.00     0.142 A 
HETATM   30  C   UNL     1      -0.822   6.702 -33.882  1.00  0.00     0.027 A 
HETATM   31  C   UNL     1      -1.855   7.118 -33.006  1.00  0.00     0.036 A 
ENDBRANCH  26  27
ENDBRANCH   1  26
BRANCH   2  32
HETATM   32  C   UNL     1      -4.062   3.182 -31.831  1.00  0.00     0.228 C 
BRANCH  32  33
HETATM   33  N   UNL     1      -4.943   2.207 -32.459  1.00  0.00    -0.347 N 
HETATM   34  C   UNL     1      -6.007   2.447 -33.326  1.00  0.00     0.171 C 
HETATM   35  S   UNL     1      -6.611   3.898 -33.845  1.00  0.00    -0.041 SA
HETATM   36  N   UNL     1      -6.539   1.217 -33.699  1.00  0.00    -0.357 N 
HETATM   37  C   UNL     1      -6.011   0.170 -32.854  1.00  0.00     0.135 C 
HETATM   38  H   UNL     1      -7.431   1.160 -34.175  1.00  0.00     0.162 HD
HETATM   39  C   UNL     1      -4.698   0.778 -32.348  1.00  0.00     0.155 C 
BRANCH  37  40
HETATM   40  C   UNL     1      -5.851  -1.171 -33.512  1.00  0.00    -0.034 A 
HETATM   41  C   UNL     1      -6.934  -1.851 -34.087  1.00  0.00     0.009 A 
HETATM   42  C   UNL     1      -6.742  -3.076 -34.730  1.00  0.00     0.001 A 
HETATM   43  C   UNL     1      -5.465  -3.630 -34.816  1.00  0.00     0.000 A 
HETATM   44  C   UNL     1      -4.379  -2.963 -34.256  1.00  0.00     0.001 A 
HETATM   45  C   UNL     1      -4.571  -1.741 -33.610  1.00  0.00     0.009 A 
ENDBRANCH  37  40
ENDBRANCH  32  33
ENDBRANCH   2  32
TORSDOF 10
ENDMDL
MODEL 3
REMARK VINA RESULT:      -9.2      3.996      7.933
REMARK  10 active torsions:
REMARK  status: ('A' for Active; 'I' for Inactive)
REMARK    1  A    between atoms: C_6  and  N_7 
REMARK    2  A    between atoms: C_6  and  C_29 
REMARK       I    between atoms: N_7  and  C_8 
REMARK    3  A    between atoms: N_7  and  C_23 
REMARK    4  A    between atoms: C_8  and  C_9 
REMARK    5  A    between atoms: C_9  and  N_10 
REMARK    6  A    between atoms: C_14  and  C_15 
REMARK    7  A    between atoms: C_23  and  C_24 
REMARK       I    between atoms: C_29  and  N_30 
REMARK    8  A    between atoms: N_30  and  C_31 
REMARK    9  A    between atoms: C_32  and  O_33 
REMARK   10  A    between atoms: C_36  and  O_37 
ROOT
HETATM    1  N   UNL     1      -6.448   4.509 -32.709  1.00  0.00    -0.326 N 
HETATM    2  C   UNL     1      -6.432   3.093 -32.692  1.00  0.00     0.239 C 
HETATM    3  O   UNL     1      -7.471   2.444 -32.574  1.00  0.00    -0.271 OA
ENDROOT
BRANCH   1   4
HETATM    4  C   UNL     1      -7.704   5.217 -32.250  1.00  0.00     0.120 C 
HETATM    5  C   UNL     1      -8.076   4.832 -30.796  1.00  0.00     0.069 C 
HETATM    6  C   UNL     1      -9.267   5.597 -30.228  1.00  0.00     0.237 C 
HETATM    7  N   UNL     1      -9.105   7.081 -30.427  1.00  0.00    -0.075 N 
HETATM    8  C   UNL     1     -10.293   7.828 -29.873  1.00  0.00     0.269 C 
HETATM    9  H   UNL     1      -8.286   7.379 -29.876  1.00  0.00     0.279 HD
HETATM   10  C   UNL     1      -8.848   7.464 -31.860  1.00  0.00     0.237 C 
HETATM   11  C   UNL     1      -7.585   6.768 -32.348  1.00  0.00     0.069 C 
BRANCH   4  12
HETATM   12  C   UNL     1      -8.864   4.837 -33.237  1.00  0.00     0.251 C 
HETATM   13  N   UNL     1      -9.814   4.020 -32.667  1.00  0.00    -0.323 N 
HETATM   14  H   UNL     1      -9.784   3.880 -31.659  1.00  0.00     0.169 HD
HETATM   15  O   UNL     1      -8.790   5.124 -34.429  1.00  0.00    -0.270 OA
BRANCH  13  16
HETATM   16  C   UNL     1     -10.850   3.295 -33.297  1.00  0.00     0.068 A 
HETATM   17  C   UNL     1     -12.169   3.592 -32.891  1.00  0.00     0.097 A 
HETATM   18  C   UNL     1     -13.249   2.896 -33.448  1.00  0.00     0.075 A 
HETATM   19  C   UNL     1     -13.022   1.906 -34.406  1.00  0.00     0.070 A 
HETATM   20  C   UNL     1     -11.715   1.615 -34.798  1.00  0.00     0.039 A 
HETATM   21  C   UNL     1     -10.631   2.306 -34.252  1.00  0.00     0.035 A 
BRANCH  17  22
HETATM   22  O   UNL     1     -12.274   4.565 -31.920  1.00  0.00    -0.354 OA
HETATM   23  C   UNL     1     -12.997   4.228 -30.739  1.00  0.00     0.210 C 
ENDBRANCH  17  22
BRANCH  19  24
HETATM   24  O   UNL     1     -13.977   1.146 -35.020  1.00  0.00    -0.356 OA
HETATM   25  C   UNL     1     -15.122   0.791 -34.253  1.00  0.00     0.210 C 
ENDBRANCH  19  24
ENDBRANCH  13  16
ENDBRANCH   4  12
ENDBRANCH   1   4
BRANCH   1  26
HETATM   26  C   UNL     1      -5.750   5.113 -33.863  1.00  0.00     0.192 C 
BRANCH  26  27
HETATM   27  C   UNL     1      -4.432   5.712 -33.537  1.00  0.00     0.070 A 
HETATM   28  O   UNL     1      -3.650   5.967 -34.627  1.00  0.00    -0.325 OA
HETATM   29  C   UNL     1      -2.488   6.506 -34.180  1.00  0.00     0.142 A 
HETATM   30  C   UNL     1      -2.504   6.597 -32.809  1.00  0.00     0.027 A 
HETATM   31  C   UNL     1      -3.756   6.082 -32.391  1.00  0.00     0.036 A 
ENDBRANCH  26  27
ENDBRANCH   1  26
BRANCH   2  32
HETATM   32  C   UNL     1      -5.031   2.440 -32.731  1.00  0.00     0.228 C 
BRANCH  32  33
HETATM   33  N   UNL     1      -5.031   0.996 -32.546  1.00  0.00    -0.347 N 
HETATM   34  C   UNL     1      -5.309   0.281 -31.382  1.00  0.00     0.171 C 
HETATM   35  S   UNL     1      -5.661   0.860 -29.872  1.00  0.00    -0.041 SA
HETATM   36  N   UNL     1      -5.220  -1.074 -31.682  1.00  0.00    -0.357 N 
HETATM   37  C   UNL     1      -4.601  -1.257 -32.976  1.00  0.00     0.135 C 
HETATM   38  H   UNL     1      -5.201  -1.769 -30.946  1.00  0.00     0.162 HD
HETATM   39  C   UNL     1      -4.866   0.085 -33.667  1.00  0.00     0.155 C 
BRANCH  37  40
HETATM   40  C   UNL     1      -5.075  -2.451 -33.755  1.00  0.00    -0.034 A 
HETATM   41  C   UNL     1      -4.312  -3.622 -33.859  1.00  0.00     0.009 A 
HETATM   42  C   UNL     1      -4.803  -4.730 -34.553  1.00  0.00     0.001 A 
HETATM   43  C   UNL     1      -6.065  -4.684 -35.144  1.00  0.00     0.000 A 
HETATM   44  C   UNL     1      -6.837  -3.530 -35.044  1.00  0.00     0.001 A 
HETATM   45  C   UNL     1      -6.346  -2.422 -34.352  1.00  0.00     0.009 A 
ENDBRANCH  37  40
ENDBRANCH  32  33
ENDBRANCH   2  32
TORSDOF 10
ENDMDL
MODEL 4
REMARK VINA RESULT:      -9.2      2.771      9.163
REMARK  10 active torsions:
REMARK  status: ('A' for Active; 'I' for Inactive)
REMARK    1  A    between atoms: C_6  and  N_7 
REMARK    2  A    between atoms: C_6  and  C_29 
REMARK       I    between atoms: N_7  and  C_8 
REMARK    3  A    between atoms: N_7  and  C_23 
REMARK    4  A    between atoms: C_8  and  C_9 
REMARK    5  A    between atoms: C_9  and  N_10 
REMARK    6  A    between atoms: C_14  and  C_15 
REMARK    7  A    between atoms: C_23  and  C_24 
REMARK       I    between atoms: C_29  and  N_30 
REMARK    8  A    between atoms: N_30  and  C_31 
REMARK    9  A    between atoms: C_32  and  O_33 
REMARK   10  A    between atoms: C_36  and  O_37 
ROOT
HETATM    1  N   UNL     1      -5.044   3.517 -31.980  1.00  0.00    -0.326 N 
HETATM    2  C   UNL     1      -4.032   3.950 -32.871  1.00  0.00     0.239 C 
HETATM    3  O   UNL     1      -4.311   4.489 -33.941  1.00  0.00    -0.271 OA
ENDROOT
BRANCH   1   4
HETATM    4  C   UNL     1      -6.462   3.422 -32.498  1.00  0.00     0.120 C 
HETATM    5  C   UNL     1      -7.483   3.290 -31.340  1.00  0.00     0.069 C 
HETATM    6  C   UNL     1      -8.943   3.307 -31.783  1.00  0.00     0.237 C 
HETATM    7  N   UNL     1      -9.222   4.475 -32.692  1.00  0.00    -0.075 N 
HETATM    8  C   UNL     1     -10.664   4.476 -33.134  1.00  0.00     0.269 C 
HETATM    9  H   UNL     1      -9.082   5.336 -32.141  1.00  0.00     0.279 HD
HETATM   10  C   UNL     1      -8.296   4.542 -33.876  1.00  0.00     0.237 C 
HETATM   11  C   UNL     1      -6.858   4.641 -33.384  1.00  0.00     0.069 C 
BRANCH   4  12
HETATM   12  C   UNL     1      -6.549   2.181 -33.456  1.00  0.00     0.251 C 
HETATM   13  N   UNL     1      -6.378   0.981 -32.803  1.00  0.00    -0.323 N 
HETATM   14  H   UNL     1      -6.386   0.983 -31.785  1.00  0.00     0.169 HD
HETATM   15  O   UNL     1      -6.592   2.333 -34.673  1.00  0.00    -0.270 OA
BRANCH  13  16
HETATM   16  C   UNL     1      -6.157  -0.301 -33.353  1.00  0.00     0.068 A 
HETATM   17  C   UNL     1      -4.826  -0.773 -33.348  1.00  0.00     0.097 A 
HETATM   18  C   UNL     1      -4.521  -2.022 -33.902  1.00  0.00     0.075 A 
HETATM   19  C   UNL     1      -5.534  -2.803 -34.462  1.00  0.00     0.070 A 
HETATM   20  C   UNL     1      -6.846  -2.327 -34.468  1.00  0.00     0.039 A 
HETATM   21  C   UNL     1      -7.162  -1.086 -33.914  1.00  0.00     0.035 A 
BRANCH  17  22
HETATM   22  O   UNL     1      -3.905   0.092 -32.797  1.00  0.00    -0.354 OA
HETATM   23  C   UNL     1      -3.304  -0.298 -31.564  1.00  0.00     0.210 C 
ENDBRANCH  17  22
BRANCH  19  24
HETATM   24  O   UNL     1      -5.376  -4.029 -35.044  1.00  0.00    -0.356 OA
HETATM   25  C   UNL     1      -4.713  -5.032 -34.283  1.00  0.00     0.210 C 
ENDBRANCH  19  24
ENDBRANCH  13  16
ENDBRANCH   4  12
ENDBRANCH   1   4
BRANCH   1  26
HETATM   26  C   UNL     1      -4.893   4.016 -30.597  1.00  0.00     0.192 C 
BRANCH  26  27
HETATM   27  C   UNL     1      -5.139   5.471 -30.442  1.00  0.00     0.070 A 
HETATM   28  O   UNL     1      -6.004   5.786 -29.432  1.00  0.00    -0.325 OA
HETATM   29  C   UNL     1      -6.132   7.136 -29.410  1.00  0.00     0.142 A 
HETATM   30  C   UNL     1      -5.365   7.703 -30.399  1.00  0.00     0.027 A 
HETATM   31  C   UNL     1      -4.725   6.630 -31.069  1.00  0.00     0.036 A 
ENDBRANCH  26  27
ENDBRANCH   1  26
BRANCH   2  32
HETATM   32  C   UNL     1      -2.583   3.610 -32.453  1.00  0.00     0.228 C 
BRANCH  32  33
HETATM   33  N   UNL     1      -1.760   4.765 -32.124  1.00  0.00    -0.347 N 
HETATM   34  C   UNL     1      -1.229   5.715 -32.995  1.00  0.00     0.171 C 
HETATM   35  S   UNL     1      -1.330   5.775 -34.645  1.00  0.00    -0.041 SA
HETATM   36  N   UNL     1      -0.539   6.653 -32.233  1.00  0.00    -0.357 N 
HETATM   37  C   UNL     1      -0.369   6.168 -30.882  1.00  0.00     0.135 C 
HETATM   38  H   UNL     1       0.078   7.325 -32.672  1.00  0.00     0.162 HD
HETATM   39  C   UNL     1      -1.507   5.151 -30.745  1.00  0.00     0.155 C 
BRANCH  37  40
HETATM   40  C   UNL     1      -0.361   7.224 -29.814  1.00  0.00    -0.034 A 
HETATM   41  C   UNL     1       0.730   7.400 -28.950  1.00  0.00     0.009 A 
HETATM   42  C   UNL     1       0.724   8.421 -27.997  1.00  0.00     0.001 A 
HETATM   43  C   UNL     1      -0.367   9.284 -27.902  1.00  0.00     0.000 A 
HETATM   44  C   UNL     1      -1.455   9.126 -28.757  1.00  0.00     0.001 A 
HETATM   45  C   UNL     1      -1.450   8.104 -29.708  1.00  0.00     0.009 A 
ENDBRANCH  37  40
ENDBRANCH  32  33
ENDBRANCH   2  32
TORSDOF 10
ENDMDL
MODEL 5
REMARK VINA RESULT:      -9.1      5.528      9.389
REMARK  10 active torsions:
REMARK  status: ('A' for Active; 'I' for Inactive)
REMARK    1  A    between atoms: C_6  and  N_7 
REMARK    2  A    between atoms: C_6  and  C_29 
REMARK       I    between atoms: N_7  and  C_8 
REMARK    3  A    between atoms: N_7  and  C_23 
REMARK    4  A    between atoms: C_8  and  C_9 
REMARK    5  A    between atoms: C_9  and  N_10 
REMARK    6  A    between atoms: C_14  and  C_15 
REMARK    7  A    between atoms: C_23  and  C_24 
REMARK       I    between atoms: C_29  and  N_30 
REMARK    8  A    between atoms: N_30  and  C_31 
REMARK    9  A    between atoms: C_32  and  O_33 
REMARK   10  A    between atoms: C_36  and  O_37 
ROOT
HETATM    1  N   UNL     1      -8.675   3.620 -32.935  1.00  0.00    -0.326 N 
HETATM    2  C   UNL     1      -8.888   2.275 -32.547  1.00  0.00     0.239 C 
HETATM    3  O   UNL     1      -9.924   1.681 -32.845  1.00  0.00    -0.271 OA
ENDROOT
BRANCH   1   4
HETATM    4  C   UNL     1      -9.859   4.421 -33.428  1.00  0.00     0.120 C 
HETATM    5  C   UNL     1      -9.592   5.945 -33.341  1.00  0.00     0.069 C 
HETATM    6  C   UNL     1     -10.701   6.812 -33.931  1.00  0.00     0.237 C 
HETATM    7  N   UNL     1     -11.073   6.351 -35.315  1.00  0.00    -0.075 N 
HETATM    8  C   UNL     1     -12.177   7.207 -35.885  1.00  0.00     0.269 C 
HETATM    9  H   UNL     1     -10.250   6.492 -35.920  1.00  0.00     0.279 HD
HETATM   10  C   UNL     1     -11.436   4.892 -35.379  1.00  0.00     0.237 C 
HETATM   11  C   UNL     1     -10.258   4.060 -34.890  1.00  0.00     0.069 C 
BRANCH   4  12
HETATM   12  C   UNL     1     -11.107   4.028 -32.560  1.00  0.00     0.251 C 
HETATM   13  N   UNL     1     -12.095   3.399 -33.286  1.00  0.00    -0.323 N 
HETATM   14  H   UNL     1     -11.876   3.098 -34.233  1.00  0.00     0.169 HD
HETATM   15  O   UNL     1     -11.211   4.419 -31.401  1.00  0.00    -0.270 OA
BRANCH  13  16
HETATM   16  C   UNL     1     -13.428   3.122 -32.909  1.00  0.00     0.068 A 
HETATM   17  C   UNL     1     -13.943   1.861 -33.282  1.00  0.00     0.097 A 
HETATM   18  C   UNL     1     -15.265   1.522 -32.971  1.00  0.00     0.075 A 
HETATM   19  C   UNL     1     -16.077   2.432 -32.291  1.00  0.00     0.070 A 
HETATM   20  C   UNL     1     -15.561   3.678 -31.930  1.00  0.00     0.039 A 
HETATM   21  C   UNL     1     -14.243   4.024 -32.231  1.00  0.00     0.035 A 
BRANCH  17  22
HETATM   22  O   UNL     1     -13.064   1.055 -33.975  1.00  0.00    -0.354 OA
HETATM   23  C   UNL     1     -12.955  -0.301 -33.550  1.00  0.00     0.210 C 
ENDBRANCH  17  22
BRANCH  19  24
HETATM   24  O   UNL     1     -17.382   2.238 -31.935  1.00  0.00    -0.356 OA
HETATM   25  C   UNL     1     -18.252   3.361 -32.008  1.00  0.00     0.210 C 
ENDBRANCH  19  24
ENDBRANCH  13  16
ENDBRANCH   4  12
ENDBRANCH   1   4
BRANCH   1  26
HETATM   26  C   UNL     1      -7.397   3.856 -33.639  1.00  0.00     0.192 C 
BRANCH  26  27
HETATM   27  C   UNL     1      -6.510   4.849 -32.983  1.00  0.00     0.070 A 
HETATM   28  O   UNL     1      -6.738   5.002 -31.645  1.00  0.00    -0.325 OA
HETATM   29  C   UNL     1      -5.864   5.931 -31.185  1.00  0.00     0.142 A 
HETATM   30  C   UNL     1      -5.075   6.391 -32.211  1.00  0.00     0.027 A 
HETATM   31  C   UNL     1      -5.492   5.696 -33.374  1.00  0.00     0.036 A 
ENDBRANCH  26  27
ENDBRANCH   1  26
BRANCH   2  32
HETATM   32  C   UNL     1      -7.790   1.654 -31.653  1.00  0.00     0.228 C 
BRANCH  32  33
HETATM   33  N   UNL     1      -6.807   0.854 -32.369  1.00  0.00    -0.347 N 
HETATM   34  C   UNL     1      -5.419   0.984 -32.352  1.00  0.00     0.171 C 
HETATM   35  S   UNL     1      -4.496   2.110 -31.567  1.00  0.00    -0.041 SA
HETATM   36  N   UNL     1      -4.887  -0.017 -33.159  1.00  0.00    -0.357 N 
HETATM   37  C   UNL     1      -5.934  -0.633 -33.942  1.00  0.00     0.135 C 
HETATM   38  H   UNL     1      -3.914   0.004 -33.438  1.00  0.00     0.162 HD
HETATM   39  C   UNL     1      -7.190  -0.332 -33.117  1.00  0.00     0.155 C 
BRANCH  37  40
HETATM   40  C   UNL     1      -5.737  -2.091 -34.247  1.00  0.00    -0.034 A 
HETATM   41  C   UNL     1      -4.499  -2.726 -34.076  1.00  0.00     0.009 A 
HETATM   42  C   UNL     1      -4.362  -4.094 -34.327  1.00  0.00     0.001 A 
HETATM   43  C   UNL     1      -5.461  -4.843 -34.742  1.00  0.00     0.000 A 
HETATM   44  C   UNL     1      -6.699  -4.228 -34.911  1.00  0.00     0.001 A 
HETATM   45  C   UNL     1      -6.836  -2.861 -34.663  1.00  0.00     0.009 A 
ENDBRANCH  37  40
ENDBRANCH  32  33
ENDBRANCH   2  32
TORSDOF 10
ENDMDL
MODEL 6
REMARK VINA RESULT:      -9.1      4.250      6.297
REMARK  10 active torsions:
REMARK  status: ('A' for Active; 'I' for Inactive)
REMARK    1  A    between atoms: C_6  and  N_7 
REMARK    2  A    between atoms: C_6  and  C_29 
REMARK       I    between atoms: N_7  and  C_8 
REMARK    3  A    between atoms: N_7  and  C_23 
REMARK    4  A    between atoms: C_8  and  C_9 
REMARK    5  A    between atoms: C_9  and  N_10 
REMARK    6  A    between atoms: C_14  and  C_15 
REMARK    7  A    between atoms: C_23  and  C_24 
REMARK       I    between atoms: C_29  and  N_30 
REMARK    8  A    between atoms: N_30  and  C_31 
REMARK    9  A    between atoms: C_32  and  O_33 
REMARK   10  A    between atoms: C_36  and  O_37 
ROOT
HETATM    1  N   UNL     1      -8.292   3.255 -32.917  1.00  0.00    -0.326 N 
HETATM    2  C   UNL     1      -8.364   2.064 -32.155  1.00  0.00     0.239 C 
HETATM    3  O   UNL     1      -9.428   1.464 -32.006  1.00  0.00    -0.271 OA
ENDROOT
BRANCH   1   4
HETATM    4  C   UNL     1      -9.584   3.960 -33.268  1.00  0.00     0.120 C 
HETATM    5  C   UNL     1      -9.376   4.998 -34.400  1.00  0.00     0.069 C 
HETATM    6  C   UNL     1     -10.660   5.664 -34.885  1.00  0.00     0.237 C 
HETATM    7  N   UNL     1     -11.718   4.640 -35.203  1.00  0.00    -0.075 N 
HETATM    8  C   UNL     1     -12.987   5.309 -35.670  1.00  0.00     0.269 C 
HETATM    9  H   UNL     1     -11.373   4.076 -35.995  1.00  0.00     0.279 HD
HETATM   10  C   UNL     1     -11.995   3.697 -34.064  1.00  0.00     0.237 C 
HETATM   11  C   UNL     1     -10.710   2.969 -33.690  1.00  0.00     0.069 C 
BRANCH   4  12
HETATM   12  C   UNL     1     -10.125   4.658 -31.970  1.00  0.00     0.251 C 
HETATM   13  N   UNL     1      -9.304   5.666 -31.515  1.00  0.00    -0.323 N 
HETATM   14  H   UNL     1      -8.548   5.978 -32.119  1.00  0.00     0.169 HD
HETATM   15  O   UNL     1     -11.092   4.198 -31.370  1.00  0.00    -0.270 OA
BRANCH  13  16
HETATM   16  C   UNL     1      -9.338   6.340 -30.274  1.00  0.00     0.068 A 
HETATM   17  C   UNL     1      -8.328   6.008 -29.344  1.00  0.00     0.097 A 
HETATM   18  C   UNL     1      -8.310   6.611 -28.081  1.00  0.00     0.075 A 
HETATM   19  C   UNL     1      -9.292   7.544 -27.739  1.00  0.00     0.070 A 
HETATM   20  C   UNL     1     -10.288   7.864 -28.662  1.00  0.00     0.039 A 
HETATM   21  C   UNL     1     -10.313   7.271 -29.926  1.00  0.00     0.035 A 
BRANCH  17  22
HETATM   22  O   UNL     1      -7.430   5.055 -29.776  1.00  0.00    -0.354 OA
HETATM   23  C   UNL     1      -6.205   4.945 -29.057  1.00  0.00     0.210 C 
ENDBRANCH  17  22
BRANCH  19  24
HETATM   24  O   UNL     1      -9.400   8.198 -26.544  1.00  0.00    -0.356 OA
HETATM   25  C   UNL     1     -10.665   8.167 -25.895  1.00  0.00     0.210 C 
ENDBRANCH  19  24
ENDBRANCH  13  16
ENDBRANCH   4  12
ENDBRANCH   1   4
BRANCH   1  26
HETATM   26  C   UNL     1      -7.255   3.243 -33.970  1.00  0.00     0.192 C 
BRANCH  26  27
HETATM   27  C   UNL     1      -6.180   4.248 -33.781  1.00  0.00     0.070 A 
HETATM   28  O   UNL     1      -6.379   5.086 -32.721  1.00  0.00    -0.325 OA
HETATM   29  C   UNL     1      -5.328   5.942 -32.672  1.00  0.00     0.142 A 
HETATM   30  C   UNL     1      -4.450   5.674 -33.695  1.00  0.00     0.027 A 
HETATM   31  C   UNL     1      -4.999   4.583 -34.413  1.00  0.00     0.036 A 
ENDBRANCH  26  27
ENDBRANCH   1  26
BRANCH   2  32
HETATM   32  C   UNL     1      -7.052   1.638 -31.455  1.00  0.00     0.228 C 
BRANCH  32  33
HETATM   33  N   UNL     1      -6.188   0.783 -32.256  1.00  0.00    -0.347 N 
HETATM   34  C   UNL     1      -4.802   0.849 -32.388  1.00  0.00     0.171 C 
HETATM   35  S   UNL     1      -3.751   1.942 -31.726  1.00  0.00    -0.041 SA
HETATM   36  N   UNL     1      -4.404  -0.186 -33.229  1.00  0.00    -0.357 N 
HETATM   37  C   UNL     1      -5.556  -0.764 -33.885  1.00  0.00     0.135 C 
HETATM   38  H   UNL     1      -3.466  -0.215 -33.609  1.00  0.00     0.162 HD
HETATM   39  C   UNL     1      -6.702  -0.394 -32.937  1.00  0.00     0.155 C 
BRANCH  37  40
HETATM   40  C   UNL     1      -5.458  -2.233 -34.183  1.00  0.00    -0.034 A 
HETATM   41  C   UNL     1      -4.297  -2.972 -33.911  1.00  0.00     0.009 A 
HETATM   42  C   UNL     1      -4.256  -4.346 -34.158  1.00  0.00     0.001 A 
HETATM   43  C   UNL     1      -5.375  -5.000 -34.671  1.00  0.00     0.000 A 
HETATM   44  C   UNL     1      -6.537  -4.281 -34.940  1.00  0.00     0.001 A 
HETATM   45  C   UNL     1      -6.578  -2.907 -34.696  1.00  0.00     0.009 A 
ENDBRANCH  37  40
ENDBRANCH  32  33
ENDBRANCH   2  32
TORSDOF 10
ENDMDL
MODEL 7
REMARK VINA RESULT:      -8.9      3.671      9.966
REMARK  10 active torsions:
REMARK  status: ('A' for Active; 'I' for Inactive)
REMARK    1  A    between atoms: C_6  and  N_7 
REMARK    2  A    between atoms: C_6  and  C_29 
REMARK       I    between atoms: N_7  and  C_8 
REMARK    3  A    between atoms: N_7  and  C_23 
REMARK    4  A    between atoms: C_8  and  C_9 
REMARK    5  A    between atoms: C_9  and  N_10 
REMARK    6  A    between atoms: C_14  and  C_15 
REMARK    7  A    between atoms: C_23  and  C_24 
REMARK       I    between atoms: C_29  and  N_30 
REMARK    8  A    between atoms: N_30  and  C_31 
REMARK    9  A    between atoms: C_32  and  O_33 
REMARK   10  A    between atoms: C_36  and  O_37 
ROOT
HETATM    1  N   UNL     1      -6.662   3.556 -32.919  1.00  0.00    -0.326 N 
HETATM    2  C   UNL     1      -6.211   3.955 -31.637  1.00  0.00     0.239 C 
HETATM    3  O   UNL     1      -5.760   3.138 -30.836  1.00  0.00    -0.271 OA
ENDROOT
BRANCH   1   4
HETATM    4  C   UNL     1      -6.891   2.082 -33.171  1.00  0.00     0.120 C 
HETATM    5  C   UNL     1      -6.675   1.719 -34.662  1.00  0.00     0.069 C 
HETATM    6  C   UNL     1      -6.776   0.228 -34.968  1.00  0.00     0.237 C 
HETATM    7  N   UNL     1      -5.917  -0.578 -34.030  1.00  0.00    -0.075 N 
HETATM    8  C   UNL     1      -6.033  -2.052 -34.332  1.00  0.00     0.269 C 
HETATM    9  H   UNL     1      -4.935  -0.318 -34.208  1.00  0.00     0.279 HD
HETATM   10  C   UNL     1      -6.201  -0.303 -32.578  1.00  0.00     0.237 C 
HETATM   11  C   UNL     1      -5.976   1.176 -32.294  1.00  0.00     0.069 C 
BRANCH   4  12
HETATM   12  C   UNL     1      -8.354   1.733 -32.723  1.00  0.00     0.251 C 
HETATM   13  N   UNL     1      -9.278   1.871 -33.736  1.00  0.00    -0.323 N 
HETATM   14  H   UNL     1      -8.933   2.008 -34.683  1.00  0.00     0.169 HD
HETATM   15  O   UNL     1      -8.615   1.533 -31.540  1.00  0.00    -0.270 OA
BRANCH  13  16
HETATM   16  C   UNL     1     -10.688   1.879 -33.651  1.00  0.00     0.068 A 
HETATM   17  C   UNL     1     -11.305   3.136 -33.470  1.00  0.00     0.097 A 
HETATM   18  C   UNL     1     -12.697   3.224 -33.347  1.00  0.00     0.075 A 
HETATM   19  C   UNL     1     -13.476   2.067 -33.403  1.00  0.00     0.070 A 
HETATM   20  C   UNL     1     -12.858   0.828 -33.578  1.00  0.00     0.039 A 
HETATM   21  C   UNL     1     -11.472   0.730 -33.705  1.00  0.00     0.035 A 
BRANCH  17  22
HETATM   22  O   UNL     1     -10.437   4.205 -33.400  1.00  0.00    -0.354 OA
HETATM   23  C   UNL     1     -10.347   4.887 -32.151  1.00  0.00     0.210 C 
ENDBRANCH  17  22
BRANCH  19  24
HETATM   24  O   UNL     1     -14.837   2.007 -33.288  1.00  0.00    -0.356 OA
HETATM   25  C   UNL     1     -15.388   2.158 -31.985  1.00  0.00     0.210 C 
ENDBRANCH  19  24
ENDBRANCH  13  16
ENDBRANCH   4  12
ENDBRANCH   1   4
BRANCH   1  26
HETATM   26  C   UNL     1      -6.070   4.319 -34.038  1.00  0.00     0.192 C 
BRANCH  26  27
HETATM   27  C   UNL     1      -4.603   4.518 -33.934  1.00  0.00     0.070 A 
HETATM   28  O   UNL     1      -4.151   5.661 -34.530  1.00  0.00    -0.325 OA
HETATM   29  C   UNL     1      -2.807   5.709 -34.357  1.00  0.00     0.142 A 
HETATM   30  C   UNL     1      -2.377   4.603 -33.663  1.00  0.00     0.027 A 
HETATM   31  C   UNL     1      -3.534   3.832 -33.391  1.00  0.00     0.036 A 
ENDBRANCH  26  27
ENDBRANCH   1  26
BRANCH   2  32
HETATM   32  C   UNL     1      -6.419   5.448 -31.291  1.00  0.00     0.228 C 
BRANCH  32  33
HETATM   33  N   UNL     1      -5.405   6.012 -30.412  1.00  0.00    -0.347 N 
HETATM   34  C   UNL     1      -5.421   6.083 -29.020  1.00  0.00     0.171 C 
HETATM   35  S   UNL     1      -6.610   5.602 -27.974  1.00  0.00    -0.041 SA
HETATM   36  N   UNL     1      -4.230   6.673 -28.609  1.00  0.00    -0.357 N 
HETATM   37  C   UNL     1      -3.548   7.257 -29.742  1.00  0.00     0.135 C 
HETATM   38  H   UNL     1      -4.110   6.991 -27.655  1.00  0.00     0.162 HD
HETATM   39  C   UNL     1      -4.122   6.465 -30.923  1.00  0.00     0.155 C 
BRANCH  37  40
HETATM   40  C   UNL     1      -2.048   7.244 -29.668  1.00  0.00    -0.034 A 
HETATM   41  C   UNL     1      -1.253   6.846 -30.753  1.00  0.00     0.009 A 
HETATM   42  C   UNL     1       0.141   6.889 -30.665  1.00  0.00     0.001 A 
HETATM   43  C   UNL     1       0.756   7.339 -29.498  1.00  0.00     0.000 A 
HETATM   44  C   UNL     1      -0.020   7.744 -28.416  1.00  0.00     0.001 A 
HETATM   45  C   UNL     1      -1.412   7.699 -28.501  1.00  0.00     0.009 A 
ENDBRANCH  37  40
ENDBRANCH  32  33
ENDBRANCH   2  32
TORSDOF 10
ENDMDL
MODEL 8
REMARK VINA RESULT:      -8.8      4.270     10.296
REMARK  10 active torsions:
REMARK  status: ('A' for Active; 'I' for Inactive)
REMARK    1  A    between atoms: C_6  and  N_7 
REMARK    2  A    between atoms: C_6  and  C_29 
REMARK       I    between atoms: N_7  and  C_8 
REMARK    3  A    between atoms: N_7  and  C_23 
REMARK    4  A    between atoms: C_8  and  C_9 
REMARK    5  A    between atoms: C_9  and  N_10 
REMARK    6  A    between atoms: C_14  and  C_15 
REMARK    7  A    between atoms: C_23  and  C_24 
REMARK       I    between atoms: C_29  and  N_30 
REMARK    8  A    between atoms: N_30  and  C_31 
REMARK    9  A    between atoms: C_32  and  O_33 
REMARK   10  A    between atoms: C_36  and  O_37 
ROOT
HETATM    1  N   UNL     1      -7.281   3.063 -32.597  1.00  0.00    -0.326 N 
HETATM    2  C   UNL     1      -6.550   3.286 -31.404  1.00  0.00     0.239 C 
HETATM    3  O   UNL     1      -5.822   2.416 -30.929  1.00  0.00    -0.271 OA
ENDROOT
BRANCH   1   4
HETATM    4  C   UNL     1      -7.416   1.643 -33.099  1.00  0.00     0.120 C 
HETATM    5  C   UNL     1      -7.089   1.540 -34.610  1.00  0.00     0.069 C 
HETATM    6  C   UNL     1      -7.092   0.116 -35.159  1.00  0.00     0.237 C 
HETATM    7  N   UNL     1      -6.254  -0.798 -34.305  1.00  0.00    -0.075 N 
HETATM    8  C   UNL     1      -6.273  -2.205 -34.848  1.00  0.00     0.269 C 
HETATM    9  H   UNL     1      -5.278  -0.471 -34.369  1.00  0.00     0.279 HD
HETATM   10  C   UNL     1      -6.643  -0.777 -32.851  1.00  0.00     0.237 C 
HETATM   11  C   UNL     1      -6.513   0.643 -32.316  1.00  0.00     0.069 C 
BRANCH   4  12
HETATM   12  C   UNL     1      -8.885   1.165 -32.817  1.00  0.00     0.251 C 
HETATM   13  N   UNL     1      -9.804   1.694 -33.696  1.00  0.00    -0.323 N 
HETATM   14  H   UNL     1      -9.455   2.183 -34.518  1.00  0.00     0.169 HD
HETATM   15  O   UNL     1      -9.151   0.527 -31.803  1.00  0.00    -0.270 OA
BRANCH  13  16
HETATM   16  C   UNL     1     -11.214   1.685 -33.612  1.00  0.00     0.068 A 
HETATM   17  C   UNL     1     -11.807   2.678 -32.803  1.00  0.00     0.097 A 
HETATM   18  C   UNL     1     -13.198   2.718 -32.645  1.00  0.00     0.075 A 
HETATM   19  C   UNL     1     -14.000   1.774 -33.289  1.00  0.00     0.070 A 
HETATM   20  C   UNL     1     -13.406   0.792 -34.083  1.00  0.00     0.039 A 
HETATM   21  C   UNL     1     -12.021   0.746 -34.251  1.00  0.00     0.035 A 
BRANCH  17  22
HETATM   22  O   UNL     1     -10.919   3.539 -32.193  1.00  0.00    -0.354 OA
HETATM   23  C   UNL     1     -11.433   4.377 -31.161  1.00  0.00     0.210 C 
ENDBRANCH  17  22
BRANCH  19  24
HETATM   24  O   UNL     1     -15.362   1.690 -33.214  1.00  0.00    -0.356 OA
HETATM   25  C   UNL     1     -15.997   2.339 -32.119  1.00  0.00     0.210 C 
ENDBRANCH  19  24
ENDBRANCH  13  16
ENDBRANCH   4  12
ENDBRANCH   1   4
BRANCH   1  26
HETATM   26  C   UNL     1      -7.087   4.099 -33.633  1.00  0.00     0.192 C 
BRANCH  26  27
HETATM   27  C   UNL     1      -8.280   4.945 -33.882  1.00  0.00     0.070 A 
HETATM   28  O   UNL     1      -9.092   4.485 -34.880  1.00  0.00    -0.325 OA
HETATM   29  C   UNL     1     -10.130   5.350 -34.995  1.00  0.00     0.142 A 
HETATM   30  C   UNL     1      -9.998   6.374 -34.087  1.00  0.00     0.027 A 
HETATM   31  C   UNL     1      -8.804   6.116 -33.369  1.00  0.00     0.036 A 
ENDBRANCH  26  27
ENDBRANCH   1  26
BRANCH   2  32
HETATM   32  C   UNL     1      -6.810   4.640 -30.704  1.00  0.00     0.228 C 
BRANCH  32  33
HETATM   33  N   UNL     1      -5.608   5.350 -30.292  1.00  0.00    -0.347 N 
HETATM   34  C   UNL     1      -5.308   5.868 -29.033  1.00  0.00     0.171 C 
HETATM   35  S   UNL     1      -6.244   5.878 -27.669  1.00  0.00    -0.041 SA
HETATM   36  N   UNL     1      -4.037   6.432 -29.096  1.00  0.00    -0.357 N 
HETATM   37  C   UNL     1      -3.611   6.544 -30.473  1.00  0.00     0.135 C 
HETATM   38  H   UNL     1      -3.696   7.027 -28.351  1.00  0.00     0.162 HD
HETATM   39  C   UNL     1      -4.460   5.478 -31.174  1.00  0.00     0.155 C 
BRANCH  37  40
HETATM   40  C   UNL     1      -2.134   6.400 -30.705  1.00  0.00    -0.034 A 
HETATM   41  C   UNL     1      -1.193   7.168 -30.004  1.00  0.00     0.009 A 
HETATM   42  C   UNL     1       0.175   6.977 -30.211  1.00  0.00     0.001 A 
HETATM   43  C   UNL     1       0.619   6.011 -31.113  1.00  0.00     0.000 A 
HETATM   44  C   UNL     1      -0.303   5.237 -31.811  1.00  0.00     0.001 A 
HETATM   45  C   UNL     1      -1.670   5.429 -31.607  1.00  0.00     0.009 A 
ENDBRANCH  37  40
ENDBRANCH  32  33
ENDBRANCH   2  32
TORSDOF 10
ENDMDL
MODEL 9
REMARK VINA RESULT:      -8.8      5.181      9.871
REMARK  10 active torsions:
REMARK  status: ('A' for Active; 'I' for Inactive)
REMARK    1  A    between atoms: C_6  and  N_7 
REMARK    2  A    between atoms: C_6  and  C_29 
REMARK       I    between atoms: N_7  and  C_8 
REMARK    3  A    between atoms: N_7  and  C_23 
REMARK    4  A    between atoms: C_8  and  C_9 
REMARK    5  A    between atoms: C_9  and  N_10 
REMARK    6  A    between atoms: C_14  and  C_15 
REMARK    7  A    between atoms: C_23  and  C_24 
REMARK       I    between atoms: C_29  and  N_30 
REMARK    8  A    between atoms: N_30  and  C_31 
REMARK    9  A    between atoms: C_32  and  O_33 
REMARK   10  A    between atoms: C_36  and  O_37 
ROOT
HETATM    1  N   UNL     1      -8.653   3.691 -32.891  1.00  0.00    -0.326 N 
HETATM    2  C   UNL     1      -9.244   4.947 -32.610  1.00  0.00     0.239 C 
HETATM    3  O   UNL     1      -8.555   5.932 -32.344  1.00  0.00    -0.271 OA
ENDROOT
BRANCH   1   4
HETATM    4  C   UNL     1      -7.195   3.490 -32.541  1.00  0.00     0.120 C 
HETATM    5  C   UNL     1      -6.262   4.101 -33.617  1.00  0.00     0.069 C 
HETATM    6  C   UNL     1      -4.777   4.038 -33.271  1.00  0.00     0.237 C 
HETATM    7  N   UNL     1      -4.518   4.571 -31.887  1.00  0.00    -0.075 N 
HETATM    8  C   UNL     1      -3.050   4.493 -31.550  1.00  0.00     0.269 C 
HETATM    9  H   UNL     1      -4.767   5.572 -31.889  1.00  0.00     0.279 HD
HETATM   10  C   UNL     1      -5.350   3.902 -30.826  1.00  0.00     0.237 C 
HETATM   11  C   UNL     1      -6.826   4.091 -31.152  1.00  0.00     0.069 C 
BRANCH   4  12
HETATM   12  C   UNL     1      -6.937   1.948 -32.397  1.00  0.00     0.251 C 
HETATM   13  N   UNL     1      -6.226   1.418 -33.450  1.00  0.00    -0.323 N 
HETATM   14  H   UNL     1      -5.796   2.061 -34.111  1.00  0.00     0.169 HD
HETATM   15  O   UNL     1      -7.484   1.304 -31.506  1.00  0.00    -0.270 OA
BRANCH  13  16
HETATM   16  C   UNL     1      -6.017   0.060 -33.780  1.00  0.00     0.068 A 
HETATM   17  C   UNL     1      -4.770  -0.496 -33.419  1.00  0.00     0.097 A 
HETATM   18  C   UNL     1      -4.476  -1.827 -33.737  1.00  0.00     0.075 A 
HETATM   19  C   UNL     1      -5.416  -2.607 -34.414  1.00  0.00     0.070 A 
HETATM   20  C   UNL     1      -6.643  -2.048 -34.772  1.00  0.00     0.039 A 
HETATM   21  C   UNL     1      -6.949  -0.724 -34.456  1.00  0.00     0.035 A 
BRANCH  17  22
HETATM   22  O   UNL     1      -3.909   0.372 -32.781  1.00  0.00    -0.354 OA
HETATM   23  C   UNL     1      -3.537   0.051 -31.443  1.00  0.00     0.210 C 
ENDBRANCH  17  22
BRANCH  19  24
HETATM   24  O   UNL     1      -5.256  -3.909 -34.795  1.00  0.00    -0.356 OA
HETATM   25  C   UNL     1      -6.421  -4.617 -35.205  1.00  0.00     0.210 C 
ENDBRANCH  19  24
ENDBRANCH  13  16
ENDBRANCH   4  12
ENDBRANCH   1   4
BRANCH   1  26
HETATM   26  C   UNL     1      -9.104   3.075 -34.157  1.00  0.00     0.192 C 
BRANCH  26  27
HETATM   27  C   UNL     1     -10.221   2.111 -34.004  1.00  0.00     0.070 A 
HETATM   28  O   UNL     1     -11.304   2.381 -34.792  1.00  0.00    -0.325 OA
HETATM   29  C   UNL     1     -12.236   1.427 -34.547  1.00  0.00     0.142 A 
HETATM   30  C   UNL     1     -11.775   0.543 -33.602  1.00  0.00     0.027 A 
HETATM   31  C   UNL     1     -10.476   0.984 -33.247  1.00  0.00     0.036 A 
ENDBRANCH  26  27
ENDBRANCH   1  26
BRANCH   2  32
HETATM   32  C   UNL     1     -10.789   4.963 -32.563  1.00  0.00     0.228 C 
BRANCH  32  33
HETATM   33  N   UNL     1     -11.409   5.996 -33.379  1.00  0.00    -0.347 N 
HETATM   34  C   UNL     1     -12.159   7.091 -32.951  1.00  0.00     0.171 C 
HETATM   35  S   UNL     1     -12.606   7.500 -31.412  1.00  0.00    -0.041 SA
HETATM   36  N   UNL     1     -12.521   7.826 -34.076  1.00  0.00    -0.357 N 
HETATM   37  C   UNL     1     -12.255   7.062 -35.275  1.00  0.00     0.135 C 
HETATM   38  H   UNL     1     -13.220   8.555 -34.017  1.00  0.00     0.162 HD
HETATM   39  C   UNL     1     -11.178   6.076 -34.812  1.00  0.00     0.155 C 
BRANCH  37  40
HETATM   40  C   UNL     1     -11.868   7.869 -36.481  1.00  0.00    -0.034 A 
HETATM   41  C   UNL     1     -12.820   8.345 -37.394  1.00  0.00     0.009 A 
HETATM   42  C   UNL     1     -12.430   9.131 -38.481  1.00  0.00     0.001 A 
HETATM   43  C   UNL     1     -11.087   9.459 -38.663  1.00  0.00     0.000 A 
HETATM   44  C   UNL     1     -10.132   8.999 -37.761  1.00  0.00     0.001 A 
HETATM   45  C   UNL     1     -10.520   8.211 -36.676  1.00  0.00     0.009 A 
ENDBRANCH  37  40
ENDBRANCH  32  33
ENDBRANCH   2  32
TORSDOF 10
ENDMDL
MODEL 10
REMARK VINA RESULT:      -8.6      2.825      9.613
REMARK  10 active torsions:
REMARK  status: ('A' for Active; 'I' for Inactive)
REMARK    1  A    between atoms: C_6  and  N_7 
REMARK    2  A    between atoms: C_6  and  C_29 
REMARK       I    between atoms: N_7  and  C_8 
REMARK    3  A    between atoms: N_7  and  C_23 
REMARK    4  A    between atoms: C_8  and  C_9 
REMARK    5  A    between atoms: C_9  and  N_10 
REMARK    6  A    between atoms: C_14  and  C_15 
REMARK    7  A    between atoms: C_23  and  C_24 
REMARK       I    between atoms: C_29  and  N_30 
REMARK    8  A    between atoms: N_30  and  C_31 
REMARK    9  A    between atoms: C_32  and  O_33 
REMARK   10  A    between atoms: C_36  and  O_37 
ROOT
HETATM    1  N   UNL     1      -4.221   3.469 -31.748  1.00  0.00    -0.326 N 
HETATM    2  C   UNL     1      -5.066   4.119 -30.815  1.00  0.00     0.239 C 
HETATM    3  O   UNL     1      -5.803   3.478 -30.066  1.00  0.00    -0.271 OA
ENDROOT
BRANCH   1   4
HETATM    4  C   UNL     1      -4.472   2.008 -32.045  1.00  0.00     0.120 C 
HETATM    5  C   UNL     1      -3.279   1.367 -32.799  1.00  0.00     0.069 C 
HETATM    6  C   UNL     1      -3.414  -0.135 -33.029  1.00  0.00     0.237 C 
HETATM    7  N   UNL     1      -3.765  -0.851 -31.752  1.00  0.00    -0.075 N 
HETATM    8  C   UNL     1      -3.908  -2.334 -31.993  1.00  0.00     0.269 C 
HETATM    9  H   UNL     1      -2.971  -0.734 -31.104  1.00  0.00     0.279 HD
HETATM   10  C   UNL     1      -4.988  -0.296 -31.074  1.00  0.00     0.237 C 
HETATM   11  C   UNL     1      -4.762   1.177 -30.759  1.00  0.00     0.069 C 
BRANCH   4  12
HETATM   12  C   UNL     1      -5.786   1.904 -32.899  1.00  0.00     0.251 C 
HETATM   13  N   UNL     1      -6.930   1.890 -32.132  1.00  0.00    -0.323 N 
HETATM   14  H   UNL     1      -6.847   2.114 -31.143  1.00  0.00     0.169 HD
HETATM   15  O   UNL     1      -5.731   1.686 -34.105  1.00  0.00    -0.270 OA
BRANCH  13  16
HETATM   16  C   UNL     1      -8.250   1.573 -32.521  1.00  0.00     0.068 A 
HETATM   17  C   UNL     1      -9.134   2.658 -32.707  1.00  0.00     0.097 A 
HETATM   18  C   UNL     1     -10.468   2.424 -33.064  1.00  0.00     0.075 A 
HETATM   19  C   UNL     1     -10.925   1.116 -33.236  1.00  0.00     0.070 A 
HETATM   20  C   UNL     1     -10.046   0.050 -33.046  1.00  0.00     0.039 A 
HETATM   21  C   UNL     1      -8.714   0.271 -32.694  1.00  0.00     0.035 A 
BRANCH  17  22
HETATM   22  O   UNL     1      -8.584   3.902 -32.482  1.00  0.00    -0.354 OA
HETATM   23  C   UNL     1      -9.089   4.645 -31.375  1.00  0.00     0.210 C 
ENDBRANCH  17  22
BRANCH  19  24
HETATM   24  O   UNL     1     -12.197   0.746 -33.572  1.00  0.00    -0.356 OA
HETATM   25  C   UNL     1     -12.752   1.313 -34.753  1.00  0.00     0.210 C 
ENDBRANCH  19  24
ENDBRANCH  13  16
ENDBRANCH   4  12
ENDBRANCH   1   4
BRANCH   1  26
HETATM   26  C   UNL     1      -2.803   3.880 -31.674  1.00  0.00     0.192 C 
BRANCH  26  27
HETATM   27  C   UNL     1      -2.323   4.636 -32.857  1.00  0.00     0.070 A 
HETATM   28  O   UNL     1      -3.224   4.700 -33.881  1.00  0.00    -0.325 OA
HETATM   29  C   UNL     1      -2.654   5.413 -34.884  1.00  0.00     0.142 A 
HETATM   30  C   UNL     1      -1.387   5.806 -34.527  1.00  0.00     0.027 A 
HETATM   31  C   UNL     1      -1.170   5.303 -33.220  1.00  0.00     0.036 A 
ENDBRANCH  26  27
ENDBRANCH   1  26
BRANCH   2  32
HETATM   32  C   UNL     1      -5.067   5.664 -30.877  1.00  0.00     0.228 C 
BRANCH  32  33
HETATM   33  N   UNL     1      -4.376   6.315 -29.773  1.00  0.00    -0.347 N 
HETATM   34  C   UNL     1      -4.833   6.506 -28.470  1.00  0.00     0.171 C 
HETATM   35  S   UNL     1      -6.299   6.104 -27.819  1.00  0.00    -0.041 SA
HETATM   36  N   UNL     1      -3.824   7.144 -27.754  1.00  0.00    -0.357 N 
HETATM   37  C   UNL     1      -2.809   7.636 -28.658  1.00  0.00     0.135 C 
HETATM   38  H   UNL     1      -4.009   7.545 -26.843  1.00  0.00     0.162 HD
HETATM   39  C   UNL     1      -2.990   6.738 -29.886  1.00  0.00     0.155 C 
BRANCH  37  40
HETATM   40  C   UNL     1      -1.410   7.648 -28.110  1.00  0.00    -0.034 A 
HETATM   41  C   UNL     1      -1.125   7.270 -26.790  1.00  0.00     0.009 A 
HETATM   42  C   UNL     1       0.193   7.250 -26.326  1.00  0.00     0.001 A 
HETATM   43  C   UNL     1       1.241   7.598 -27.178  1.00  0.00     0.000 A 
HETATM   44  C   UNL     1       0.974   7.969 -28.493  1.00  0.00     0.001 A 
HETATM   45  C   UNL     1      -0.343   7.993 -28.956  1.00  0.00     0.009 A 
ENDBRANCH  37  40
ENDBRANCH  32  33
ENDBRANCH   2  32
TORSDOF 10
ENDMDL
