MODEL 1
REMARK VINA RESULT:      -8.7      0.000      0.000
REMARK  5 active torsions:
REMARK  status: ('A' for Active; 'I' for Inactive)
REMARK    1  A    between atoms: C_2  and  C_3 
REMARK    2  A    between atoms: C_2  and  C_9 
REMARK    3  A    between atoms: C_9  and  C_10 
REMARK       I    between atoms: C_10  and  N_11 
REMARK    4  A    between atoms: N_11  and  C_12 
REMARK    5  A    between atoms: C_19  and  C_20 
REMARK       I    between atoms: C_20  and  N_21 
ROOT
HETATM    1  C   UNL     1      -3.851   3.213 -32.687  1.00  0.00     0.035 A 
HETATM    2  C   UNL     1      -2.716   3.585 -31.953  1.00  0.00     0.046 A 
HETATM    3  C   UNL     1      -2.288   4.931 -31.966  1.00  0.00     0.030 A 
HETATM    4  C   UNL     1      -3.004   5.856 -32.716  1.00  0.00     0.063 A 
HETATM    5  N   UNL     1      -2.351   7.044 -32.544  1.00  0.00    -0.277 N 
HETATM    6  H   UNL     1      -2.592   7.941 -32.952  1.00  0.00     0.189 HD
HETATM    7  N   UNL     1      -1.280   6.982 -31.737  1.00  0.00    -0.168 NA
HETATM    8  C   UNL     1      -1.231   5.681 -31.365  1.00  0.00     0.156 A 
HETATM    9  C   UNL     1      -4.141   5.522 -33.451  1.00  0.00     0.034 A 
HETATM   10  C   UNL     1      -4.553   4.184 -33.414  1.00  0.00     0.032 A 
ENDROOT
BRANCH   1  11
HETATM   11  N   UNL     1      -4.366   1.897 -32.717  1.00  0.00    -0.327 N 
HETATM   12  C   UNL     1      -5.460   1.413 -32.028  1.00  0.00     0.222 C 
HETATM   13  O   UNL     1      -6.128   2.042 -31.211  1.00  0.00    -0.273 OA
HETATM   14  H   UNL     1      -3.798   1.223 -33.208  1.00  0.00     0.169 HD
BRANCH  12  15
HETATM   15  C   UNL     1      -5.898   0.004 -32.412  1.00  0.00     0.112 C 
BRANCH  15  16
HETATM   16  C   UNL     1      -5.815  -0.399 -33.893  1.00  0.00     0.023 C 
HETATM   17  C   UNL     1      -7.020   0.171 -34.653  1.00  0.00     0.015 C 
BRANCH  16  18
HETATM   18  C   UNL     1      -5.714  -1.892 -34.152  1.00  0.00    -0.054 A 
HETATM   19  C   UNL     1      -6.809  -2.648 -34.596  1.00  0.00     0.007 A 
HETATM   20  C   UNL     1      -6.675  -4.017 -34.839  1.00  0.00     0.001 A 
HETATM   21  C   UNL     1      -5.447  -4.646 -34.651  1.00  0.00     0.000 A 
HETATM   22  C   UNL     1      -4.349  -3.907 -34.222  1.00  0.00     0.001 A 
HETATM   23  C   UNL     1      -4.479  -2.539 -33.978  1.00  0.00     0.007 A 
ENDBRANCH  16  18
ENDBRANCH  15  16
ENDBRANCH  12  15
ENDBRANCH   1  11
BRANCH   8  24
HETATM   24  C   UNL     1      -0.191   5.193 -30.449  1.00  0.00     0.270 C 
HETATM   25  N   UNL     1      -0.366   5.581 -29.148  1.00  0.00    -0.365 N 
HETATM   26  H   UNL     1      -1.173   6.148 -28.916  1.00  0.00     0.159 HD
HETATM   27  H   UNL     1       0.293   5.284 -28.446  1.00  0.00     0.159 HD
HETATM   28  O   UNL     1       0.759   4.490 -30.777  1.00  0.00    -0.266 OA
ENDBRANCH   8  24
TORSDOF 5
ENDMDL
MODEL 2
REMARK VINA RESULT:      -8.7      5.336      8.442
REMARK  5 active torsions:
REMARK  status: ('A' for Active; 'I' for Inactive)
REMARK    1  A    between atoms: C_2  and  C_3 
REMARK    2  A    between atoms: C_2  and  C_9 
REMARK    3  A    between atoms: C_9  and  C_10 
REMARK       I    between atoms: C_10  and  N_11 
REMARK    4  A    between atoms: N_11  and  C_12 
REMARK    5  A    between atoms: C_19  and  C_20 
REMARK       I    between atoms: C_20  and  N_21 
ROOT
HETATM    1  C   UNL     1      -9.869   1.927 -34.162  1.00  0.00     0.035 A 
HETATM    2  C   UNL     1     -11.130   1.316 -34.185  1.00  0.00     0.046 A 
HETATM    3  C   UNL     1     -12.267   2.048 -33.775  1.00  0.00     0.030 A 
HETATM    4  C   UNL     1     -12.103   3.361 -33.351  1.00  0.00     0.063 A 
HETATM    5  N   UNL     1     -13.355   3.792 -33.013  1.00  0.00    -0.277 N 
HETATM    6  H   UNL     1     -13.614   4.705 -32.655  1.00  0.00     0.189 HD
HETATM    7  N   UNL     1     -14.326   2.882 -33.191  1.00  0.00    -0.168 NA
HETATM    8  C   UNL     1     -13.670   1.799 -33.669  1.00  0.00     0.156 A 
HETATM    9  C   UNL     1     -10.864   4.003 -33.323  1.00  0.00     0.034 A 
HETATM   10  C   UNL     1      -9.754   3.260 -33.745  1.00  0.00     0.032 A 
ENDROOT
BRANCH   1  11
HETATM   11  N   UNL     1      -8.680   1.283 -34.573  1.00  0.00    -0.327 N 
HETATM   12  C   UNL     1      -7.634   0.871 -33.773  1.00  0.00     0.222 C 
HETATM   13  O   UNL     1      -7.537   1.065 -32.564  1.00  0.00    -0.273 OA
HETATM   14  H   UNL     1      -8.544   1.226 -35.572  1.00  0.00     0.169 HD
BRANCH  12  15
HETATM   15  C   UNL     1      -6.575   0.025 -34.472  1.00  0.00     0.112 C 
BRANCH  15  16
HETATM   16  C   UNL     1      -5.719  -0.917 -33.610  1.00  0.00     0.023 C 
HETATM   17  C   UNL     1      -4.291  -0.365 -33.505  1.00  0.00     0.015 C 
BRANCH  16  18
HETATM   18  C   UNL     1      -5.671  -2.359 -34.081  1.00  0.00    -0.054 A 
HETATM   19  C   UNL     1      -6.774  -2.986 -34.678  1.00  0.00     0.007 A 
HETATM   20  C   UNL     1      -6.689  -4.310 -35.114  1.00  0.00     0.001 A 
HETATM   21  C   UNL     1      -5.501  -5.023 -34.967  1.00  0.00     0.000 A 
HETATM   22  C   UNL     1      -4.394  -4.411 -34.387  1.00  0.00     0.001 A 
HETATM   23  C   UNL     1      -4.476  -3.088 -33.950  1.00  0.00     0.007 A 
ENDBRANCH  16  18
ENDBRANCH  15  16
ENDBRANCH  12  15
ENDBRANCH   1  11
BRANCH   8  24
HETATM   24  C   UNL     1     -14.391   0.566 -34.016  1.00  0.00     0.270 C 
HETATM   25  N   UNL     1     -13.900  -0.558 -33.410  1.00  0.00    -0.365 N 
HETATM   26  H   UNL     1     -13.111  -0.464 -32.781  1.00  0.00     0.159 HD
HETATM   27  H   UNL     1     -14.339  -1.448 -33.581  1.00  0.00     0.159 HD
HETATM   28  O   UNL     1     -15.356   0.508 -34.770  1.00  0.00    -0.266 OA
ENDBRANCH   8  24
TORSDOF 5
ENDMDL
MODEL 3
REMARK VINA RESULT:      -8.3      2.154      2.583
REMARK  5 active torsions:
REMARK  status: ('A' for Active; 'I' for Inactive)
REMARK    1  A    between atoms: C_2  and  C_3 
REMARK    2  A    between atoms: C_2  and  C_9 
REMARK    3  A    between atoms: C_9  and  C_10 
REMARK       I    between atoms: C_10  and  N_11 
REMARK    4  A    between atoms: N_11  and  C_12 
REMARK    5  A    between atoms: C_19  and  C_20 
REMARK       I    between atoms: C_20  and  N_21 
ROOT
HETATM    1  C   UNL     1      -5.210   2.818 -31.706  1.00  0.00     0.035 A 
HETATM    2  C   UNL     1      -4.534   3.649 -32.610  1.00  0.00     0.046 A 
HETATM    3  C   UNL     1      -4.194   4.966 -32.227  1.00  0.00     0.030 A 
HETATM    4  C   UNL     1      -4.546   5.407 -30.957  1.00  0.00     0.063 A 
HETATM    5  N   UNL     1      -4.104   6.699 -30.887  1.00  0.00    -0.277 N 
HETATM    6  H   UNL     1      -4.195   7.336 -30.104  1.00  0.00     0.189 HD
HETATM    7  N   UNL     1      -3.481   7.136 -31.993  1.00  0.00    -0.168 NA
HETATM    8  C   UNL     1      -3.522   6.073 -32.830  1.00  0.00     0.156 A 
HETATM    9  C   UNL     1      -5.211   4.605 -30.030  1.00  0.00     0.034 A 
HETATM   10  C   UNL     1      -5.528   3.300 -30.429  1.00  0.00     0.032 A 
ENDROOT
BRANCH   1  11
HETATM   11  N   UNL     1      -5.571   1.482 -31.992  1.00  0.00    -0.327 N 
HETATM   12  C   UNL     1      -6.839   0.994 -32.236  1.00  0.00     0.222 C 
HETATM   13  O   UNL     1      -7.880   1.642 -32.174  1.00  0.00    -0.273 OA
HETATM   14  H   UNL     1      -4.830   0.804 -31.891  1.00  0.00     0.169 HD
BRANCH  12  15
HETATM   15  C   UNL     1      -6.897  -0.453 -32.712  1.00  0.00     0.112 C 
BRANCH  15  16
HETATM   16  C   UNL     1      -6.255  -0.795 -34.066  1.00  0.00     0.023 C 
HETATM   17  C   UNL     1      -7.180  -0.346 -35.205  1.00  0.00     0.015 C 
BRANCH  16  18
HETATM   18  C   UNL     1      -5.888  -2.256 -34.257  1.00  0.00    -0.054 A 
HETATM   19  C   UNL     1      -6.813  -3.202 -34.721  1.00  0.00     0.007 A 
HETATM   20  C   UNL     1      -6.437  -4.535 -34.900  1.00  0.00     0.001 A 
HETATM   21  C   UNL     1      -5.132  -4.939 -34.628  1.00  0.00     0.000 A 
HETATM   22  C   UNL     1      -4.199  -4.009 -34.178  1.00  0.00     0.001 A 
HETATM   23  C   UNL     1      -4.573  -2.676 -33.998  1.00  0.00     0.007 A 
ENDBRANCH  16  18
ENDBRANCH  15  16
ENDBRANCH  12  15
ENDBRANCH   1  11
BRANCH   8  24
HETATM   24  C   UNL     1      -2.920   6.137 -34.169  1.00  0.00     0.270 C 
HETATM   25  N   UNL     1      -1.626   6.581 -34.178  1.00  0.00    -0.365 N 
HETATM   26  H   UNL     1      -1.187   6.817 -33.295  1.00  0.00     0.159 HD
HETATM   27  H   UNL     1      -1.127   6.647 -35.051  1.00  0.00     0.159 HD
HETATM   28  O   UNL     1      -3.487   5.821 -35.209  1.00  0.00    -0.266 OA
ENDBRANCH   8  24
TORSDOF 5
ENDMDL
MODEL 4
REMARK VINA RESULT:      -8.3      1.640      1.797
REMARK  5 active torsions:
REMARK  status: ('A' for Active; 'I' for Inactive)
REMARK    1  A    between atoms: C_2  and  C_3 
REMARK    2  A    between atoms: C_2  and  C_9 
REMARK    3  A    between atoms: C_9  and  C_10 
REMARK       I    between atoms: C_10  and  N_11 
REMARK    4  A    between atoms: N_11  and  C_12 
REMARK    5  A    between atoms: C_19  and  C_20 
REMARK       I    between atoms: C_20  and  N_21 
ROOT
HETATM    1  C   UNL     1      -2.966   3.613 -32.396  1.00  0.00     0.035 A 
HETATM    2  C   UNL     1      -2.434   4.273 -31.280  1.00  0.00     0.046 A 
HETATM    3  C   UNL     1      -1.544   5.354 -31.467  1.00  0.00     0.030 A 
HETATM    4  C   UNL     1      -1.212   5.733 -32.763  1.00  0.00     0.063 A 
HETATM    5  N   UNL     1      -0.340   6.776 -32.622  1.00  0.00    -0.277 N 
HETATM    6  H   UNL     1       0.114   7.299 -33.363  1.00  0.00     0.189 HD
HETATM    7  N   UNL     1      -0.083   7.122 -31.351  1.00  0.00    -0.168 NA
HETATM    8  C   UNL     1      -0.826   6.255 -30.623  1.00  0.00     0.156 A 
HETATM    9  C   UNL     1      -1.729   5.105 -33.895  1.00  0.00     0.034 A 
HETATM   10  C   UNL     1      -2.618   4.042 -33.684  1.00  0.00     0.032 A 
ENDROOT
BRANCH   1  11
HETATM   11  N   UNL     1      -3.879   2.538 -32.307  1.00  0.00    -0.327 N 
HETATM   12  C   UNL     1      -3.690   1.333 -31.661  1.00  0.00     0.222 C 
HETATM   13  O   UNL     1      -2.653   0.971 -31.110  1.00  0.00    -0.273 OA
HETATM   14  H   UNL     1      -4.708   2.628 -32.876  1.00  0.00     0.169 HD
BRANCH  12  15
HETATM   15  C   UNL     1      -4.926   0.446 -31.565  1.00  0.00     0.112 C 
BRANCH  15  16
HETATM   16  C   UNL     1      -5.824   0.323 -32.807  1.00  0.00     0.023 C 
HETATM   17  C   UNL     1      -7.276   0.643 -32.429  1.00  0.00     0.015 C 
BRANCH  16  18
HETATM   18  C   UNL     1      -5.769  -1.021 -33.512  1.00  0.00    -0.054 A 
HETATM   19  C   UNL     1      -6.924  -1.666 -33.980  1.00  0.00     0.007 A 
HETATM   20  C   UNL     1      -6.834  -2.894 -34.639  1.00  0.00     0.001 A 
HETATM   21  C   UNL     1      -5.593  -3.490 -34.847  1.00  0.00     0.000 A 
HETATM   22  C   UNL     1      -4.437  -2.857 -34.399  1.00  0.00     0.001 A 
HETATM   23  C   UNL     1      -4.524  -1.630 -33.739  1.00  0.00     0.007 A 
ENDBRANCH  16  18
ENDBRANCH  15  16
ENDBRANCH  12  15
ENDBRANCH   1  11
BRANCH   8  24
HETATM   24  C   UNL     1      -0.838   6.313 -29.155  1.00  0.00     0.270 C 
HETATM   25  N   UNL     1       0.102   5.518 -28.558  1.00  0.00    -0.365 N 
HETATM   26  H   UNL     1       0.723   4.974 -29.146  1.00  0.00     0.159 HD
HETATM   27  H   UNL     1       0.175   5.501 -27.553  1.00  0.00     0.159 HD
HETATM   28  O   UNL     1      -1.599   7.005 -28.487  1.00  0.00    -0.266 OA
ENDBRANCH   8  24
TORSDOF 5
ENDMDL
MODEL 5
REMARK VINA RESULT:      -8.1      2.317      3.142
REMARK  5 active torsions:
REMARK  status: ('A' for Active; 'I' for Inactive)
REMARK    1  A    between atoms: C_2  and  C_3 
REMARK    2  A    between atoms: C_2  and  C_9 
REMARK    3  A    between atoms: C_9  and  C_10 
REMARK       I    between atoms: C_10  and  N_11 
REMARK    4  A    between atoms: N_11  and  C_12 
REMARK    5  A    between atoms: C_19  and  C_20 
REMARK       I    between atoms: C_20  and  N_21 
ROOT
HETATM    1  C   UNL     1      -3.257   4.319 -31.565  1.00  0.00     0.035 A 
HETATM    2  C   UNL     1      -3.464   5.652 -31.185  1.00  0.00     0.046 A 
HETATM    3  C   UNL     1      -2.747   6.682 -31.833  1.00  0.00     0.030 A 
HETATM    4  C   UNL     1      -1.843   6.343 -32.833  1.00  0.00     0.063 A 
HETATM    5  N   UNL     1      -1.305   7.528 -33.251  1.00  0.00    -0.277 N 
HETATM    6  H   UNL     1      -0.602   7.662 -33.969  1.00  0.00     0.189 HD
HETATM    7  N   UNL     1      -1.788   8.612 -32.624  1.00  0.00    -0.168 NA
HETATM    8  C   UNL     1      -2.686   8.106 -31.747  1.00  0.00     0.156 A 
HETATM    9  C   UNL     1      -1.618   5.028 -33.241  1.00  0.00     0.034 A 
HETATM   10  C   UNL     1      -2.349   4.026 -32.591  1.00  0.00     0.032 A 
ENDROOT
BRANCH   1  11
HETATM   11  N   UNL     1      -3.944   3.226 -30.990  1.00  0.00    -0.327 N 
HETATM   12  C   UNL     1      -4.890   2.422 -31.594  1.00  0.00     0.222 C 
HETATM   13  O   UNL     1      -5.343   2.576 -32.725  1.00  0.00    -0.273 OA
HETATM   14  H   UNL     1      -3.802   3.101 -29.998  1.00  0.00     0.169 HD
BRANCH  12  15
HETATM   15  C   UNL     1      -5.311   1.197 -30.789  1.00  0.00     0.112 C 
BRANCH  15  16
HETATM   16  C   UNL     1      -4.653  -0.150 -31.129  1.00  0.00     0.023 C 
HETATM   17  C   UNL     1      -3.137   0.035 -31.269  1.00  0.00     0.015 C 
BRANCH  16  18
HETATM   18  C   UNL     1      -5.195  -0.839 -32.369  1.00  0.00    -0.054 A 
HETATM   19  C   UNL     1      -4.386  -1.633 -33.195  1.00  0.00     0.007 A 
HETATM   20  C   UNL     1      -4.922  -2.265 -34.320  1.00  0.00     0.001 A 
HETATM   21  C   UNL     1      -6.273  -2.121 -34.628  1.00  0.00     0.000 A 
HETATM   22  C   UNL     1      -7.091  -1.346 -33.811  1.00  0.00     0.001 A 
HETATM   23  C   UNL     1      -6.558  -0.712 -32.688  1.00  0.00     0.007 A 
ENDBRANCH  16  18
ENDBRANCH  15  16
ENDBRANCH  12  15
ENDBRANCH   1  11
BRANCH   8  24
HETATM   24  C   UNL     1      -3.463   8.986 -30.863  1.00  0.00     0.270 C 
HETATM   25  N   UNL     1      -3.317   8.709 -29.531  1.00  0.00    -0.365 N 
HETATM   26  H   UNL     1      -2.701   7.952 -29.258  1.00  0.00     0.159 HD
HETATM   27  H   UNL     1      -3.804   9.268 -28.849  1.00  0.00     0.159 HD
HETATM   28  O   UNL     1      -4.182   9.904 -31.243  1.00  0.00    -0.266 OA
ENDBRANCH   8  24
TORSDOF 5
ENDMDL
MODEL 6
REMARK VINA RESULT:      -7.9      4.883      7.788
REMARK  5 active torsions:
REMARK  status: ('A' for Active; 'I' for Inactive)
REMARK    1  A    between atoms: C_2  and  C_3 
REMARK    2  A    between atoms: C_2  and  C_9 
REMARK    3  A    between atoms: C_9  and  C_10 
REMARK       I    between atoms: C_10  and  N_11 
REMARK    4  A    between atoms: N_11  and  C_12 
REMARK    5  A    between atoms: C_19  and  C_20 
REMARK       I    between atoms: C_20  and  N_21 
ROOT
HETATM    1  C   UNL     1      -8.756   2.153 -32.853  1.00  0.00     0.035 A 
HETATM    2  C   UNL     1      -9.915   1.751 -33.530  1.00  0.00     0.046 A 
HETATM    3  C   UNL     1     -11.169   2.263 -33.130  1.00  0.00     0.030 A 
HETATM    4  C   UNL     1     -11.221   3.153 -32.064  1.00  0.00     0.063 A 
HETATM    5  N   UNL     1     -12.546   3.455 -31.908  1.00  0.00    -0.277 N 
HETATM    6  H   UNL     1     -12.957   4.073 -31.218  1.00  0.00     0.189 HD
HETATM    7  N   UNL     1     -13.362   2.852 -32.787  1.00  0.00    -0.168 NA
HETATM    8  C   UNL     1     -12.525   2.116 -33.555  1.00  0.00     0.156 A 
HETATM    9  C   UNL     1     -10.087   3.580 -31.373  1.00  0.00     0.034 A 
HETATM   10  C   UNL     1      -8.854   3.067 -31.795  1.00  0.00     0.032 A 
ENDROOT
BRANCH   1  11
HETATM   11  N   UNL     1      -7.457   1.711 -33.195  1.00  0.00    -0.327 N 
HETATM   12  C   UNL     1      -6.726   0.714 -32.582  1.00  0.00     0.222 C 
HETATM   13  O   UNL     1      -7.065   0.089 -31.581  1.00  0.00    -0.273 OA
HETATM   14  H   UNL     1      -6.982   2.269 -33.889  1.00  0.00     0.169 HD
BRANCH  12  15
HETATM   15  C   UNL     1      -5.436   0.322 -33.296  1.00  0.00     0.112 C 
BRANCH  15  16
HETATM   16  C   UNL     1      -5.462  -0.920 -34.202  1.00  0.00     0.023 C 
HETATM   17  C   UNL     1      -6.913  -1.353 -34.445  1.00  0.00     0.015 C 
BRANCH  16  18
HETATM   18  C   UNL     1      -4.658  -2.105 -33.697  1.00  0.00    -0.054 A 
HETATM   19  C   UNL     1      -3.904  -2.046 -32.515  1.00  0.00     0.007 A 
HETATM   20  C   UNL     1      -3.189  -3.161 -32.072  1.00  0.00     0.001 A 
HETATM   21  C   UNL     1      -3.225  -4.350 -32.796  1.00  0.00     0.000 A 
HETATM   22  C   UNL     1      -3.977  -4.428 -33.964  1.00  0.00     0.001 A 
HETATM   23  C   UNL     1      -4.692  -3.315 -34.410  1.00  0.00     0.007 A 
ENDBRANCH  16  18
ENDBRANCH  15  16
ENDBRANCH  12  15
ENDBRANCH   1  11
BRANCH   8  24
HETATM   24  C   UNL     1     -13.034   1.304 -34.669  1.00  0.00     0.270 C 
HETATM   25  N   UNL     1     -13.777   0.223 -34.278  1.00  0.00    -0.365 N 
HETATM   26  H   UNL     1     -13.927   0.070 -33.288  1.00  0.00     0.159 HD
HETATM   27  H   UNL     1     -14.176  -0.386 -34.975  1.00  0.00     0.159 HD
HETATM   28  O   UNL     1     -12.840   1.543 -35.856  1.00  0.00    -0.266 OA
ENDBRANCH   8  24
TORSDOF 5
ENDMDL
MODEL 7
REMARK VINA RESULT:      -7.9      2.104      2.830
REMARK  5 active torsions:
REMARK  status: ('A' for Active; 'I' for Inactive)
REMARK    1  A    between atoms: C_2  and  C_3 
REMARK    2  A    between atoms: C_2  and  C_9 
REMARK    3  A    between atoms: C_9  and  C_10 
REMARK       I    between atoms: C_10  and  N_11 
REMARK    4  A    between atoms: N_11  and  C_12 
REMARK    5  A    between atoms: C_19  and  C_20 
REMARK       I    between atoms: C_20  and  N_21 
ROOT
HETATM    1  C   UNL     1      -3.055   3.340 -32.232  1.00  0.00     0.035 A 
HETATM    2  C   UNL     1      -2.471   4.084 -31.197  1.00  0.00     0.046 A 
HETATM    3  C   UNL     1      -1.655   5.193 -31.510  1.00  0.00     0.030 A 
HETATM    4  C   UNL     1      -1.445   5.516 -32.845  1.00  0.00     0.063 A 
HETATM    5  N   UNL     1      -0.619   6.605 -32.829  1.00  0.00    -0.277 N 
HETATM    6  H   UNL     1      -0.251   7.108 -33.629  1.00  0.00     0.189 HD
HETATM    7  N   UNL     1      -0.281   7.031 -31.602  1.00  0.00    -0.168 NA
HETATM    8  C   UNL     1      -0.920   6.172 -30.773  1.00  0.00     0.156 A 
HETATM    9  C   UNL     1      -2.017   4.804 -33.900  1.00  0.00     0.034 A 
HETATM   10  C   UNL     1      -2.831   3.714 -33.564  1.00  0.00     0.032 A 
ENDROOT
BRANCH   1  11
HETATM   11  N   UNL     1      -3.903   2.230 -32.015  1.00  0.00    -0.327 N 
HETATM   12  C   UNL     1      -3.577   1.038 -31.400  1.00  0.00     0.222 C 
HETATM   13  O   UNL     1      -2.460   0.722 -30.997  1.00  0.00    -0.273 OA
HETATM   14  H   UNL     1      -4.805   2.283 -32.464  1.00  0.00     0.169 HD
BRANCH  12  15
HETATM   15  C   UNL     1      -4.751   0.104 -31.131  1.00  0.00     0.112 C 
BRANCH  15  16
HETATM   16  C   UNL     1      -5.194  -0.842 -32.260  1.00  0.00     0.023 C 
HETATM   17  C   UNL     1      -4.014  -1.109 -33.203  1.00  0.00     0.015 C 
BRANCH  16  18
HETATM   18  C   UNL     1      -6.390  -0.369 -33.067  1.00  0.00    -0.054 A 
HETATM   19  C   UNL     1      -7.543   0.148 -32.459  1.00  0.00     0.007 A 
HETATM   20  C   UNL     1      -8.618   0.589 -33.234  1.00  0.00     0.001 A 
HETATM   21  C   UNL     1      -8.553   0.528 -34.624  1.00  0.00     0.000 A 
HETATM   22  C   UNL     1      -7.411   0.028 -35.243  1.00  0.00     0.001 A 
HETATM   23  C   UNL     1      -6.335  -0.414 -34.471  1.00  0.00     0.007 A 
ENDBRANCH  16  18
ENDBRANCH  15  16
ENDBRANCH  12  15
ENDBRANCH   1  11
BRANCH   8  24
HETATM   24  C   UNL     1      -0.820   6.308 -29.314  1.00  0.00     0.270 C 
HETATM   25  N   UNL     1       0.082   5.458 -28.734  1.00  0.00    -0.365 N 
HETATM   26  H   UNL     1       0.605   4.826 -29.329  1.00  0.00     0.159 HD
HETATM   27  H   UNL     1       0.226   5.488 -27.737  1.00  0.00     0.159 HD
HETATM   28  O   UNL     1      -1.462   7.105 -28.638  1.00  0.00    -0.266 OA
ENDBRANCH   8  24
TORSDOF 5
ENDMDL
MODEL 8
REMARK VINA RESULT:      -7.8      3.277      7.406
REMARK  5 active torsions:
REMARK  status: ('A' for Active; 'I' for Inactive)
REMARK    1  A    between atoms: C_2  and  C_3 
REMARK    2  A    between atoms: C_2  and  C_9 
REMARK    3  A    between atoms: C_9  and  C_10 
REMARK       I    between atoms: C_10  and  N_11 
REMARK    4  A    between atoms: N_11  and  C_12 
REMARK    5  A    between atoms: C_19  and  C_20 
REMARK       I    between atoms: C_20  and  N_21 
ROOT
HETATM    1  C   UNL     1      -6.177   1.003 -33.861  1.00  0.00     0.035 A 
HETATM    2  C   UNL     1      -5.175   0.274 -33.205  1.00  0.00     0.046 A 
HETATM    3  C   UNL     1      -4.994  -1.093 -33.511  1.00  0.00     0.030 A 
HETATM    4  C   UNL     1      -5.825  -1.686 -34.453  1.00  0.00     0.063 A 
HETATM    5  N   UNL     1      -5.423  -2.991 -34.520  1.00  0.00    -0.277 N 
HETATM    6  H   UNL     1      -5.813  -3.723 -35.103  1.00  0.00     0.189 HD
HETATM    7  N   UNL     1      -4.394  -3.300 -33.716  1.00  0.00    -0.168 NA
HETATM    8  C   UNL     1      -4.112  -2.135 -33.088  1.00  0.00     0.156 A 
HETATM    9  C   UNL     1      -6.826  -0.990 -35.130  1.00  0.00     0.034 A 
HETATM   10  C   UNL     1      -6.979   0.368 -34.819  1.00  0.00     0.032 A 
ENDROOT
BRANCH   1  11
HETATM   11  N   UNL     1      -6.418   2.377 -33.638  1.00  0.00    -0.327 N 
HETATM   12  C   UNL     1      -6.806   2.976 -32.456  1.00  0.00     0.222 C 
HETATM   13  O   UNL     1      -7.077   2.391 -31.411  1.00  0.00    -0.273 OA
HETATM   14  H   UNL     1      -6.412   2.956 -34.465  1.00  0.00     0.169 HD
BRANCH  12  15
HETATM   15  C   UNL     1      -6.795   4.501 -32.467  1.00  0.00     0.112 C 
BRANCH  15  16
HETATM   16  C   UNL     1      -5.550   5.217 -31.917  1.00  0.00     0.023 C 
HETATM   17  C   UNL     1      -5.874   6.695 -31.662  1.00  0.00     0.015 C 
BRANCH  16  18
HETATM   18  C   UNL     1      -4.309   5.114 -32.786  1.00  0.00    -0.054 A 
HETATM   19  C   UNL     1      -3.079   4.668 -32.280  1.00  0.00     0.007 A 
HETATM   20  C   UNL     1      -1.962   4.571 -33.112  1.00  0.00     0.001 A 
HETATM   21  C   UNL     1      -2.059   4.908 -34.460  1.00  0.00     0.000 A 
HETATM   22  C   UNL     1      -3.275   5.341 -34.979  1.00  0.00     0.001 A 
HETATM   23  C   UNL     1      -4.394   5.440 -34.150  1.00  0.00     0.007 A 
ENDBRANCH  16  18
ENDBRANCH  15  16
ENDBRANCH  12  15
ENDBRANCH   1  11
BRANCH   8  24
HETATM   24  C   UNL     1      -3.014  -2.042 -32.116  1.00  0.00     0.270 C 
HETATM   25  N   UNL     1      -2.726  -3.222 -31.486  1.00  0.00    -0.365 N 
HETATM   26  H   UNL     1      -3.261  -4.047 -31.731  1.00  0.00     0.159 HD
HETATM   27  H   UNL     1      -1.979  -3.257 -30.810  1.00  0.00     0.159 HD
HETATM   28  O   UNL     1      -2.381  -1.021 -31.868  1.00  0.00    -0.266 OA
ENDBRANCH   8  24
TORSDOF 5
ENDMDL
MODEL 9
REMARK VINA RESULT:      -7.8      5.374      8.879
REMARK  5 active torsions:
REMARK  status: ('A' for Active; 'I' for Inactive)
REMARK    1  A    between atoms: C_2  and  C_3 
REMARK    2  A    between atoms: C_2  and  C_9 
REMARK    3  A    between atoms: C_9  and  C_10 
REMARK       I    between atoms: C_10  and  N_11 
REMARK    4  A    between atoms: N_11  and  C_12 
REMARK    5  A    between atoms: C_19  and  C_20 
REMARK       I    between atoms: C_20  and  N_21 
ROOT
HETATM    1  C   UNL     1      -7.099   0.050 -34.283  1.00  0.00     0.035 A 
HETATM    2  C   UNL     1      -6.985  -1.316 -34.579  1.00  0.00     0.046 A 
HETATM    3  C   UNL     1      -5.809  -2.011 -34.218  1.00  0.00     0.030 A 
HETATM    4  C   UNL     1      -4.787  -1.317 -33.582  1.00  0.00     0.063 A 
HETATM    5  N   UNL     1      -3.797  -2.237 -33.378  1.00  0.00    -0.277 N 
HETATM    6  H   UNL     1      -2.895  -2.081 -32.942  1.00  0.00     0.189 HD
HETATM    7  N   UNL     1      -4.087  -3.475 -33.811  1.00  0.00    -0.168 NA
HETATM    8  C   UNL     1      -5.332  -3.353 -34.328  1.00  0.00     0.156 A 
HETATM    9  C   UNL     1      -4.870   0.039 -33.266  1.00  0.00     0.034 A 
HETATM   10  C   UNL     1      -6.050   0.705 -33.624  1.00  0.00     0.032 A 
ENDROOT
BRANCH   1  11
HETATM   11  N   UNL     1      -8.243   0.822 -34.585  1.00  0.00    -0.327 N 
HETATM   12  C   UNL     1      -9.453   0.817 -33.921  1.00  0.00     0.222 C 
HETATM   13  O   UNL     1      -9.755   0.077 -32.989  1.00  0.00    -0.273 OA
HETATM   14  H   UNL     1      -8.195   1.344 -35.448  1.00  0.00     0.169 HD
BRANCH  12  15
HETATM   15  C   UNL     1     -10.435   1.902 -34.350  1.00  0.00     0.112 C 
BRANCH  15  16
HETATM   16  C   UNL     1     -11.937   1.577 -34.300  1.00  0.00     0.023 C 
HETATM   17  C   UNL     1     -12.563   1.811 -35.680  1.00  0.00     0.015 C 
BRANCH  16  18
HETATM   18  C   UNL     1     -12.727   2.338 -33.250  1.00  0.00    -0.054 A 
HETATM   19  C   UNL     1     -12.182   3.422 -32.546  1.00  0.00     0.007 A 
HETATM   20  C   UNL     1     -12.943   4.108 -31.598  1.00  0.00     0.001 A 
HETATM   21  C   UNL     1     -14.260   3.730 -31.347  1.00  0.00     0.000 A 
HETATM   22  C   UNL     1     -14.819   2.664 -32.046  1.00  0.00     0.001 A 
HETATM   23  C   UNL     1     -14.060   1.975 -32.993  1.00  0.00     0.007 A 
ENDBRANCH  16  18
ENDBRANCH  15  16
ENDBRANCH  12  15
ENDBRANCH   1  11
BRANCH   8  24
HETATM   24  C   UNL     1      -6.032  -4.511 -34.901  1.00  0.00     0.270 C 
HETATM   25  N   UNL     1      -7.363  -4.570 -34.589  1.00  0.00    -0.365 N 
HETATM   26  H   UNL     1      -7.759  -3.835 -34.014  1.00  0.00     0.159 HD
HETATM   27  H   UNL     1      -7.926  -5.324 -34.947  1.00  0.00     0.159 HD
HETATM   28  O   UNL     1      -5.510  -5.366 -35.609  1.00  0.00    -0.266 OA
ENDBRANCH   8  24
TORSDOF 5
ENDMDL
MODEL 10
REMARK VINA RESULT:      -7.6      2.760      8.614
REMARK  5 active torsions:
REMARK  status: ('A' for Active; 'I' for Inactive)
REMARK    1  A    between atoms: C_2  and  C_3 
REMARK    2  A    between atoms: C_2  and  C_9 
REMARK    3  A    between atoms: C_9  and  C_10 
REMARK       I    between atoms: C_10  and  N_11 
REMARK    4  A    between atoms: N_11  and  C_12 
REMARK    5  A    between atoms: C_19  and  C_20 
REMARK       I    between atoms: C_20  and  N_21 
ROOT
HETATM    1  C   UNL     1      -3.713   2.932 -32.148  1.00  0.00     0.035 A 
HETATM    2  C   UNL     1      -3.550   1.545 -32.266  1.00  0.00     0.046 A 
HETATM    3  C   UNL     1      -4.687   0.719 -32.409  1.00  0.00     0.030 A 
HETATM    4  C   UNL     1      -5.946   1.307 -32.422  1.00  0.00     0.063 A 
HETATM    5  N   UNL     1      -6.827   0.271 -32.557  1.00  0.00    -0.277 N 
HETATM    6  H   UNL     1      -7.839   0.328 -32.598  1.00  0.00     0.189 HD
HETATM    7  N   UNL     1      -6.256  -0.941 -32.647  1.00  0.00    -0.168 NA
HETATM    8  C   UNL     1      -4.930  -0.680 -32.563  1.00  0.00     0.156 A 
HETATM    9  C   UNL     1      -6.144   2.683 -32.316  1.00  0.00     0.034 A 
HETATM   10  C   UNL     1      -5.001   3.483 -32.186  1.00  0.00     0.032 A 
ENDROOT
BRANCH   1  11
HETATM   11  N   UNL     1      -2.636   3.839 -32.023  1.00  0.00    -0.327 N 
HETATM   12  C   UNL     1      -1.995   4.519 -33.039  1.00  0.00     0.222 C 
HETATM   13  O   UNL     1      -2.218   4.390 -34.240  1.00  0.00    -0.273 OA
HETATM   14  H   UNL     1      -2.227   3.898 -31.102  1.00  0.00     0.169 HD
BRANCH  12  15
HETATM   15  C   UNL     1      -0.999   5.580 -32.583  1.00  0.00     0.112 C 
BRANCH  15  16
HETATM   16  C   UNL     1      -1.475   6.624 -31.559  1.00  0.00     0.023 C 
HETATM   17  C   UNL     1      -1.501   8.013 -32.211  1.00  0.00     0.015 C 
BRANCH  16  18
HETATM   18  C   UNL     1      -0.669   6.683 -30.274  1.00  0.00    -0.054 A 
HETATM   19  C   UNL     1      -0.003   5.561 -29.759  1.00  0.00     0.007 A 
HETATM   20  C   UNL     1       0.742   5.656 -28.582  1.00  0.00     0.001 A 
HETATM   21  C   UNL     1       0.841   6.872 -27.909  1.00  0.00     0.000 A 
HETATM   22  C   UNL     1       0.195   7.996 -28.414  1.00  0.00     0.001 A 
HETATM   23  C   UNL     1      -0.552   7.905 -29.590  1.00  0.00     0.007 A 
ENDBRANCH  16  18
ENDBRANCH  15  16
ENDBRANCH  12  15
ENDBRANCH   1  11
BRANCH   8  24
HETATM   24  C   UNL     1      -3.938  -1.761 -32.640  1.00  0.00     0.270 C 
HETATM   25  N   UNL     1      -3.024  -1.753 -31.622  1.00  0.00    -0.365 N 
HETATM   26  H   UNL     1      -3.098  -1.037 -30.909  1.00  0.00     0.159 HD
HETATM   27  H   UNL     1      -2.311  -2.464 -31.586  1.00  0.00     0.159 HD
HETATM   28  O   UNL     1      -3.902  -2.619 -33.516  1.00  0.00    -0.266 OA
ENDBRANCH   8  24
TORSDOF 5
ENDMDL
