MODEL 1
REMARK VINA RESULT:      -8.9      0.000      0.000
REMARK  7 active torsions:
REMARK  status: ('A' for Active; 'I' for Inactive)
REMARK       I    between atoms: C_2  and  N_3 
REMARK    1  A    between atoms: N_3  and  C_4 
REMARK    2  A    between atoms: C_7  and  N_8 
REMARK       I    between atoms: N_8  and  C_9 
REMARK    3  A    between atoms: C_9  and  C_10 
REMARK       I    between atoms: C_10  and  N_11 
REMARK    4  A    between atoms: N_11  and  C_12 
REMARK    5  A    between atoms: C_12  and  C_13 
REMARK    6  A    between atoms: C_13  and  O_14 
REMARK    7  A    between atoms: C_13  and  C_15 
ROOT
HETATM    1  C   UNL     1      -4.005   5.202 -34.440  1.00  0.00     0.309 C 
HETATM    2  N   UNL     1      -4.765   4.463 -33.575  1.00  0.00    -0.350 N 
HETATM    3  O   UNL     1      -4.136   5.261 -35.656  1.00  0.00    -0.262 OA
HETATM    4  H   UNL     1      -4.628   4.629 -32.581  1.00  0.00     0.163 HD
ENDROOT
BRANCH   1   5
HETATM    5  C   UNL     1      -2.895   6.020 -33.741  1.00  0.00     0.313 C 
HETATM    6  N   UNL     1      -2.541   5.476 -32.524  1.00  0.00    -0.319 N 
HETATM    7  H   UNL     1      -3.021   4.608 -32.298  1.00  0.00     0.169 HD
HETATM    8  O   UNL     1      -2.453   7.015 -34.301  1.00  0.00    -0.262 OA
BRANCH   6   9
HETATM    9  C   UNL     1      -1.644   6.002 -31.579  1.00  0.00     0.035 A 
HETATM   10  C   UNL     1      -0.272   5.757 -31.591  1.00  0.00     0.032 A 
HETATM   11  C   UNL     1       0.571   6.358 -30.647  1.00  0.00     0.032 A 
HETATM   12  C   UNL     1       0.055   7.206 -29.668  1.00  0.00     0.034 A 
HETATM   13  C   UNL     1      -1.325   7.432 -29.640  1.00  0.00     0.032 A 
HETATM   14  C   UNL     1      -2.167   6.841 -30.591  1.00  0.00     0.032 A 
BRANCH  12  15
HETATM   15  N   UNL     1       0.839   7.866 -28.699  1.00  0.00    -0.328 N 
HETATM   16  C   UNL     1       0.952   7.556 -27.356  1.00  0.00     0.218 C 
HETATM   17  C   UNL     1       1.915   8.468 -26.635  1.00  0.00     0.117 C 
HETATM   18  O   UNL     1       0.398   6.640 -26.760  1.00  0.00    -0.274 OA
HETATM   19  H   UNL     1       1.409   8.629 -29.040  1.00  0.00     0.169 HD
ENDBRANCH  12  15
ENDBRANCH   6   9
ENDBRANCH   1   5
BRANCH   2  20
HETATM   20  C   UNL     1      -5.872   3.620 -33.988  1.00  0.00     0.159 C 
BRANCH  20  21
HETATM   21  C   UNL     1      -6.297   2.608 -32.904  1.00  0.00     0.171 C 
BRANCH  21  22
HETATM   22  O   UNL     1      -6.232   3.251 -31.622  1.00  0.00    -0.389 OA
HETATM   23  H   UNL     1      -6.181   4.205 -31.807  1.00  0.00     0.210 HD
ENDBRANCH  21  22
BRANCH  21  24
HETATM   24  C   UNL     1      -5.484   1.342 -32.899  1.00  0.00     0.000 A 
HETATM   25  C   UNL     1      -5.781   0.127 -33.603  1.00  0.00     0.001 A 
HETATM   26  C   UNL     1      -4.780  -0.802 -33.294  1.00  0.00     0.044 A 
HETATM   27  C   UNL     1      -6.821  -0.269 -34.472  1.00  0.00     0.014 A 
HETATM   28  C   UNL     1      -4.782  -2.103 -33.824  1.00  0.00     0.030 A 
HETATM   29  N   UNL     1      -3.904  -0.174 -32.436  1.00  0.00    -0.360 N 
HETATM   30  C   UNL     1      -5.828  -2.469 -34.675  1.00  0.00     0.002 A 
HETATM   31  C   UNL     1      -6.835  -1.566 -34.997  1.00  0.00     0.001 A 
HETATM   32  C   UNL     1      -2.705  -0.746 -31.864  1.00  0.00     0.155 C 
HETATM   33  C   UNL     1      -4.327   1.102 -32.178  1.00  0.00     0.101 A 
ENDBRANCH  21  24
ENDBRANCH  20  21
ENDBRANCH   2  20
TORSDOF 7
ENDMDL
MODEL 2
REMARK VINA RESULT:      -8.9      1.960      2.942
REMARK  7 active torsions:
REMARK  status: ('A' for Active; 'I' for Inactive)
REMARK       I    between atoms: C_2  and  N_3 
REMARK    1  A    between atoms: N_3  and  C_4 
REMARK    2  A    between atoms: C_7  and  N_8 
REMARK       I    between atoms: N_8  and  C_9 
REMARK    3  A    between atoms: C_9  and  C_10 
REMARK       I    between atoms: C_10  and  N_11 
REMARK    4  A    between atoms: N_11  and  C_12 
REMARK    5  A    between atoms: C_12  and  C_13 
REMARK    6  A    between atoms: C_13  and  O_14 
REMARK    7  A    between atoms: C_13  and  C_15 
ROOT
HETATM    1  C   UNL     1      -1.963   5.188 -31.637  1.00  0.00     0.309 C 
HETATM    2  N   UNL     1      -2.469   3.918 -31.673  1.00  0.00    -0.350 N 
HETATM    3  O   UNL     1      -2.319   6.134 -32.327  1.00  0.00    -0.262 OA
HETATM    4  H   UNL     1      -2.172   3.279 -30.941  1.00  0.00     0.163 HD
ENDROOT
BRANCH   1   5
HETATM    5  C   UNL     1      -0.836   5.372 -30.594  1.00  0.00     0.313 C 
HETATM    6  N   UNL     1      -1.180   6.284 -29.618  1.00  0.00    -0.319 N 
HETATM    7  H   UNL     1      -2.123   6.654 -29.704  1.00  0.00     0.169 HD
HETATM    8  O   UNL     1       0.196   4.727 -30.720  1.00  0.00    -0.262 OA
BRANCH   6   9
HETATM    9  C   UNL     1      -0.372   6.768 -28.575  1.00  0.00     0.035 A 
HETATM   10  C   UNL     1      -0.471   6.338 -27.253  1.00  0.00     0.032 A 
HETATM   11  C   UNL     1       0.404   6.826 -26.273  1.00  0.00     0.032 A 
HETATM   12  C   UNL     1       1.387   7.760 -26.598  1.00  0.00     0.034 A 
HETATM   13  C   UNL     1       1.471   8.211 -27.919  1.00  0.00     0.032 A 
HETATM   14  C   UNL     1       0.604   7.714 -28.901  1.00  0.00     0.032 A 
BRANCH  12  15
HETATM   15  N   UNL     1       2.318   8.280 -25.675  1.00  0.00    -0.328 N 
HETATM   16  C   UNL     1       2.244   9.481 -24.991  1.00  0.00     0.218 C 
HETATM   17  C   UNL     1       3.414   9.686 -24.061  1.00  0.00     0.117 C 
HETATM   18  O   UNL     1       1.345  10.312 -25.053  1.00  0.00    -0.274 OA
HETATM   19  H   UNL     1       3.111   7.687 -25.467  1.00  0.00     0.169 HD
ENDBRANCH  12  15
ENDBRANCH   6   9
ENDBRANCH   1   5
BRANCH   2  20
HETATM   20  C   UNL     1      -3.539   3.499 -32.561  1.00  0.00     0.159 C 
BRANCH  20  21
HETATM   21  C   UNL     1      -4.597   2.622 -31.860  1.00  0.00     0.171 C 
BRANCH  21  22
HETATM   22  O   UNL     1      -4.451   2.772 -30.439  1.00  0.00    -0.389 OA
HETATM   23  H   UNL     1      -5.226   2.334 -30.046  1.00  0.00     0.210 HD
ENDBRANCH  21  22
BRANCH  21  24
HETATM   24  C   UNL     1      -4.539   1.169 -32.245  1.00  0.00     0.000 A 
HETATM   25  C   UNL     1      -5.370   0.500 -33.205  1.00  0.00     0.001 A 
HETATM   26  C   UNL     1      -4.996  -0.849 -33.228  1.00  0.00     0.044 A 
HETATM   27  C   UNL     1      -6.416   0.922 -34.053  1.00  0.00     0.014 A 
HETATM   28  C   UNL     1      -5.626  -1.782 -34.068  1.00  0.00     0.030 A 
HETATM   29  N   UNL     1      -3.972  -0.995 -32.318  1.00  0.00    -0.360 N 
HETATM   30  C   UNL     1      -6.664  -1.337 -34.890  1.00  0.00     0.002 A 
HETATM   31  C   UNL     1      -7.055  -0.003 -34.886  1.00  0.00     0.001 A 
HETATM   32  C   UNL     1      -3.262  -2.218 -32.014  1.00  0.00     0.155 C 
HETATM   33  C   UNL     1      -3.705   0.203 -31.710  1.00  0.00     0.101 A 
ENDBRANCH  21  24
ENDBRANCH  20  21
ENDBRANCH   2  20
TORSDOF 7
ENDMDL
MODEL 3
REMARK VINA RESULT:      -8.6      2.521      3.992
REMARK  7 active torsions:
REMARK  status: ('A' for Active; 'I' for Inactive)
REMARK       I    between atoms: C_2  and  N_3 
REMARK    1  A    between atoms: N_3  and  C_4 
REMARK    2  A    between atoms: C_7  and  N_8 
REMARK       I    between atoms: N_8  and  C_9 
REMARK    3  A    between atoms: C_9  and  C_10 
REMARK       I    between atoms: C_10  and  N_11 
REMARK    4  A    between atoms: N_11  and  C_12 
REMARK    5  A    between atoms: C_12  and  C_13 
REMARK    6  A    between atoms: C_13  and  O_14 
REMARK    7  A    between atoms: C_13  and  C_15 
ROOT
HETATM    1  C   UNL     1      -8.800   3.303 -33.650  1.00  0.00     0.309 C 
HETATM    2  N   UNL     1      -8.444   2.072 -34.130  1.00  0.00    -0.350 N 
HETATM    3  O   UNL     1      -9.911   3.638 -33.260  1.00  0.00    -0.262 OA
HETATM    4  H   UNL     1      -7.453   1.902 -34.280  1.00  0.00     0.163 HD
ENDROOT
BRANCH   1   5
HETATM    5  C   UNL     1      -7.632   4.315 -33.625  1.00  0.00     0.313 C 
HETATM    6  N   UNL     1      -6.567   3.856 -32.878  1.00  0.00    -0.319 N 
HETATM    7  H   UNL     1      -6.691   2.919 -32.504  1.00  0.00     0.169 HD
HETATM    8  O   UNL     1      -7.750   5.368 -34.237  1.00  0.00    -0.262 OA
BRANCH   6   9
HETATM    9  C   UNL     1      -5.385   4.545 -32.558  1.00  0.00     0.035 A 
HETATM   10  C   UNL     1      -5.219   5.303 -31.399  1.00  0.00     0.032 A 
HETATM   11  C   UNL     1      -3.993   5.922 -31.118  1.00  0.00     0.032 A 
HETATM   12  C   UNL     1      -2.916   5.801 -31.995  1.00  0.00     0.034 A 
HETATM   13  C   UNL     1      -3.091   5.062 -33.169  1.00  0.00     0.032 A 
HETATM   14  C   UNL     1      -4.312   4.433 -33.445  1.00  0.00     0.032 A 
BRANCH  12  15
HETATM   15  N   UNL     1      -1.647   6.372 -31.771  1.00  0.00    -0.328 N 
HETATM   16  C   UNL     1      -0.547   5.775 -31.181  1.00  0.00     0.218 C 
HETATM   17  C   UNL     1       0.653   6.689 -31.143  1.00  0.00     0.117 C 
HETATM   18  O   UNL     1      -0.470   4.628 -30.754  1.00  0.00    -0.274 OA
HETATM   19  H   UNL     1      -1.521   7.315 -32.116  1.00  0.00     0.169 HD
ENDBRANCH  12  15
ENDBRANCH   6   9
ENDBRANCH   1   5
BRANCH   2  20
HETATM   20  C   UNL     1      -9.361   0.952 -34.244  1.00  0.00     0.159 C 
BRANCH  20  21
HETATM   21  C   UNL     1      -9.127  -0.131 -33.169  1.00  0.00     0.171 C 
BRANCH  21  22
HETATM   22  O   UNL     1      -9.905   0.197 -32.008  1.00  0.00    -0.389 OA
HETATM   23  H   UNL     1      -9.770  -0.536 -31.382  1.00  0.00     0.210 HD
ENDBRANCH  21  22
BRANCH  21  24
HETATM   24  C   UNL     1      -7.682  -0.322 -32.799  1.00  0.00     0.000 A 
HETATM   25  C   UNL     1      -6.731  -1.169 -33.459  1.00  0.00     0.001 A 
HETATM   26  C   UNL     1      -5.517  -1.067 -32.769  1.00  0.00     0.044 A 
HETATM   27  C   UNL     1      -6.796  -2.023 -34.582  1.00  0.00     0.014 A 
HETATM   28  C   UNL     1      -4.374  -1.783 -33.164  1.00  0.00     0.030 A 
HETATM   29  N   UNL     1      -5.721  -0.188 -31.729  1.00  0.00    -0.360 N 
HETATM   30  C   UNL     1      -4.471  -2.626 -34.274  1.00  0.00     0.002 A 
HETATM   31  C   UNL     1      -5.665  -2.746 -34.976  1.00  0.00     0.001 A 
HETATM   32  C   UNL     1      -4.738   0.234 -30.756  1.00  0.00     0.155 C 
HETATM   33  C   UNL     1      -7.019   0.248 -31.727  1.00  0.00     0.101 A 
ENDBRANCH  21  24
ENDBRANCH  20  21
ENDBRANCH   2  20
TORSDOF 7
ENDMDL
MODEL 4
REMARK VINA RESULT:      -8.6      1.410      1.633
REMARK  7 active torsions:
REMARK  status: ('A' for Active; 'I' for Inactive)
REMARK       I    between atoms: C_2  and  N_3 
REMARK    1  A    between atoms: N_3  and  C_4 
REMARK    2  A    between atoms: C_7  and  N_8 
REMARK       I    between atoms: N_8  and  C_9 
REMARK    3  A    between atoms: C_9  and  C_10 
REMARK       I    between atoms: C_10  and  N_11 
REMARK    4  A    between atoms: N_11  and  C_12 
REMARK    5  A    between atoms: C_12  and  C_13 
REMARK    6  A    between atoms: C_13  and  O_14 
REMARK    7  A    between atoms: C_13  and  C_15 
ROOT
HETATM    1  C   UNL     1      -5.779   3.759 -33.387  1.00  0.00     0.309 C 
HETATM    2  N   UNL     1      -6.429   3.288 -32.278  1.00  0.00    -0.350 N 
HETATM    3  O   UNL     1      -5.995   3.439 -34.548  1.00  0.00    -0.262 OA
HETATM    4  H   UNL     1      -6.237   3.755 -31.396  1.00  0.00     0.163 HD
ENDROOT
BRANCH   1   5
HETATM    5  C   UNL     1      -4.680   4.797 -33.062  1.00  0.00     0.313 C 
HETATM    6  N   UNL     1      -3.888   4.396 -32.006  1.00  0.00    -0.319 N 
HETATM    7  H   UNL     1      -4.112   3.475 -31.639  1.00  0.00     0.169 HD
HETATM    8  O   UNL     1      -4.613   5.816 -33.734  1.00  0.00    -0.262 OA
BRANCH   6   9
HETATM    9  C   UNL     1      -2.863   5.125 -31.379  1.00  0.00     0.035 A 
HETATM   10  C   UNL     1      -1.505   4.903 -31.603  1.00  0.00     0.032 A 
HETATM   11  C   UNL     1      -0.536   5.704 -30.983  1.00  0.00     0.032 A 
HETATM   12  C   UNL     1      -0.909   6.735 -30.122  1.00  0.00     0.034 A 
HETATM   13  C   UNL     1      -2.270   6.942 -29.877  1.00  0.00     0.032 A 
HETATM   14  C   UNL     1      -3.239   6.149 -30.506  1.00  0.00     0.032 A 
BRANCH  12  15
HETATM   15  N   UNL     1       0.003   7.597 -29.479  1.00  0.00    -0.328 N 
HETATM   16  C   UNL     1       0.597   7.423 -28.242  1.00  0.00     0.218 C 
HETATM   17  C   UNL     1       1.547   8.544 -27.897  1.00  0.00     0.117 C 
HETATM   18  O   UNL     1       0.448   6.477 -27.477  1.00  0.00    -0.274 OA
HETATM   19  H   UNL     1       0.279   8.417 -30.004  1.00  0.00     0.169 HD
ENDBRANCH  12  15
ENDBRANCH   6   9
ENDBRANCH   1   5
BRANCH   2  20
HETATM   20  C   UNL     1      -7.504   2.314 -32.324  1.00  0.00     0.159 C 
BRANCH  20  21
HETATM   21  C   UNL     1      -7.239   1.080 -31.437  1.00  0.00     0.171 C 
BRANCH  21  22
HETATM   22  O   UNL     1      -7.028   1.520 -30.087  1.00  0.00    -0.389 OA
HETATM   23  H   UNL     1      -6.176   1.990 -30.091  1.00  0.00     0.210 HD
ENDBRANCH  21  22
BRANCH  21  24
HETATM   24  C   UNL     1      -6.086   0.231 -31.900  1.00  0.00     0.000 A 
HETATM   25  C   UNL     1      -6.112  -0.763 -32.934  1.00  0.00     0.001 A 
HETATM   26  C   UNL     1      -4.834  -1.328 -33.016  1.00  0.00     0.044 A 
HETATM   27  C   UNL     1      -7.115  -1.240 -33.807  1.00  0.00     0.014 A 
HETATM   28  C   UNL     1      -4.526  -2.345 -33.936  1.00  0.00     0.030 A 
HETATM   29  N   UNL     1      -4.058  -0.699 -32.069  1.00  0.00    -0.360 N 
HETATM   30  C   UNL     1      -5.542  -2.802 -34.781  1.00  0.00     0.002 A 
HETATM   31  C   UNL     1      -6.819  -2.258 -34.720  1.00  0.00     0.001 A 
HETATM   32  C   UNL     1      -2.659  -0.949 -31.801  1.00  0.00     0.155 C 
HETATM   33  C   UNL     1      -4.803   0.222 -31.382  1.00  0.00     0.101 A 
ENDBRANCH  21  24
ENDBRANCH  20  21
ENDBRANCH   2  20
TORSDOF 7
ENDMDL
MODEL 5
REMARK VINA RESULT:      -8.3      2.275      9.523
REMARK  7 active torsions:
REMARK  status: ('A' for Active; 'I' for Inactive)
REMARK       I    between atoms: C_2  and  N_3 
REMARK    1  A    between atoms: N_3  and  C_4 
REMARK    2  A    between atoms: C_7  and  N_8 
REMARK       I    between atoms: N_8  and  C_9 
REMARK    3  A    between atoms: C_9  and  C_10 
REMARK       I    between atoms: C_10  and  N_11 
REMARK    4  A    between atoms: N_11  and  C_12 
REMARK    5  A    between atoms: C_12  and  C_13 
REMARK    6  A    between atoms: C_13  and  O_14 
REMARK    7  A    between atoms: C_13  and  C_15 
ROOT
HETATM    1  C   UNL     1      -4.094   4.920 -31.690  1.00  0.00     0.309 C 
HETATM    2  N   UNL     1      -3.543   5.853 -32.525  1.00  0.00    -0.350 N 
HETATM    3  O   UNL     1      -4.641   5.136 -30.617  1.00  0.00    -0.262 OA
HETATM    4  H   UNL     1      -3.255   5.537 -33.448  1.00  0.00     0.163 HD
ENDROOT
BRANCH   1   5
HETATM    5  C   UNL     1      -3.982   3.473 -32.223  1.00  0.00     0.313 C 
HETATM    6  N   UNL     1      -5.218   2.929 -32.504  1.00  0.00    -0.319 N 
HETATM    7  H   UNL     1      -5.998   3.567 -32.365  1.00  0.00     0.169 HD
HETATM    8  O   UNL     1      -2.872   2.974 -32.345  1.00  0.00    -0.262 OA
BRANCH   6   9
HETATM    9  C   UNL     1      -5.503   1.614 -32.909  1.00  0.00     0.035 A 
HETATM   10  C   UNL     1      -5.083   0.480 -32.214  1.00  0.00     0.032 A 
HETATM   11  C   UNL     1      -5.449  -0.802 -32.647  1.00  0.00     0.032 A 
HETATM   12  C   UNL     1      -6.232  -0.972 -33.788  1.00  0.00     0.034 A 
HETATM   13  C   UNL     1      -6.633   0.164 -34.499  1.00  0.00     0.032 A 
HETATM   14  C   UNL     1      -6.277   1.446 -34.060  1.00  0.00     0.032 A 
BRANCH  12  15
HETATM   15  N   UNL     1      -6.661  -2.225 -34.273  1.00  0.00    -0.328 N 
HETATM   16  C   UNL     1      -5.874  -3.242 -34.784  1.00  0.00     0.218 C 
HETATM   17  C   UNL     1      -6.684  -4.453 -35.176  1.00  0.00     0.117 C 
HETATM   18  O   UNL     1      -4.654  -3.246 -34.898  1.00  0.00    -0.274 OA
HETATM   19  H   UNL     1      -7.653  -2.408 -34.204  1.00  0.00     0.169 HD
ENDBRANCH  12  15
ENDBRANCH   6   9
ENDBRANCH   1   5
BRANCH   2  20
HETATM   20  C   UNL     1      -3.531   7.279 -32.250  1.00  0.00     0.159 C 
BRANCH  20  21
HETATM   21  C   UNL     1      -2.116   7.891 -32.300  1.00  0.00     0.171 C 
BRANCH  21  22
HETATM   22  O   UNL     1      -1.654   7.872 -33.660  1.00  0.00    -0.389 OA
HETATM   23  H   UNL     1      -0.833   8.396 -33.668  1.00  0.00     0.210 HD
ENDBRANCH  21  22
BRANCH  21  24
HETATM   24  C   UNL     1      -1.124   7.211 -31.397  1.00  0.00     0.000 A 
HETATM   25  C   UNL     1      -0.792   7.582 -30.052  1.00  0.00     0.001 A 
HETATM   26  C   UNL     1       0.196   6.700 -29.597  1.00  0.00     0.044 A 
HETATM   27  C   UNL     1      -1.240   8.597 -29.179  1.00  0.00     0.014 A 
HETATM   28  C   UNL     1       0.745   6.798 -28.307  1.00  0.00     0.030 A 
HETATM   29  N   UNL     1       0.454   5.823 -30.627  1.00  0.00    -0.360 N 
HETATM   30  C   UNL     1       0.288   7.819 -27.469  1.00  0.00     0.002 A 
HETATM   31  C   UNL     1      -0.692   8.707 -27.896  1.00  0.00     0.001 A 
HETATM   32  C   UNL     1       1.397   4.727 -30.605  1.00  0.00     0.155 C 
HETATM   33  C   UNL     1      -0.317   6.133 -31.715  1.00  0.00     0.101 A 
ENDBRANCH  21  24
ENDBRANCH  20  21
ENDBRANCH   2  20
TORSDOF 7
ENDMDL
MODEL 6
REMARK VINA RESULT:      -8.2      2.175      3.568
REMARK  7 active torsions:
REMARK  status: ('A' for Active; 'I' for Inactive)
REMARK       I    between atoms: C_2  and  N_3 
REMARK    1  A    between atoms: N_3  and  C_4 
REMARK    2  A    between atoms: C_7  and  N_8 
REMARK       I    between atoms: N_8  and  C_9 
REMARK    3  A    between atoms: C_9  and  C_10 
REMARK       I    between atoms: C_10  and  N_11 
REMARK    4  A    between atoms: N_11  and  C_12 
REMARK    5  A    between atoms: C_12  and  C_13 
REMARK    6  A    between atoms: C_13  and  O_14 
REMARK    7  A    between atoms: C_13  and  C_15 
ROOT
HETATM    1  C   UNL     1      -1.498   5.069 -31.287  1.00  0.00     0.309 C 
HETATM    2  N   UNL     1      -2.674   4.395 -31.098  1.00  0.00    -0.350 N 
HETATM    3  O   UNL     1      -0.669   4.855 -32.161  1.00  0.00    -0.262 OA
HETATM    4  H   UNL     1      -3.326   4.781 -30.420  1.00  0.00     0.163 HD
ENDROOT
BRANCH   1   5
HETATM    5  C   UNL     1      -1.265   6.200 -30.258  1.00  0.00     0.313 C 
HETATM    6  N   UNL     1      -0.087   6.029 -29.561  1.00  0.00    -0.319 N 
HETATM    7  H   UNL     1       0.462   5.226 -29.857  1.00  0.00     0.169 HD
HETATM    8  O   UNL     1      -2.095   7.094 -30.166  1.00  0.00    -0.262 OA
BRANCH   6   9
HETATM    9  C   UNL     1       0.396   6.802 -28.492  1.00  0.00     0.035 A 
HETATM   10  C   UNL     1       1.104   7.991 -28.652  1.00  0.00     0.032 A 
HETATM   11  C   UNL     1       1.510   8.739 -27.538  1.00  0.00     0.032 A 
HETATM   12  C   UNL     1       1.222   8.305 -26.245  1.00  0.00     0.034 A 
HETATM   13  C   UNL     1       0.533   7.099 -26.084  1.00  0.00     0.032 A 
HETATM   14  C   UNL     1       0.117   6.357 -27.196  1.00  0.00     0.032 A 
BRANCH  12  15
HETATM   15  N   UNL     1       1.575   9.012 -25.077  1.00  0.00    -0.328 N 
HETATM   16  C   UNL     1       0.763   9.828 -24.310  1.00  0.00     0.218 C 
HETATM   17  C   UNL     1       1.483  10.391 -23.110  1.00  0.00     0.117 C 
HETATM   18  O   UNL     1      -0.422  10.078 -24.499  1.00  0.00    -0.274 OA
HETATM   19  H   UNL     1       2.521   8.874 -24.748  1.00  0.00     0.169 HD
ENDBRANCH  12  15
ENDBRANCH   6   9
ENDBRANCH   1   5
BRANCH   2  20
HETATM   20  C   UNL     1      -3.122   3.299 -31.938  1.00  0.00     0.159 C 
BRANCH  20  21
HETATM   21  C   UNL     1      -4.596   2.914 -31.693  1.00  0.00     0.171 C 
BRANCH  21  22
HETATM   22  O   UNL     1      -4.761   2.584 -30.306  1.00  0.00    -0.389 OA
HETATM   23  H   UNL     1      -5.094   3.393 -29.879  1.00  0.00     0.210 HD
ENDBRANCH  21  22
BRANCH  21  24
HETATM   24  C   UNL     1      -5.087   1.790 -32.564  1.00  0.00     0.000 A 
HETATM   25  C   UNL     1      -4.597   0.442 -32.585  1.00  0.00     0.001 A 
HETATM   26  C   UNL     1      -5.315  -0.259 -33.561  1.00  0.00     0.044 A 
HETATM   27  C   UNL     1      -3.598  -0.246 -31.862  1.00  0.00     0.014 A 
HETATM   28  C   UNL     1      -5.070  -1.615 -33.835  1.00  0.00     0.030 A 
HETATM   29  N   UNL     1      -6.211   0.629 -34.113  1.00  0.00    -0.360 N 
HETATM   30  C   UNL     1      -4.070  -2.267 -33.110  1.00  0.00     0.002 A 
HETATM   31  C   UNL     1      -3.342  -1.594 -32.135  1.00  0.00     0.001 A 
HETATM   32  C   UNL     1      -7.173   0.343 -35.154  1.00  0.00     0.155 C 
HETATM   33  C   UNL     1      -6.069   1.864 -33.536  1.00  0.00     0.101 A 
ENDBRANCH  21  24
ENDBRANCH  20  21
ENDBRANCH   2  20
TORSDOF 7
ENDMDL
MODEL 7
REMARK VINA RESULT:      -8.0      2.551     10.370
REMARK  7 active torsions:
REMARK  status: ('A' for Active; 'I' for Inactive)
REMARK       I    between atoms: C_2  and  N_3 
REMARK    1  A    between atoms: N_3  and  C_4 
REMARK    2  A    between atoms: C_7  and  N_8 
REMARK       I    between atoms: N_8  and  C_9 
REMARK    3  A    between atoms: C_9  and  C_10 
REMARK       I    between atoms: C_10  and  N_11 
REMARK    4  A    between atoms: N_11  and  C_12 
REMARK    5  A    between atoms: C_12  and  C_13 
REMARK    6  A    between atoms: C_13  and  O_14 
REMARK    7  A    between atoms: C_13  and  C_15 
ROOT
HETATM    1  C   UNL     1      -3.903   4.478 -31.049  1.00  0.00     0.309 C 
HETATM    2  N   UNL     1      -2.793   5.219 -31.349  1.00  0.00    -0.350 N 
HETATM    3  O   UNL     1      -4.880   4.854 -30.416  1.00  0.00    -0.262 OA
HETATM    4  H   UNL     1      -2.129   4.815 -32.004  1.00  0.00     0.163 HD
ENDROOT
BRANCH   1   5
HETATM    5  C   UNL     1      -3.847   3.034 -31.600  1.00  0.00     0.313 C 
HETATM    6  N   UNL     1      -5.063   2.629 -32.111  1.00  0.00    -0.319 N 
HETATM    7  H   UNL     1      -5.784   3.345 -32.092  1.00  0.00     0.169 HD
HETATM    8  O   UNL     1      -2.791   2.420 -31.540  1.00  0.00    -0.262 OA
BRANCH   6   9
HETATM    9  C   UNL     1      -5.405   1.358 -32.601  1.00  0.00     0.035 A 
HETATM   10  C   UNL     1      -5.200   0.173 -31.895  1.00  0.00     0.032 A 
HETATM   11  C   UNL     1      -5.615  -1.057 -32.424  1.00  0.00     0.032 A 
HETATM   12  C   UNL     1      -6.232  -1.124 -33.673  1.00  0.00     0.034 A 
HETATM   13  C   UNL     1      -6.414   0.062 -34.392  1.00  0.00     0.032 A 
HETATM   14  C   UNL     1      -6.011   1.292 -33.859  1.00  0.00     0.032 A 
BRANCH  12  15
HETATM   15  N   UNL     1      -6.697  -2.318 -34.262  1.00  0.00    -0.328 N 
HETATM   16  C   UNL     1      -5.939  -3.328 -34.827  1.00  0.00     0.218 C 
HETATM   17  C   UNL     1      -6.787  -4.470 -35.330  1.00  0.00     0.117 C 
HETATM   18  O   UNL     1      -4.717  -3.377 -34.909  1.00  0.00    -0.274 OA
HETATM   19  H   UNL     1      -7.697  -2.462 -34.232  1.00  0.00     0.169 HD
ENDBRANCH  12  15
ENDBRANCH   6   9
ENDBRANCH   1   5
BRANCH   2  20
HETATM   20  C   UNL     1      -2.613   6.604 -30.950  1.00  0.00     0.159 C 
BRANCH  20  21
HETATM   21  C   UNL     1      -1.262   6.859 -30.248  1.00  0.00     0.171 C 
BRANCH  21  22
HETATM   22  O   UNL     1      -0.519   5.630 -30.219  1.00  0.00    -0.389 OA
HETATM   23  H   UNL     1       0.372   5.867 -29.908  1.00  0.00     0.210 HD
ENDBRANCH  21  22
BRANCH  21  24
HETATM   24  C   UNL     1      -1.393   7.428 -28.862  1.00  0.00     0.000 A 
HETATM   25  C   UNL     1      -0.344   7.994 -28.063  1.00  0.00     0.001 A 
HETATM   26  C   UNL     1      -0.899   8.373 -26.835  1.00  0.00     0.044 A 
HETATM   27  C   UNL     1       1.035   8.212 -28.273  1.00  0.00     0.014 A 
HETATM   28  C   UNL     1      -0.127   8.961 -25.818  1.00  0.00     0.030 A 
HETATM   29  N   UNL     1      -2.237   8.052 -26.885  1.00  0.00    -0.360 N 
HETATM   30  C   UNL     1       1.237   9.156 -26.052  1.00  0.00     0.002 A 
HETATM   31  C   UNL     1       1.813   8.788 -27.263  1.00  0.00     0.001 A 
HETATM   32  C   UNL     1      -3.214   8.276 -25.842  1.00  0.00     0.155 C 
HETATM   33  C   UNL     1      -2.539   7.468 -28.087  1.00  0.00     0.101 A 
ENDBRANCH  21  24
ENDBRANCH  20  21
ENDBRANCH   2  20
TORSDOF 7
ENDMDL
MODEL 8
REMARK VINA RESULT:      -8.0      2.510      4.149
REMARK  7 active torsions:
REMARK  status: ('A' for Active; 'I' for Inactive)
REMARK       I    between atoms: C_2  and  N_3 
REMARK    1  A    between atoms: N_3  and  C_4 
REMARK    2  A    between atoms: C_7  and  N_8 
REMARK       I    between atoms: N_8  and  C_9 
REMARK    3  A    between atoms: C_9  and  C_10 
REMARK       I    between atoms: C_10  and  N_11 
REMARK    4  A    between atoms: N_11  and  C_12 
REMARK    5  A    between atoms: C_12  and  C_13 
REMARK    6  A    between atoms: C_13  and  O_14 
REMARK    7  A    between atoms: C_13  and  C_15 
ROOT
HETATM    1  C   UNL     1      -8.695   3.389 -33.789  1.00  0.00     0.309 C 
HETATM    2  N   UNL     1      -8.415   2.064 -33.989  1.00  0.00    -0.350 N 
HETATM    3  O   UNL     1      -9.808   3.894 -33.721  1.00  0.00    -0.262 OA
HETATM    4  H   UNL     1      -7.447   1.774 -33.877  1.00  0.00     0.163 HD
ENDROOT
BRANCH   1   5
HETATM    5  C   UNL     1      -7.434   4.270 -33.639  1.00  0.00     0.313 C 
HETATM    6  N   UNL     1      -6.471   3.664 -32.860  1.00  0.00    -0.319 N 
HETATM    7  H   UNL     1      -6.713   2.727 -32.548  1.00  0.00     0.169 HD
HETATM    8  O   UNL     1      -7.405   5.358 -34.197  1.00  0.00    -0.262 OA
BRANCH   6   9
HETATM    9  C   UNL     1      -5.247   4.208 -32.433  1.00  0.00     0.035 A 
HETATM   10  C   UNL     1      -4.023   3.934 -33.041  1.00  0.00     0.032 A 
HETATM   11  C   UNL     1      -2.847   4.553 -32.595  1.00  0.00     0.032 A 
HETATM   12  C   UNL     1      -2.875   5.450 -31.528  1.00  0.00     0.034 A 
HETATM   13  C   UNL     1      -4.099   5.706 -30.903  1.00  0.00     0.032 A 
HETATM   14  C   UNL     1      -5.276   5.096 -31.355  1.00  0.00     0.032 A 
BRANCH  12  15
HETATM   15  N   UNL     1      -1.742   6.131 -31.038  1.00  0.00    -0.328 N 
HETATM   16  C   UNL     1      -0.570   5.575 -30.556  1.00  0.00     0.218 C 
HETATM   17  C   UNL     1       0.438   6.621 -30.147  1.00  0.00     0.117 C 
HETATM   18  O   UNL     1      -0.295   4.383 -30.479  1.00  0.00    -0.274 OA
HETATM   19  H   UNL     1      -1.782   7.141 -31.078  1.00  0.00     0.169 HD
ENDBRANCH  12  15
ENDBRANCH   6   9
ENDBRANCH   1   5
BRANCH   2  20
HETATM   20  C   UNL     1      -9.429   1.038 -34.150  1.00  0.00     0.159 C 
BRANCH  20  21
HETATM   21  C   UNL     1      -9.196  -0.188 -33.241  1.00  0.00     0.171 C 
BRANCH  21  22
HETATM   22  O   UNL     1      -9.686   0.115 -31.926  1.00  0.00    -0.389 OA
HETATM   23  H   UNL     1      -9.601  -0.709 -31.415  1.00  0.00     0.210 HD
ENDBRANCH  21  22
BRANCH  21  24
HETATM   24  C   UNL     1      -7.762  -0.638 -33.178  1.00  0.00     0.000 A 
HETATM   25  C   UNL     1      -6.768  -0.212 -32.237  1.00  0.00     0.001 A 
HETATM   26  C   UNL     1      -5.568  -0.857 -32.559  1.00  0.00     0.044 A 
HETATM   27  C   UNL     1      -6.779   0.676 -31.139  1.00  0.00     0.014 A 
HETATM   28  C   UNL     1      -4.389  -0.648 -31.824  1.00  0.00     0.030 A 
HETATM   29  N   UNL     1      -5.824  -1.651 -33.655  1.00  0.00    -0.360 N 
HETATM   30  C   UNL     1      -4.429   0.242 -30.749  1.00  0.00     0.002 A 
HETATM   31  C   UNL     1      -5.606   0.897 -30.407  1.00  0.00     0.001 A 
HETATM   32  C   UNL     1      -4.880  -2.514 -34.330  1.00  0.00     0.155 C 
HETATM   33  C   UNL     1      -7.130  -1.512 -34.045  1.00  0.00     0.101 A 
ENDBRANCH  21  24
ENDBRANCH  20  21
ENDBRANCH   2  20
TORSDOF 7
ENDMDL
MODEL 9
REMARK VINA RESULT:      -8.0      2.306      9.128
REMARK  7 active torsions:
REMARK  status: ('A' for Active; 'I' for Inactive)
REMARK       I    between atoms: C_2  and  N_3 
REMARK    1  A    between atoms: N_3  and  C_4 
REMARK    2  A    between atoms: C_7  and  N_8 
REMARK       I    between atoms: N_8  and  C_9 
REMARK    3  A    between atoms: C_9  and  C_10 
REMARK       I    between atoms: C_10  and  N_11 
REMARK    4  A    between atoms: N_11  and  C_12 
REMARK    5  A    between atoms: C_12  and  C_13 
REMARK    6  A    between atoms: C_13  and  O_14 
REMARK    7  A    between atoms: C_13  and  C_15 
ROOT
HETATM    1  C   UNL     1      -4.305   5.718 -30.956  1.00  0.00     0.309 C 
HETATM    2  N   UNL     1      -3.911   6.736 -31.780  1.00  0.00    -0.350 N 
HETATM    3  O   UNL     1      -4.709   5.827 -29.806  1.00  0.00    -0.262 OA
HETATM    4  H   UNL     1      -3.738   6.503 -32.754  1.00  0.00     0.163 HD
ENDROOT
BRANCH   1   5
HETATM    5  C   UNL     1      -4.207   4.321 -31.612  1.00  0.00     0.313 C 
HETATM    6  N   UNL     1      -5.440   3.713 -31.719  1.00  0.00    -0.319 N 
HETATM    7  H   UNL     1      -6.218   4.285 -31.400  1.00  0.00     0.169 HD
HETATM    8  O   UNL     1      -3.109   3.909 -31.960  1.00  0.00    -0.262 OA
BRANCH   6   9
HETATM    9  C   UNL     1      -5.718   2.412 -32.171  1.00  0.00     0.035 A 
HETATM   10  C   UNL     1      -5.692   1.284 -31.351  1.00  0.00     0.032 A 
HETATM   11  C   UNL     1      -6.031   0.022 -31.859  1.00  0.00     0.032 A 
HETATM   12  C   UNL     1      -6.392  -0.134 -33.196  1.00  0.00     0.034 A 
HETATM   13  C   UNL     1      -6.393   0.993 -34.024  1.00  0.00     0.032 A 
HETATM   14  C   UNL     1      -6.066   2.256 -33.515  1.00  0.00     0.032 A 
BRANCH  12  15
HETATM   15  N   UNL     1      -6.768  -1.364 -33.775  1.00  0.00    -0.328 N 
HETATM   16  C   UNL     1      -5.936  -2.333 -34.308  1.00  0.00     0.218 C 
HETATM   17  C   UNL     1      -6.699  -3.534 -34.808  1.00  0.00     0.117 C 
HETATM   18  O   UNL     1      -4.712  -2.305 -34.364  1.00  0.00    -0.274 OA
HETATM   19  H   UNL     1      -7.758  -1.572 -33.763  1.00  0.00     0.169 HD
ENDBRANCH  12  15
ENDBRANCH   6   9
ENDBRANCH   1   5
BRANCH   2  20
HETATM   20  C   UNL     1      -3.921   8.137 -31.397  1.00  0.00     0.159 C 
BRANCH  20  21
HETATM   21  C   UNL     1      -2.505   8.735 -31.260  1.00  0.00     0.171 C 
BRANCH  21  22
HETATM   22  O   UNL     1      -1.811   8.564 -32.505  1.00  0.00    -0.389 OA
HETATM   23  H   UNL     1      -0.917   8.260 -32.271  1.00  0.00     0.210 HD
ENDBRANCH  21  22
BRANCH  21  24
HETATM   24  C   UNL     1      -1.704   8.155 -30.127  1.00  0.00     0.000 A 
HETATM   25  C   UNL     1      -0.817   7.029 -30.189  1.00  0.00     0.001 A 
HETATM   26  C   UNL     1      -0.306   6.816 -28.903  1.00  0.00     0.044 A 
HETATM   27  C   UNL     1      -0.409   6.163 -31.226  1.00  0.00     0.014 A 
HETATM   28  C   UNL     1       0.597   5.775 -28.623  1.00  0.00     0.030 A 
HETATM   29  N   UNL     1      -0.858   7.779 -28.089  1.00  0.00    -0.360 N 
HETATM   30  C   UNL     1       0.976   4.930 -29.669  1.00  0.00     0.002 A 
HETATM   31  C   UNL     1       0.482   5.119 -30.954  1.00  0.00     0.001 A 
HETATM   32  C   UNL     1      -0.606   7.957 -26.676  1.00  0.00     0.155 C 
HETATM   33  C   UNL     1      -1.711   8.573 -28.807  1.00  0.00     0.101 A 
ENDBRANCH  21  24
ENDBRANCH  20  21
ENDBRANCH   2  20
TORSDOF 7
ENDMDL
MODEL 10
REMARK VINA RESULT:      -7.8      3.396      9.941
REMARK  7 active torsions:
REMARK  status: ('A' for Active; 'I' for Inactive)
REMARK       I    between atoms: C_2  and  N_3 
REMARK    1  A    between atoms: N_3  and  C_4 
REMARK    2  A    between atoms: C_7  and  N_8 
REMARK       I    between atoms: N_8  and  C_9 
REMARK    3  A    between atoms: C_9  and  C_10 
REMARK       I    between atoms: C_10  and  N_11 
REMARK    4  A    between atoms: N_11  and  C_12 
REMARK    5  A    between atoms: C_12  and  C_13 
REMARK    6  A    between atoms: C_13  and  O_14 
REMARK    7  A    between atoms: C_13  and  C_15 
ROOT
HETATM    1  C   UNL     1      -4.425   3.250 -32.717  1.00  0.00     0.309 C 
HETATM    2  N   UNL     1      -4.325   4.434 -33.396  1.00  0.00    -0.350 N 
HETATM    3  O   UNL     1      -3.508   2.484 -32.452  1.00  0.00    -0.262 OA
HETATM    4  H   UNL     1      -5.149   5.029 -33.413  1.00  0.00     0.163 HD
ENDROOT
BRANCH   1   5
HETATM    5  C   UNL     1      -5.867   2.916 -32.269  1.00  0.00     0.313 C 
HETATM    6  N   UNL     1      -6.653   2.505 -33.325  1.00  0.00    -0.319 N 
HETATM    7  H   UNL     1      -6.161   2.439 -34.213  1.00  0.00     0.169 HD
HETATM    8  O   UNL     1      -6.160   3.036 -31.088  1.00  0.00    -0.262 OA
BRANCH   6   9
HETATM    9  C   UNL     1      -8.028   2.217 -33.308  1.00  0.00     0.035 A 
HETATM   10  C   UNL     1      -9.025   3.186 -33.407  1.00  0.00     0.032 A 
HETATM   11  C   UNL     1     -10.378   2.822 -33.435  1.00  0.00     0.032 A 
HETATM   12  C   UNL     1     -10.757   1.482 -33.356  1.00  0.00     0.034 A 
HETATM   13  C   UNL     1      -9.758   0.512 -33.231  1.00  0.00     0.032 A 
HETATM   14  C   UNL     1      -8.405   0.874 -33.214  1.00  0.00     0.032 A 
BRANCH  12  15
HETATM   15  N   UNL     1     -12.094   1.035 -33.402  1.00  0.00    -0.328 N 
HETATM   16  C   UNL     1     -12.956   1.070 -34.483  1.00  0.00     0.218 C 
HETATM   17  C   UNL     1     -14.303   0.470 -34.164  1.00  0.00     0.117 C 
HETATM   18  O   UNL     1     -12.711   1.486 -35.610  1.00  0.00    -0.274 OA
HETATM   19  H   UNL     1     -12.445   0.609 -32.554  1.00  0.00     0.169 HD
ENDBRANCH  12  15
ENDBRANCH   6   9
ENDBRANCH   1   5
BRANCH   2  20
HETATM   20  C   UNL     1      -3.077   4.968 -33.912  1.00  0.00     0.159 C 
BRANCH  20  21
HETATM   21  C   UNL     1      -2.903   6.475 -33.626  1.00  0.00     0.171 C 
BRANCH  21  22
HETATM   22  O   UNL     1      -1.882   6.992 -34.492  1.00  0.00    -0.389 OA
HETATM   23  H   UNL     1      -2.160   7.897 -34.719  1.00  0.00     0.210 HD
ENDBRANCH  21  22
BRANCH  21  24
HETATM   24  C   UNL     1      -2.586   6.791 -32.190  1.00  0.00     0.000 A 
HETATM   25  C   UNL     1      -1.454   6.332 -31.438  1.00  0.00     0.001 A 
HETATM   26  C   UNL     1      -1.568   6.841 -30.139  1.00  0.00     0.044 A 
HETATM   27  C   UNL     1      -0.342   5.518 -31.746  1.00  0.00     0.014 A 
HETATM   28  C   UNL     1      -0.613   6.568 -29.145  1.00  0.00     0.030 A 
HETATM   29  N   UNL     1      -2.726   7.586 -30.102  1.00  0.00    -0.360 N 
HETATM   30  C   UNL     1       0.473   5.753 -29.477  1.00  0.00     0.002 A 
HETATM   31  C   UNL     1       0.610   5.234 -30.760  1.00  0.00     0.001 A 
HETATM   32  C   UNL     1      -3.243   8.313 -28.964  1.00  0.00     0.155 C 
HETATM   33  C   UNL     1      -3.352   7.547 -31.319  1.00  0.00     0.101 A 
ENDBRANCH  21  24
ENDBRANCH  20  21
ENDBRANCH   2  20
TORSDOF 7
ENDMDL
