MODEL 1
REMARK VINA RESULT:      -8.7      0.000      0.000
REMARK  3 active torsions:
REMARK  status: ('A' for Active; 'I' for Inactive)
REMARK    1  A    between atoms: C_6  and  N_7 
REMARK       I    between atoms: N_7  and  C_8 
REMARK    2  A    between atoms: C_8  and  C_9 
REMARK    3  A    between atoms: C_9  and  C_10 
ROOT
HETATM    1  C   UNL     1      -4.203   3.876 -31.289  1.00  0.00     0.286 C 
HETATM    2  N   UNL     1      -2.868   3.397 -31.883  1.00  0.00    -0.056 N 
HETATM    3  H   UNL     1      -2.381   2.872 -31.143  1.00  0.00     0.278 HD
HETATM    4  H   UNL     1      -3.056   2.659 -32.595  1.00  0.00     0.278 HD
HETATM    5  C   UNL     1      -1.930   4.425 -32.427  1.00  0.00     0.209 C 
HETATM    6  C   UNL     1      -1.879   5.636 -31.471  1.00  0.00     0.115 C 
HETATM    7  N   UNL     1      -3.213   6.158 -31.201  1.00  0.00    -0.353 N 
HETATM    8  C   UNL     1      -4.329   5.385 -31.045  1.00  0.00     0.249 C 
HETATM    9  O   UNL     1      -5.389   5.900 -30.701  1.00  0.00    -0.271 OA
HETATM   10  C   UNL     1      -2.338   4.809 -33.851  1.00  0.00     0.035 C 
HETATM   11  C   UNL     1      -1.421   5.903 -34.396  1.00  0.00     0.002 C 
HETATM   12  C   UNL     1      -1.361   7.115 -33.468  1.00  0.00     0.002 C 
HETATM   13  C   UNL     1      -0.970   6.726 -32.042  1.00  0.00     0.027 C 
HETATM   14  H   UNL     1      -3.332   7.132 -30.928  1.00  0.00     0.163 HD
ENDROOT
BRANCH   1  15
HETATM   15  C   UNL     1      -5.390   3.363 -32.114  1.00  0.00     0.146 C 
BRANCH  15  16
HETATM   16  C   UNL     1      -5.262   1.862 -32.145  1.00  0.00     0.224 C 
HETATM   17  N   UNL     1      -5.436   1.316 -33.388  1.00  0.00    -0.327 N 
HETATM   18  H   UNL     1      -5.357   1.963 -34.168  1.00  0.00     0.169 HD
HETATM   19  O   UNL     1      -5.201   1.310 -31.049  1.00  0.00    -0.273 OA
BRANCH  17  20
HETATM   20  C   UNL     1      -5.721  -0.012 -33.804  1.00  0.00     0.040 A 
HETATM   21  C   UNL     1      -6.853  -0.501 -34.480  1.00  0.00    -0.035 A 
HETATM   22  C   UNL     1      -6.888  -1.869 -34.850  1.00  0.00     0.015 A 
HETATM   23  C   UNL     1      -8.072   0.291 -34.854  1.00  0.00     0.050 C 
HETATM   24  C   UNL     1      -5.846  -2.752 -34.553  1.00  0.00    -0.061 A 
HETATM   25  C   UNL     1      -5.909  -4.189 -34.975  1.00  0.00     0.048 C 
HETATM   26  C   UNL     1      -4.731  -2.262 -33.886  1.00  0.00     0.009 A 
HETATM   27  C   UNL     1      -4.677  -0.918 -33.514  1.00  0.00     0.030 A 
ENDBRANCH  17  20
ENDBRANCH  15  16
ENDBRANCH   1  15
TORSDOF 3
ENDMDL
MODEL 2
REMARK VINA RESULT:      -8.7      0.640      1.589
REMARK  3 active torsions:
REMARK  status: ('A' for Active; 'I' for Inactive)
REMARK    1  A    between atoms: C_6  and  N_7 
REMARK       I    between atoms: N_7  and  C_8 
REMARK    2  A    between atoms: C_8  and  C_9 
REMARK    3  A    between atoms: C_9  and  C_10 
ROOT
HETATM    1  C   UNL     1      -4.473   4.348 -30.955  1.00  0.00     0.286 C 
HETATM    2  N   UNL     1      -3.138   3.666 -31.294  1.00  0.00    -0.056 N 
HETATM    3  H   UNL     1      -2.732   3.342 -30.405  1.00  0.00     0.278 HD
HETATM    4  H   UNL     1      -3.328   2.769 -31.793  1.00  0.00     0.278 HD
HETATM    5  C   UNL     1      -2.105   4.462 -32.023  1.00  0.00     0.209 C 
HETATM    6  C   UNL     1      -2.035   5.885 -31.428  1.00  0.00     0.115 C 
HETATM    7  N   UNL     1      -3.347   6.521 -31.413  1.00  0.00    -0.353 N 
HETATM    8  C   UNL     1      -4.518   5.870 -31.139  1.00  0.00     0.249 C 
HETATM    9  O   UNL     1      -5.561   6.506 -31.030  1.00  0.00    -0.271 OA
HETATM   10  C   UNL     1      -2.399   4.459 -33.524  1.00  0.00     0.035 C 
HETATM   11  C   UNL     1      -1.382   5.320 -34.273  1.00  0.00     0.002 C 
HETATM   12  C   UNL     1      -1.303   6.736 -33.705  1.00  0.00     0.002 C 
HETATM   13  C   UNL     1      -1.026   6.736 -32.201  1.00  0.00     0.027 C 
HETATM   14  H   UNL     1      -3.421   7.536 -31.423  1.00  0.00     0.163 HD
ENDROOT
BRANCH   1  15
HETATM   15  C   UNL     1      -5.638   3.681 -31.699  1.00  0.00     0.146 C 
BRANCH  15  16
HETATM   16  C   UNL     1      -5.301   2.215 -31.779  1.00  0.00     0.224 C 
HETATM   17  N   UNL     1      -5.427   1.685 -33.035  1.00  0.00    -0.327 N 
HETATM   18  H   UNL     1      -5.459   2.358 -33.796  1.00  0.00     0.169 HD
HETATM   19  O   UNL     1      -5.136   1.648 -30.702  1.00  0.00    -0.273 OA
BRANCH  17  20
HETATM   20  C   UNL     1      -5.532   0.342 -33.486  1.00  0.00     0.040 A 
HETATM   21  C   UNL     1      -4.598  -0.703 -33.368  1.00  0.00    -0.035 A 
HETATM   22  C   UNL     1      -4.953  -1.990 -33.844  1.00  0.00     0.015 A 
HETATM   23  C   UNL     1      -3.220  -0.598 -32.784  1.00  0.00     0.050 C 
HETATM   24  C   UNL     1      -6.190  -2.254 -34.441  1.00  0.00    -0.061 A 
HETATM   25  C   UNL     1      -6.538  -3.632 -34.917  1.00  0.00     0.048 C 
HETATM   26  C   UNL     1      -7.106  -1.217 -34.553  1.00  0.00     0.009 A 
HETATM   27  C   UNL     1      -6.777   0.057 -34.090  1.00  0.00     0.030 A 
ENDBRANCH  17  20
ENDBRANCH  15  16
ENDBRANCH   1  15
TORSDOF 3
ENDMDL
MODEL 3
REMARK VINA RESULT:      -8.4      1.659      2.559
REMARK  3 active torsions:
REMARK  status: ('A' for Active; 'I' for Inactive)
REMARK    1  A    between atoms: C_6  and  N_7 
REMARK       I    between atoms: N_7  and  C_8 
REMARK    2  A    between atoms: C_8  and  C_9 
REMARK    3  A    between atoms: C_9  and  C_10 
ROOT
HETATM    1  C   UNL     1      -3.903   4.093 -33.143  1.00  0.00     0.286 C 
HETATM    2  N   UNL     1      -3.824   5.446 -33.871  1.00  0.00    -0.056 N 
HETATM    3  H   UNL     1      -3.568   5.247 -34.847  1.00  0.00     0.278 HD
HETATM    4  H   UNL     1      -4.785   5.839 -33.966  1.00  0.00     0.278 HD
HETATM    5  C   UNL     1      -2.886   6.479 -33.336  1.00  0.00     0.209 C 
HETATM    6  C   UNL     1      -1.549   5.811 -32.949  1.00  0.00     0.115 C 
HETATM    7  N   UNL     1      -1.757   4.694 -32.035  1.00  0.00    -0.353 N 
HETATM    8  C   UNL     1      -2.804   3.819 -32.110  1.00  0.00     0.249 C 
HETATM    9  O   UNL     1      -2.836   2.837 -31.374  1.00  0.00    -0.271 OA
HETATM   10  C   UNL     1      -3.535   7.229 -32.172  1.00  0.00     0.035 C 
HETATM   11  C   UNL     1      -2.562   8.247 -31.579  1.00  0.00     0.002 C 
HETATM   12  C   UNL     1      -1.234   7.606 -31.181  1.00  0.00     0.002 C 
HETATM   13  C   UNL     1      -0.595   6.842 -32.342  1.00  0.00     0.027 C 
HETATM   14  H   UNL     1      -1.010   4.407 -31.404  1.00  0.00     0.163 HD
ENDROOT
BRANCH   1  15
HETATM   15  C   UNL     1      -5.290   3.880 -32.524  1.00  0.00     0.146 C 
BRANCH  15  16
HETATM   16  C   UNL     1      -5.896   2.704 -33.245  1.00  0.00     0.224 C 
HETATM   17  N   UNL     1      -5.498   1.489 -32.757  1.00  0.00    -0.327 N 
HETATM   18  H   UNL     1      -5.080   1.502 -31.830  1.00  0.00     0.169 HD
HETATM   19  O   UNL     1      -6.513   2.971 -34.273  1.00  0.00    -0.273 OA
BRANCH  17  20
HETATM   20  C   UNL     1      -5.551   0.184 -33.315  1.00  0.00     0.040 A 
HETATM   21  C   UNL     1      -4.548  -0.802 -33.352  1.00  0.00    -0.035 A 
HETATM   22  C   UNL     1      -4.856  -2.065 -33.914  1.00  0.00     0.015 A 
HETATM   23  C   UNL     1      -3.140  -0.651 -32.854  1.00  0.00     0.050 C 
HETATM   24  C   UNL     1      -6.113  -2.363 -34.449  1.00  0.00    -0.061 A 
HETATM   25  C   UNL     1      -6.409  -3.717 -35.019  1.00  0.00     0.048 C 
HETATM   26  C   UNL     1      -7.098  -1.385 -34.408  1.00  0.00     0.009 A 
HETATM   27  C   UNL     1      -6.816  -0.134 -33.858  1.00  0.00     0.030 A 
ENDBRANCH  17  20
ENDBRANCH  15  16
ENDBRANCH   1  15
TORSDOF 3
ENDMDL
MODEL 4
REMARK VINA RESULT:      -8.0      4.610      7.636
REMARK  3 active torsions:
REMARK  status: ('A' for Active; 'I' for Inactive)
REMARK    1  A    between atoms: C_6  and  N_7 
REMARK       I    between atoms: N_7  and  C_8 
REMARK    2  A    between atoms: C_8  and  C_9 
REMARK    3  A    between atoms: C_9  and  C_10 
ROOT
HETATM    1  C   UNL     1     -10.290   3.239 -32.742  1.00  0.00     0.286 C 
HETATM    2  N   UNL     1     -10.426   2.422 -34.037  1.00  0.00    -0.056 N 
HETATM    3  H   UNL     1     -10.271   3.072 -34.820  1.00  0.00     0.278 HD
HETATM    4  H   UNL     1      -9.613   1.774 -34.120  1.00  0.00     0.278 HD
HETATM    5  C   UNL     1     -11.706   1.690 -34.277  1.00  0.00     0.209 C 
HETATM    6  C   UNL     1     -12.897   2.592 -33.887  1.00  0.00     0.115 C 
HETATM    7  N   UNL     1     -12.765   3.088 -32.523  1.00  0.00    -0.353 N 
HETATM    8  C   UNL     1     -11.582   3.465 -31.949  1.00  0.00     0.249 C 
HETATM    9  O   UNL     1     -11.579   3.985 -30.837  1.00  0.00    -0.271 OA
HETATM   10  C   UNL     1     -11.700   0.357 -33.527  1.00  0.00     0.035 C 
HETATM   11  C   UNL     1     -13.029  -0.373 -33.717  1.00  0.00     0.002 C 
HETATM   12  C   UNL     1     -14.222   0.499 -33.330  1.00  0.00     0.002 C 
HETATM   13  C   UNL     1     -14.217   1.838 -34.068  1.00  0.00     0.027 C 
HETATM   14  H   UNL     1     -13.594   3.356 -31.996  1.00  0.00     0.163 HD
ENDROOT
BRANCH   1  15
HETATM   15  C   UNL     1      -9.197   2.657 -31.836  1.00  0.00     0.146 C 
BRANCH  15  16
HETATM   16  C   UNL     1      -8.186   2.019 -32.752  1.00  0.00     0.224 C 
HETATM   17  N   UNL     1      -8.019   0.676 -32.544  1.00  0.00    -0.327 N 
HETATM   18  H   UNL     1      -8.757   0.218 -32.016  1.00  0.00     0.169 HD
HETATM   19  O   UNL     1      -7.520   2.795 -33.432  1.00  0.00    -0.273 OA
BRANCH  17  20
HETATM   20  C   UNL     1      -6.984  -0.217 -32.929  1.00  0.00     0.040 A 
HETATM   21  C   UNL     1      -5.744  -0.449 -32.308  1.00  0.00    -0.035 A 
HETATM   22  C   UNL     1      -4.889  -1.444 -32.846  1.00  0.00     0.015 A 
HETATM   23  C   UNL     1      -5.205   0.273 -31.108  1.00  0.00     0.050 C 
HETATM   24  C   UNL     1      -5.226  -2.191 -33.978  1.00  0.00    -0.061 A 
HETATM   25  C   UNL     1      -4.306  -3.248 -34.508  1.00  0.00     0.048 C 
HETATM   26  C   UNL     1      -6.453  -1.956 -34.585  1.00  0.00     0.009 A 
HETATM   27  C   UNL     1      -7.309  -0.981 -34.072  1.00  0.00     0.030 A 
ENDBRANCH  17  20
ENDBRANCH  15  16
ENDBRANCH   1  15
TORSDOF 3
ENDMDL
MODEL 5
REMARK VINA RESULT:      -7.9      2.022      8.169
REMARK  3 active torsions:
REMARK  status: ('A' for Active; 'I' for Inactive)
REMARK    1  A    between atoms: C_6  and  N_7 
REMARK       I    between atoms: N_7  and  C_8 
REMARK    2  A    between atoms: C_8  and  C_9 
REMARK    3  A    between atoms: C_9  and  C_10 
ROOT
HETATM    1  C   UNL     1      -4.280   1.623 -31.992  1.00  0.00     0.286 C 
HETATM    2  N   UNL     1      -5.736   2.075 -32.189  1.00  0.00    -0.056 N 
HETATM    3  H   UNL     1      -6.141   2.203 -31.252  1.00  0.00     0.278 HD
HETATM    4  H   UNL     1      -5.745   3.045 -32.572  1.00  0.00     0.278 HD
HETATM    5  C   UNL     1      -6.646   1.192 -32.979  1.00  0.00     0.209 C 
HETATM    6  C   UNL     1      -6.416  -0.280 -32.576  1.00  0.00     0.115 C 
HETATM    7  N   UNL     1      -5.011  -0.651 -32.692  1.00  0.00    -0.353 N 
HETATM    8  C   UNL     1      -3.966   0.173 -32.377  1.00  0.00     0.249 C 
HETATM    9  O   UNL     1      -2.818  -0.261 -32.390  1.00  0.00    -0.271 OA
HETATM   10  C   UNL     1      -6.449   1.435 -34.476  1.00  0.00     0.035 C 
HETATM   11  C   UNL     1      -7.332   0.495 -35.296  1.00  0.00     0.002 C 
HETATM   12  C   UNL     1      -7.115  -0.969 -34.918  1.00  0.00     0.002 C 
HETATM   13  C   UNL     1      -7.296  -1.207 -33.418  1.00  0.00     0.027 C 
HETATM   14  H   UNL     1      -4.752  -1.625 -32.839  1.00  0.00     0.163 HD
ENDROOT
BRANCH   1  15
HETATM   15  C   UNL     1      -3.305   2.586 -32.683  1.00  0.00     0.146 C 
BRANCH  15  16
HETATM   16  C   UNL     1      -3.169   3.775 -31.767  1.00  0.00     0.224 C 
HETATM   17  N   UNL     1      -2.072   4.552 -32.026  1.00  0.00    -0.327 N 
HETATM   18  H   UNL     1      -1.642   4.416 -32.937  1.00  0.00     0.169 HD
HETATM   19  O   UNL     1      -3.937   3.799 -30.809  1.00  0.00    -0.273 OA
BRANCH  17  20
HETATM   20  C   UNL     1      -1.402   5.529 -31.243  1.00  0.00     0.040 A 
HETATM   21  C   UNL     1      -1.668   6.906 -31.134  1.00  0.00    -0.035 A 
HETATM   22  C   UNL     1      -0.895   7.679 -30.232  1.00  0.00     0.015 A 
HETATM   23  C   UNL     1      -2.705   7.671 -31.902  1.00  0.00     0.050 C 
HETATM   24  C   UNL     1       0.131   7.127 -29.459  1.00  0.00    -0.061 A 
HETATM   25  C   UNL     1       0.915   7.971 -28.501  1.00  0.00     0.048 C 
HETATM   26  C   UNL     1       0.386   5.767 -29.571  1.00  0.00     0.009 A 
HETATM   27  C   UNL     1      -0.363   4.987 -30.454  1.00  0.00     0.030 A 
ENDBRANCH  17  20
ENDBRANCH  15  16
ENDBRANCH   1  15
TORSDOF 3
ENDMDL
MODEL 6
REMARK VINA RESULT:      -7.9      1.421      2.097
REMARK  3 active torsions:
REMARK  status: ('A' for Active; 'I' for Inactive)
REMARK    1  A    between atoms: C_6  and  N_7 
REMARK       I    between atoms: N_7  and  C_8 
REMARK    2  A    between atoms: C_8  and  C_9 
REMARK    3  A    between atoms: C_9  and  C_10 
ROOT
HETATM    1  C   UNL     1      -5.277   3.036 -30.207  1.00  0.00     0.286 C 
HETATM    2  N   UNL     1      -3.929   2.739 -30.885  1.00  0.00    -0.056 N 
HETATM    3  H   UNL     1      -3.274   2.461 -30.142  1.00  0.00     0.278 HD
HETATM    4  H   UNL     1      -4.014   1.866 -31.449  1.00  0.00     0.278 HD
HETATM    5  C   UNL     1      -3.294   3.824 -31.693  1.00  0.00     0.209 C 
HETATM    6  C   UNL     1      -3.424   5.168 -30.945  1.00  0.00     0.115 C 
HETATM    7  N   UNL     1      -4.810   5.450 -30.591  1.00  0.00    -0.353 N 
HETATM    8  C   UNL     1      -5.710   4.506 -30.181  1.00  0.00     0.249 C 
HETATM    9  O   UNL     1      -6.820   4.849 -29.788  1.00  0.00    -0.271 OA
HETATM   10  C   UNL     1      -3.905   3.863 -33.095  1.00  0.00     0.035 C 
HETATM   11  C   UNL     1      -3.304   5.008 -33.911  1.00  0.00     0.002 C 
HETATM   12  C   UNL     1      -3.428   6.350 -33.192  1.00  0.00     0.002 C 
HETATM   13  C   UNL     1      -2.833   6.303 -31.784  1.00  0.00     0.027 C 
HETATM   14  H   UNL     1      -5.115   6.412 -30.456  1.00  0.00     0.163 HD
ENDROOT
BRANCH   1  15
HETATM   15  C   UNL     1      -6.392   2.157 -30.789  1.00  0.00     0.146 C 
BRANCH  15  16
HETATM   16  C   UNL     1      -5.727   0.890 -31.259  1.00  0.00     0.224 C 
HETATM   17  N   UNL     1      -6.014   0.562 -32.558  1.00  0.00    -0.327 N 
HETATM   18  H   UNL     1      -6.396   1.313 -33.126  1.00  0.00     0.169 HD
HETATM   19  O   UNL     1      -5.170   0.226 -30.389  1.00  0.00    -0.273 OA
BRANCH  17  20
HETATM   20  C   UNL     1      -5.883  -0.657 -33.274  1.00  0.00     0.040 A 
HETATM   21  C   UNL     1      -4.723  -1.412 -33.524  1.00  0.00    -0.035 A 
HETATM   22  C   UNL     1      -4.848  -2.642 -34.217  1.00  0.00     0.015 A 
HETATM   23  C   UNL     1      -3.322  -1.039 -33.135  1.00  0.00     0.050 C 
HETATM   24  C   UNL     1      -6.078  -3.124 -34.674  1.00  0.00    -0.061 A 
HETATM   25  C   UNL     1      -6.175  -4.439 -35.388  1.00  0.00     0.048 C 
HETATM   26  C   UNL     1      -7.218  -2.373 -34.422  1.00  0.00     0.009 A 
HETATM   27  C   UNL     1      -7.117  -1.159 -33.741  1.00  0.00     0.030 A 
ENDBRANCH  17  20
ENDBRANCH  15  16
ENDBRANCH   1  15
TORSDOF 3
ENDMDL
MODEL 7
REMARK VINA RESULT:      -7.9      4.878      6.829
REMARK  3 active torsions:
REMARK  status: ('A' for Active; 'I' for Inactive)
REMARK    1  A    between atoms: C_6  and  N_7 
REMARK       I    between atoms: N_7  and  C_8 
REMARK    2  A    between atoms: C_8  and  C_9 
REMARK    3  A    between atoms: C_9  and  C_10 
ROOT
HETATM    1  C   UNL     1      -9.464   1.505 -33.282  1.00  0.00     0.286 C 
HETATM    2  N   UNL     1      -9.142   3.006 -33.362  1.00  0.00    -0.056 N 
HETATM    3  H   UNL     1      -8.700   3.266 -32.470  1.00  0.00     0.278 HD
HETATM    4  H   UNL     1      -8.369   3.154 -34.047  1.00  0.00     0.278 HD
HETATM    5  C   UNL     1     -10.265   3.954 -33.628  1.00  0.00     0.209 C 
HETATM    6  C   UNL     1     -11.496   3.544 -32.791  1.00  0.00     0.115 C 
HETATM    7  N   UNL     1     -11.854   2.149 -33.019  1.00  0.00    -0.353 N 
HETATM    8  C   UNL     1     -10.951   1.138 -33.194  1.00  0.00     0.249 C 
HETATM    9  O   UNL     1     -11.337  -0.024 -33.259  1.00  0.00    -0.271 OA
HETATM   10  C   UNL     1     -10.560   4.015 -35.128  1.00  0.00     0.035 C 
HETATM   11  C   UNL     1     -11.747   4.937 -35.406  1.00  0.00     0.002 C 
HETATM   12  C   UNL     1     -12.979   4.544 -34.593  1.00  0.00     0.002 C 
HETATM   13  C   UNL     1     -12.678   4.467 -33.096  1.00  0.00     0.027 C 
HETATM   14  H   UNL     1     -12.812   1.838 -32.865  1.00  0.00     0.163 HD
ENDROOT
BRANCH   1  15
HETATM   15  C   UNL     1      -8.786   0.732 -34.421  1.00  0.00     0.146 C 
BRANCH  15  16
HETATM   16  C   UNL     1      -7.625   0.000 -33.800  1.00  0.00     0.224 C 
HETATM   17  N   UNL     1      -6.935  -0.792 -34.678  1.00  0.00    -0.327 N 
HETATM   18  H   UNL     1      -7.093  -0.597 -35.663  1.00  0.00     0.169 HD
HETATM   19  O   UNL     1      -7.553   0.059 -32.575  1.00  0.00    -0.273 OA
BRANCH  17  20
HETATM   20  C   UNL     1      -6.027  -1.863 -34.468  1.00  0.00     0.040 A 
HETATM   21  C   UNL     1      -4.760  -1.839 -33.857  1.00  0.00    -0.035 A 
HETATM   22  C   UNL     1      -4.055  -3.058 -33.704  1.00  0.00     0.015 A 
HETATM   23  C   UNL     1      -4.048  -0.621 -33.344  1.00  0.00     0.050 C 
HETATM   24  C   UNL     1      -4.563  -4.281 -34.151  1.00  0.00    -0.061 A 
HETATM   25  C   UNL     1      -3.797  -5.554 -33.955  1.00  0.00     0.048 C 
HETATM   26  C   UNL     1      -5.815  -4.297 -34.753  1.00  0.00     0.009 A 
HETATM   27  C   UNL     1      -6.526  -3.107 -34.913  1.00  0.00     0.030 A 
ENDBRANCH  17  20
ENDBRANCH  15  16
ENDBRANCH   1  15
TORSDOF 3
ENDMDL
MODEL 8
REMARK VINA RESULT:      -7.8      4.654      9.502
REMARK  3 active torsions:
REMARK  status: ('A' for Active; 'I' for Inactive)
REMARK    1  A    between atoms: C_6  and  N_7 
REMARK       I    between atoms: N_7  and  C_8 
REMARK    2  A    between atoms: C_8  and  C_9 
REMARK    3  A    between atoms: C_9  and  C_10 
ROOT
HETATM    1  C   UNL     1      -2.075   7.065 -30.991  1.00  0.00     0.286 C 
HETATM    2  N   UNL     1      -2.367   5.558 -31.086  1.00  0.00    -0.056 N 
HETATM    3  H   UNL     1      -1.532   5.068 -30.739  1.00  0.00     0.278 HD
HETATM    4  H   UNL     1      -3.088   5.304 -30.377  1.00  0.00     0.278 HD
HETATM    5  C   UNL     1      -2.725   4.994 -32.423  1.00  0.00     0.209 C 
HETATM    6  C   UNL     1      -1.803   5.601 -33.503  1.00  0.00     0.115 C 
HETATM    7  N   UNL     1      -1.829   7.058 -33.468  1.00  0.00    -0.353 N 
HETATM    8  C   UNL     1      -1.894   7.802 -32.323  1.00  0.00     0.249 C 
HETATM    9  O   UNL     1      -1.789   9.023 -32.379  1.00  0.00    -0.271 OA
HETATM   10  C   UNL     1      -4.209   5.223 -32.711  1.00  0.00     0.035 C 
HETATM   11  C   UNL     1      -4.573   4.702 -34.101  1.00  0.00     0.002 C 
HETATM   12  C   UNL     1      -3.678   5.296 -35.187  1.00  0.00     0.002 C 
HETATM   13  C   UNL     1      -2.194   5.081 -34.888  1.00  0.00     0.027 C 
HETATM   14  H   UNL     1      -1.606   7.591 -34.307  1.00  0.00     0.163 HD
ENDROOT
BRANCH   1  15
HETATM   15  C   UNL     1      -3.119   7.775 -30.119  1.00  0.00     0.146 C 
BRANCH  15  16
HETATM   16  C   UNL     1      -2.490   7.941 -28.760  1.00  0.00     0.224 C 
HETATM   17  N   UNL     1      -1.213   8.433 -28.797  1.00  0.00    -0.327 N 
HETATM   18  H   UNL     1      -0.938   8.878 -29.668  1.00  0.00     0.169 HD
HETATM   19  O   UNL     1      -3.116   7.455 -27.822  1.00  0.00    -0.273 OA
BRANCH  17  20
HETATM   20  C   UNL     1      -0.174   8.433 -27.828  1.00  0.00     0.040 A 
HETATM   21  C   UNL     1       0.718   7.399 -27.492  1.00  0.00    -0.035 A 
HETATM   22  C   UNL     1       1.723   7.654 -26.526  1.00  0.00     0.015 A 
HETATM   23  C   UNL     1       0.714   6.008 -28.056  1.00  0.00     0.050 C 
HETATM   24  C   UNL     1       1.849   8.889 -25.883  1.00  0.00    -0.061 A 
HETATM   25  C   UNL     1       2.936   9.128 -24.879  1.00  0.00     0.048 C 
HETATM   26  C   UNL     1       0.965   9.905 -26.221  1.00  0.00     0.009 A 
HETATM   27  C   UNL     1      -0.031   9.674 -27.171  1.00  0.00     0.030 A 
ENDBRANCH  17  20
ENDBRANCH  15  16
ENDBRANCH   1  15
TORSDOF 3
ENDMDL
MODEL 9
REMARK VINA RESULT:      -7.7     16.426     18.766
REMARK  3 active torsions:
REMARK  status: ('A' for Active; 'I' for Inactive)
REMARK    1  A    between atoms: C_6  and  N_7 
REMARK       I    between atoms: N_7  and  C_8 
REMARK    2  A    between atoms: C_8  and  C_9 
REMARK    3  A    between atoms: C_9  and  C_10 
ROOT
HETATM    1  C   UNL     1      -6.329 -13.495 -38.863  1.00  0.00     0.286 C 
HETATM    2  N   UNL     1      -7.573 -13.222 -38.001  1.00  0.00    -0.056 N 
HETATM    3  H   UNL     1      -7.450 -13.744 -37.123  1.00  0.00     0.278 HD
HETATM    4  H   UNL     1      -7.554 -12.230 -37.678  1.00  0.00     0.278 HD
HETATM    5  C   UNL     1      -8.912 -13.562 -38.570  1.00  0.00     0.209 C 
HETATM    6  C   UNL     1      -8.838 -14.929 -39.282  1.00  0.00     0.115 C 
HETATM    7  N   UNL     1      -7.769 -14.957 -40.273  1.00  0.00    -0.353 N 
HETATM    8  C   UNL     1      -6.551 -14.358 -40.112  1.00  0.00     0.249 C 
HETATM    9  O   UNL     1      -5.667 -14.533 -40.944  1.00  0.00    -0.271 OA
HETATM   10  C   UNL     1      -9.396 -12.438 -39.488  1.00  0.00     0.035 C 
HETATM   11  C   UNL     1     -10.738 -12.802 -40.122  1.00  0.00     0.002 C 
HETATM   12  C   UNL     1     -10.686 -14.150 -40.839  1.00  0.00     0.002 C 
HETATM   13  C   UNL     1     -10.186 -15.268 -39.924  1.00  0.00     0.027 C 
HETATM   14  H   UNL     1      -7.824 -15.597 -41.063  1.00  0.00     0.163 HD
ENDROOT
BRANCH   1  15
HETATM   15  C   UNL     1      -5.615 -12.188 -39.232  1.00  0.00     0.146 C 
BRANCH  15  16
HETATM   16  C   UNL     1      -4.174 -12.369 -38.831  1.00  0.00     0.224 C 
HETATM   17  N   UNL     1      -3.406 -12.983 -39.785  1.00  0.00    -0.327 N 
HETATM   18  H   UNL     1      -3.798 -12.997 -40.723  1.00  0.00     0.169 HD
HETATM   19  O   UNL     1      -3.912 -12.117 -37.658  1.00  0.00    -0.273 OA
BRANCH  17  20
HETATM   20  C   UNL     1      -2.142 -13.624 -39.708  1.00  0.00     0.040 A 
HETATM   21  C   UNL     1      -1.557 -14.531 -40.611  1.00  0.00    -0.035 A 
HETATM   22  C   UNL     1      -0.243 -14.997 -40.353  1.00  0.00     0.015 A 
HETATM   23  C   UNL     1      -2.197 -15.083 -41.851  1.00  0.00     0.050 C 
HETATM   24  C   UNL     1       0.485 -14.602 -39.226  1.00  0.00    -0.061 A 
HETATM   25  C   UNL     1       1.879 -15.101 -38.995  1.00  0.00     0.048 C 
HETATM   26  C   UNL     1      -0.100 -13.706 -38.341  1.00  0.00     0.009 A 
HETATM   27  C   UNL     1      -1.392 -13.235 -38.577  1.00  0.00     0.030 A 
ENDBRANCH  17  20
ENDBRANCH  15  16
ENDBRANCH   1  15
TORSDOF 3
ENDMDL
MODEL 10
REMARK VINA RESULT:      -7.5      5.291      8.268
REMARK  3 active torsions:
REMARK  status: ('A' for Active; 'I' for Inactive)
REMARK    1  A    between atoms: C_6  and  N_7 
REMARK       I    between atoms: N_7  and  C_8 
REMARK    2  A    between atoms: C_8  and  C_9 
REMARK    3  A    between atoms: C_9  and  C_10 
ROOT
HETATM    1  C   UNL     1      -8.927   1.529 -34.007  1.00  0.00     0.286 C 
HETATM    2  N   UNL     1      -7.548   1.859 -34.601  1.00  0.00    -0.056 N 
HETATM    3  H   UNL     1      -7.654   1.860 -35.625  1.00  0.00     0.278 HD
HETATM    4  H   UNL     1      -7.317   2.856 -34.399  1.00  0.00     0.278 HD
HETATM    5  C   UNL     1      -6.398   0.972 -34.247  1.00  0.00     0.209 C 
HETATM    6  C   UNL     1      -6.850  -0.503 -34.296  1.00  0.00     0.115 C 
HETATM    7  N   UNL     1      -8.028  -0.728 -33.466  1.00  0.00    -0.353 N 
HETATM    8  C   UNL     1      -9.062   0.157 -33.336  1.00  0.00     0.249 C 
HETATM    9  O   UNL     1     -10.068  -0.164 -32.713  1.00  0.00    -0.271 OA
HETATM   10  C   UNL     1      -5.823   1.373 -32.887  1.00  0.00     0.035 C 
HETATM   11  C   UNL     1      -4.685   0.434 -32.488  1.00  0.00     0.002 C 
HETATM   12  C   UNL     1      -5.113  -1.032 -32.522  1.00  0.00     0.002 C 
HETATM   13  C   UNL     1      -5.703  -1.425 -33.877  1.00  0.00     0.027 C 
HETATM   14  H   UNL     1      -8.215  -1.655 -33.089  1.00  0.00     0.163 HD
ENDROOT
BRANCH   1  15
HETATM   15  C   UNL     1      -9.399   2.640 -33.059  1.00  0.00     0.146 C 
BRANCH  15  16
HETATM   16  C   UNL     1     -10.809   2.974 -33.473  1.00  0.00     0.224 C 
HETATM   17  N   UNL     1     -11.740   2.754 -32.493  1.00  0.00    -0.327 N 
HETATM   18  H   UNL     1     -11.373   2.663 -31.550  1.00  0.00     0.169 HD
HETATM   19  O   UNL     1     -10.969   3.222 -34.665  1.00  0.00    -0.273 OA
BRANCH  17  20
HETATM   20  C   UNL     1     -13.153   2.619 -32.549  1.00  0.00     0.040 A 
HETATM   21  C   UNL     1     -13.918   1.580 -33.109  1.00  0.00    -0.035 A 
HETATM   22  C   UNL     1     -15.329   1.633 -32.988  1.00  0.00     0.015 A 
HETATM   23  C   UNL     1     -13.386   0.391 -33.853  1.00  0.00     0.050 C 
HETATM   24  C   UNL     1     -15.989   2.687 -32.348  1.00  0.00    -0.061 A 
HETATM   25  C   UNL     1     -17.482   2.701 -32.223  1.00  0.00     0.048 C 
HETATM   26  C   UNL     1     -15.226   3.708 -31.797  1.00  0.00     0.009 A 
HETATM   27  C   UNL     1     -13.835   3.675 -31.904  1.00  0.00     0.030 A 
ENDBRANCH  17  20
ENDBRANCH  15  16
ENDBRANCH   1  15
TORSDOF 3
ENDMDL
