MODEL 1
REMARK VINA RESULT:      -8.7      0.000      0.000
REMARK  5 active torsions:
REMARK  status: ('A' for Active; 'I' for Inactive)
REMARK    1  A    between atoms: O_2  and  C_3 
REMARK    2  A    between atoms: C_4  and  N_5 
REMARK       I    between atoms: N_5  and  C_6 
REMARK       I    between atoms: C_6  and  N_7 
REMARK    3  A    between atoms: N_7  and  N_8 
REMARK       I    between atoms: N_8  and  C_9 
REMARK    4  A    between atoms: C_9  and  C_10 
REMARK    5  A    between atoms: C_11  and  N_12 
ROOT
HETATM    1  N   UNL     1      -4.415   0.858 -31.883  1.00  0.00    -0.262 N 
HETATM    2  C   UNL     1      -5.339  -0.170 -31.801  1.00  0.00     0.272 C 
HETATM    3  O   UNL     1      -6.095  -0.334 -30.849  1.00  0.00    -0.266 OA
HETATM    4  H   UNL     1      -3.920   1.058 -32.750  1.00  0.00     0.190 HD
ENDROOT
BRANCH   1   5
HETATM    5  N   UNL     1      -4.569   1.944 -31.002  1.00  0.00    -0.249 N 
HETATM    6  C   UNL     1      -4.161   3.210 -31.366  1.00  0.00     0.339 C 
HETATM    7  N   UNL     1      -3.056   3.216 -32.179  1.00  0.00    -0.305 N 
HETATM    8  O   UNL     1      -4.766   4.190 -30.945  1.00  0.00    -0.245 OA
HETATM    9  H   UNL     1      -2.477   2.385 -32.113  1.00  0.00     0.171 HD
HETATM   10  H   UNL     1      -5.377   1.908 -30.386  1.00  0.00     0.192 HD
BRANCH   7  11
HETATM   11  C   UNL     1      -2.451   4.345 -32.763  1.00  0.00     0.069 A 
HETATM   12  C   UNL     1      -1.393   4.962 -32.075  1.00  0.00     0.095 A 
HETATM   13  C   UNL     1      -0.716   6.048 -32.641  1.00  0.00     0.039 A 
HETATM   14  C   UNL     1      -1.117   6.545 -33.881  1.00  0.00     0.003 A 
HETATM   15  C   UNL     1      -2.185   5.955 -34.555  1.00  0.00     0.002 A 
HETATM   16  C   UNL     1      -2.849   4.858 -34.000  1.00  0.00     0.032 A 
BRANCH  12  17
HETATM   17  O   UNL     1      -1.046   4.455 -30.846  1.00  0.00    -0.354 OA
HETATM   18  C   UNL     1      -0.003   5.208 -30.224  1.00  0.00     0.210 C 
ENDBRANCH  12  17
ENDBRANCH   7  11
ENDBRANCH   1   5
BRANCH   2  19
HETATM   19  C   UNL     1      -5.485  -1.021 -33.017  1.00  0.00     0.060 A 
HETATM   20  C   UNL     1      -6.612  -1.092 -33.856  1.00  0.00     0.054 A 
HETATM   21  C   UNL     1      -6.678  -2.112 -34.828  1.00  0.00     0.031 A 
HETATM   22  C   UNL     1      -5.625  -3.013 -34.995  1.00  0.00     0.002 A 
HETATM   23  C   UNL     1      -4.491  -2.913 -34.197  1.00  0.00     0.001 A 
HETATM   24  C   UNL     1      -4.423  -1.926 -33.215  1.00  0.00     0.019 A 
BRANCH  20  25
HETATM   25  N   UNL     1      -7.672  -0.144 -33.818  1.00  0.00    -0.332 N 
HETATM   26  C   UNL     1      -8.839  -0.231 -33.088  1.00  0.00     0.096 A 
HETATM   27  C   UNL     1      -9.606   0.888 -33.328  1.00  0.00     0.019 A 
HETATM   28  C   UNL     1      -8.886   1.707 -34.221  1.00  0.00     0.019 A 
HETATM   29  C   UNL     1      -7.696   1.067 -34.486  1.00  0.00     0.096 A 
ENDBRANCH  20  25
ENDBRANCH   2  19
TORSDOF 5
ENDMDL
MODEL 2
REMARK VINA RESULT:      -8.4      1.001      1.828
REMARK  5 active torsions:
REMARK  status: ('A' for Active; 'I' for Inactive)
REMARK    1  A    between atoms: O_2  and  C_3 
REMARK    2  A    between atoms: C_4  and  N_5 
REMARK       I    between atoms: N_5  and  C_6 
REMARK       I    between atoms: C_6  and  N_7 
REMARK    3  A    between atoms: N_7  and  N_8 
REMARK       I    between atoms: N_8  and  C_9 
REMARK    4  A    between atoms: C_9  and  C_10 
REMARK    5  A    between atoms: C_11  and  N_12 
ROOT
HETATM    1  N   UNL     1      -4.660   1.192 -31.553  1.00  0.00    -0.262 N 
HETATM    2  C   UNL     1      -5.570   0.148 -31.543  1.00  0.00     0.272 C 
HETATM    3  O   UNL     1      -6.375  -0.047 -30.638  1.00  0.00    -0.266 OA
HETATM    4  H   UNL     1      -4.121   1.418 -32.386  1.00  0.00     0.190 HD
ENDROOT
BRANCH   1   5
HETATM    5  N   UNL     1      -4.883   2.258 -30.661  1.00  0.00    -0.249 N 
HETATM    6  C   UNL     1      -4.297   3.488 -30.874  1.00  0.00     0.339 C 
HETATM    7  N   UNL     1      -3.060   3.411 -31.461  1.00  0.00    -0.305 N 
HETATM    8  O   UNL     1      -4.880   4.509 -30.525  1.00  0.00    -0.245 OA
HETATM    9  H   UNL     1      -2.583   2.525 -31.330  1.00  0.00     0.171 HD
HETATM   10  H   UNL     1      -5.794   2.282 -30.213  1.00  0.00     0.192 HD
BRANCH   7  11
HETATM   11  C   UNL     1      -2.252   4.493 -31.859  1.00  0.00     0.069 A 
HETATM   12  C   UNL     1      -2.507   5.089 -33.106  1.00  0.00     0.095 A 
HETATM   13  C   UNL     1      -1.776   6.207 -33.521  1.00  0.00     0.039 A 
HETATM   14  C   UNL     1      -0.762   6.713 -32.709  1.00  0.00     0.003 A 
HETATM   15  C   UNL     1      -0.485   6.108 -31.483  1.00  0.00     0.002 A 
HETATM   16  C   UNL     1      -1.228   5.004 -31.059  1.00  0.00     0.032 A 
BRANCH  12  17
HETATM   17  O   UNL     1      -3.500   4.544 -33.885  1.00  0.00    -0.354 OA
HETATM   18  C   UNL     1      -3.680   5.257 -35.110  1.00  0.00     0.210 C 
ENDBRANCH  12  17
ENDBRANCH   7  11
ENDBRANCH   1   5
BRANCH   2  19
HETATM   19  C   UNL     1      -5.633  -0.681 -32.781  1.00  0.00     0.060 A 
HETATM   20  C   UNL     1      -6.727  -0.789 -33.659  1.00  0.00     0.054 A 
HETATM   21  C   UNL     1      -6.710  -1.788 -34.654  1.00  0.00     0.031 A 
HETATM   22  C   UNL     1      -5.607  -2.630 -34.805  1.00  0.00     0.002 A 
HETATM   23  C   UNL     1      -4.506  -2.491 -33.969  1.00  0.00     0.001 A 
HETATM   24  C   UNL     1      -4.520  -1.526 -32.963  1.00  0.00     0.019 A 
BRANCH  20  25
HETATM   25  N   UNL     1      -7.835   0.103 -33.635  1.00  0.00    -0.332 N 
HETATM   26  C   UNL     1      -9.035  -0.078 -32.976  1.00  0.00     0.096 A 
HETATM   27  C   UNL     1      -9.844   1.013 -33.206  1.00  0.00     0.019 A 
HETATM   28  C   UNL     1      -9.121   1.910 -34.016  1.00  0.00     0.019 A 
HETATM   29  C   UNL     1      -7.886   1.343 -34.245  1.00  0.00     0.096 A 
ENDBRANCH  20  25
ENDBRANCH   2  19
TORSDOF 5
ENDMDL
MODEL 3
REMARK VINA RESULT:      -7.9      2.354      7.412
REMARK  5 active torsions:
REMARK  status: ('A' for Active; 'I' for Inactive)
REMARK    1  A    between atoms: O_2  and  C_3 
REMARK    2  A    between atoms: C_4  and  N_5 
REMARK       I    between atoms: N_5  and  C_6 
REMARK       I    between atoms: C_6  and  N_7 
REMARK    3  A    between atoms: N_7  and  N_8 
REMARK       I    between atoms: N_8  and  C_9 
REMARK    4  A    between atoms: C_9  and  C_10 
REMARK    5  A    between atoms: C_11  and  N_12 
ROOT
HETATM    1  N   UNL     1      -4.785   3.282 -32.739  1.00  0.00    -0.262 N 
HETATM    2  C   UNL     1      -4.690   4.328 -33.641  1.00  0.00     0.272 C 
HETATM    3  O   UNL     1      -5.583   4.640 -34.421  1.00  0.00    -0.266 OA
HETATM    4  H   UNL     1      -4.095   3.153 -32.002  1.00  0.00     0.190 HD
ENDROOT
BRANCH   1   5
HETATM    5  N   UNL     1      -6.067   2.766 -32.474  1.00  0.00    -0.249 N 
HETATM    6  C   UNL     1      -6.328   1.420 -32.617  1.00  0.00     0.339 C 
HETATM    7  N   UNL     1      -5.612   0.828 -33.626  1.00  0.00    -0.305 N 
HETATM    8  O   UNL     1      -7.152   0.878 -31.888  1.00  0.00    -0.245 OA
HETATM    9  H   UNL     1      -5.289   1.464 -34.347  1.00  0.00     0.171 HD
HETATM   10  H   UNL     1      -6.596   3.236 -31.744  1.00  0.00     0.192 HD
BRANCH   7  11
HETATM   11  C   UNL     1      -5.615  -0.539 -33.967  1.00  0.00     0.069 A 
HETATM   12  C   UNL     1      -4.459  -1.292 -33.703  1.00  0.00     0.095 A 
HETATM   13  C   UNL     1      -4.432  -2.666 -33.963  1.00  0.00     0.039 A 
HETATM   14  C   UNL     1      -5.549  -3.288 -34.521  1.00  0.00     0.003 A 
HETATM   15  C   UNL     1      -6.689  -2.540 -34.812  1.00  0.00     0.002 A 
HETATM   16  C   UNL     1      -6.724  -1.171 -34.534  1.00  0.00     0.032 A 
BRANCH  12  17
HETATM   17  O   UNL     1      -3.374  -0.635 -33.175  1.00  0.00    -0.354 OA
HETATM   18  C   UNL     1      -2.946  -1.204 -31.936  1.00  0.00     0.210 C 
ENDBRANCH  12  17
ENDBRANCH   7  11
ENDBRANCH   1   5
BRANCH   2  19
HETATM   19  C   UNL     1      -3.471   5.181 -33.531  1.00  0.00     0.060 A 
HETATM   20  C   UNL     1      -3.297   6.281 -32.673  1.00  0.00     0.054 A 
HETATM   21  C   UNL     1      -2.178   7.120 -32.853  1.00  0.00     0.031 A 
HETATM   22  C   UNL     1      -1.225   6.843 -33.836  1.00  0.00     0.002 A 
HETATM   23  C   UNL     1      -1.373   5.729 -34.653  1.00  0.00     0.001 A 
HETATM   24  C   UNL     1      -2.489   4.906 -34.504  1.00  0.00     0.019 A 
BRANCH  20  25
HETATM   25  N   UNL     1      -4.165   6.562 -31.581  1.00  0.00    -0.332 N 
HETATM   26  C   UNL     1      -3.946   6.275 -30.249  1.00  0.00     0.096 A 
HETATM   27  C   UNL     1      -5.028   6.704 -29.512  1.00  0.00     0.019 A 
HETATM   28  C   UNL     1      -5.940   7.295 -30.409  1.00  0.00     0.019 A 
HETATM   29  C   UNL     1      -5.379   7.219 -31.665  1.00  0.00     0.096 A 
ENDBRANCH  20  25
ENDBRANCH   2  19
TORSDOF 5
ENDMDL
MODEL 4
REMARK VINA RESULT:      -7.9      1.983      3.196
REMARK  5 active torsions:
REMARK  status: ('A' for Active; 'I' for Inactive)
REMARK    1  A    between atoms: O_2  and  C_3 
REMARK    2  A    between atoms: C_4  and  N_5 
REMARK       I    between atoms: N_5  and  C_6 
REMARK       I    between atoms: C_6  and  N_7 
REMARK    3  A    between atoms: N_7  and  N_8 
REMARK       I    between atoms: N_8  and  C_9 
REMARK    4  A    between atoms: C_9  and  C_10 
REMARK    5  A    between atoms: C_11  and  N_12 
ROOT
HETATM    1  N   UNL     1      -5.529   3.545 -31.130  1.00  0.00    -0.262 N 
HETATM    2  C   UNL     1      -5.352   2.859 -32.320  1.00  0.00     0.272 C 
HETATM    3  O   UNL     1      -5.564   3.345 -33.426  1.00  0.00    -0.266 OA
HETATM    4  H   UNL     1      -5.193   3.169 -30.246  1.00  0.00     0.190 HD
ENDROOT
BRANCH   1   5
HETATM    5  N   UNL     1      -5.637   4.947 -31.196  1.00  0.00    -0.249 N 
HETATM    6  C   UNL     1      -4.512   5.735 -31.310  1.00  0.00     0.339 C 
HETATM    7  N   UNL     1      -3.417   5.222 -30.663  1.00  0.00    -0.305 N 
HETATM    8  O   UNL     1      -4.569   6.793 -31.929  1.00  0.00    -0.245 OA
HETATM    9  H   UNL     1      -3.632   4.575 -29.913  1.00  0.00     0.171 HD
HETATM   10  H   UNL     1      -6.470   5.310 -31.652  1.00  0.00     0.192 HD
BRANCH   7  11
HETATM   11  C   UNL     1      -2.116   5.764 -30.656  1.00  0.00     0.069 A 
HETATM   12  C   UNL     1      -1.195   5.292 -31.606  1.00  0.00     0.095 A 
HETATM   13  C   UNL     1       0.089   5.842 -31.684  1.00  0.00     0.039 A 
HETATM   14  C   UNL     1       0.470   6.841 -30.789  1.00  0.00     0.003 A 
HETATM   15  C   UNL     1      -0.430   7.293 -29.825  1.00  0.00     0.002 A 
HETATM   16  C   UNL     1      -1.720   6.759 -29.760  1.00  0.00     0.032 A 
BRANCH  12  17
HETATM   17  O   UNL     1      -1.605   4.291 -32.453  1.00  0.00    -0.354 OA
HETATM   18  C   UNL     1      -1.819   4.761 -33.786  1.00  0.00     0.210 C 
ENDBRANCH  12  17
ENDBRANCH   7  11
ENDBRANCH   1   5
BRANCH   2  19
HETATM   19  C   UNL     1      -4.740   1.504 -32.212  1.00  0.00     0.060 A 
HETATM   20  C   UNL     1      -5.331   0.287 -32.600  1.00  0.00     0.054 A 
HETATM   21  C   UNL     1      -4.716  -0.924 -32.221  1.00  0.00     0.031 A 
HETATM   22  C   UNL     1      -3.514  -0.926 -31.511  1.00  0.00     0.002 A 
HETATM   23  C   UNL     1      -2.906   0.276 -31.168  1.00  0.00     0.001 A 
HETATM   24  C   UNL     1      -3.516   1.481 -31.513  1.00  0.00     0.019 A 
BRANCH  20  25
HETATM   25  N   UNL     1      -6.494   0.212 -33.416  1.00  0.00    -0.332 N 
HETATM   26  C   UNL     1      -6.539   0.105 -34.791  1.00  0.00     0.096 A 
HETATM   27  C   UNL     1      -7.855   0.064 -35.197  1.00  0.00     0.019 A 
HETATM   28  C   UNL     1      -8.654   0.128 -34.039  1.00  0.00     0.019 A 
HETATM   29  C   UNL     1      -7.799   0.193 -32.961  1.00  0.00     0.096 A 
ENDBRANCH  20  25
ENDBRANCH   2  19
TORSDOF 5
ENDMDL
MODEL 5
REMARK VINA RESULT:      -7.9      5.012     10.069
REMARK  5 active torsions:
REMARK  status: ('A' for Active; 'I' for Inactive)
REMARK    1  A    between atoms: O_2  and  C_3 
REMARK    2  A    between atoms: C_4  and  N_5 
REMARK       I    between atoms: N_5  and  C_6 
REMARK       I    between atoms: C_6  and  N_7 
REMARK    3  A    between atoms: N_7  and  N_8 
REMARK       I    between atoms: N_8  and  C_9 
REMARK    4  A    between atoms: C_9  and  C_10 
REMARK    5  A    between atoms: C_11  and  N_12 
ROOT
HETATM    1  N   UNL     1       0.534   6.550 -28.069  1.00  0.00    -0.262 N 
HETATM    2  C   UNL     1       0.024   6.611 -26.783  1.00  0.00     0.272 C 
HETATM    3  O   UNL     1      -0.515   5.665 -26.218  1.00  0.00    -0.266 OA
HETATM    4  H   UNL     1       1.114   7.298 -28.444  1.00  0.00     0.190 HD
ENDROOT
BRANCH   1   5
HETATM    5  N   UNL     1       0.742   5.276 -28.628  1.00  0.00    -0.249 N 
HETATM    6  C   UNL     1       0.479   5.040 -29.961  1.00  0.00     0.339 C 
HETATM    7  N   UNL     1      -0.571   5.775 -30.450  1.00  0.00    -0.305 N 
HETATM    8  O   UNL     1       1.151   4.221 -30.578  1.00  0.00    -0.245 OA
HETATM    9  H   UNL     1      -1.230   6.092 -29.747  1.00  0.00     0.171 HD
HETATM   10  H   UNL     1       1.505   4.733 -28.233  1.00  0.00     0.192 HD
BRANCH   7  11
HETATM   11  C   UNL     1      -1.029   5.799 -31.781  1.00  0.00     0.069 A 
HETATM   12  C   UNL     1      -1.812   4.723 -32.234  1.00  0.00     0.095 A 
HETATM   13  C   UNL     1      -2.345   4.728 -33.527  1.00  0.00     0.039 A 
HETATM   14  C   UNL     1      -2.068   5.791 -34.387  1.00  0.00     0.003 A 
HETATM   15  C   UNL     1      -1.268   6.848 -33.953  1.00  0.00     0.002 A 
HETATM   16  C   UNL     1      -0.752   6.853 -32.654  1.00  0.00     0.032 A 
BRANCH  12  17
HETATM   17  O   UNL     1      -2.039   3.686 -31.362  1.00  0.00    -0.354 OA
HETATM   18  C   UNL     1      -3.380   3.197 -31.440  1.00  0.00     0.210 C 
ENDBRANCH  12  17
ENDBRANCH   7  11
ENDBRANCH   1   5
BRANCH   2  19
HETATM   19  C   UNL     1       0.286   7.871 -26.030  1.00  0.00     0.060 A 
HETATM   20  C   UNL     1      -0.655   8.869 -25.717  1.00  0.00     0.054 A 
HETATM   21  C   UNL     1      -0.202  10.101 -25.204  1.00  0.00     0.031 A 
HETATM   22  C   UNL     1       1.155  10.321 -24.962  1.00  0.00     0.002 A 
HETATM   23  C   UNL     1       2.081   9.318 -25.227  1.00  0.00     0.001 A 
HETATM   24  C   UNL     1       1.650   8.104 -25.760  1.00  0.00     0.019 A 
BRANCH  20  25
HETATM   25  N   UNL     1      -2.060   8.677 -25.834  1.00  0.00    -0.332 N 
HETATM   26  C   UNL     1      -2.847   8.943 -26.936  1.00  0.00     0.096 A 
HETATM   27  C   UNL     1      -4.155   8.624 -26.644  1.00  0.00     0.019 A 
HETATM   28  C   UNL     1      -4.181   8.124 -25.326  1.00  0.00     0.019 A 
HETATM   29  C   UNL     1      -2.885   8.143 -24.861  1.00  0.00     0.096 A 
ENDBRANCH  20  25
ENDBRANCH   2  19
TORSDOF 5
ENDMDL
MODEL 6
REMARK VINA RESULT:      -7.5      1.212      3.122
REMARK  5 active torsions:
REMARK  status: ('A' for Active; 'I' for Inactive)
REMARK    1  A    between atoms: O_2  and  C_3 
REMARK    2  A    between atoms: C_4  and  N_5 
REMARK       I    between atoms: N_5  and  C_6 
REMARK       I    between atoms: C_6  and  N_7 
REMARK    3  A    between atoms: N_7  and  N_8 
REMARK       I    between atoms: N_8  and  C_9 
REMARK    4  A    between atoms: C_9  and  C_10 
REMARK    5  A    between atoms: C_11  and  N_12 
ROOT
HETATM    1  N   UNL     1      -4.665   1.207 -31.839  1.00  0.00    -0.262 N 
HETATM    2  C   UNL     1      -5.623   0.223 -31.663  1.00  0.00     0.272 C 
HETATM    3  O   UNL     1      -6.104  -0.074 -30.575  1.00  0.00    -0.266 OA
HETATM    4  H   UNL     1      -4.408   1.537 -32.767  1.00  0.00     0.190 HD
ENDROOT
BRANCH   1   5
HETATM    5  N   UNL     1      -4.473   2.125 -30.790  1.00  0.00    -0.249 N 
HETATM    6  C   UNL     1      -4.000   3.395 -31.042  1.00  0.00     0.339 C 
HETATM    7  N   UNL     1      -3.120   3.453 -32.092  1.00  0.00    -0.305 N 
HETATM    8  O   UNL     1      -4.363   4.331 -30.337  1.00  0.00    -0.245 OA
HETATM    9  H   UNL     1      -2.653   2.578 -32.302  1.00  0.00     0.171 HD
HETATM   10  H   UNL     1      -5.116   2.048 -30.006  1.00  0.00     0.192 HD
BRANCH   7  11
HETATM   11  C   UNL     1      -2.526   4.614 -32.625  1.00  0.00     0.069 A 
HETATM   12  C   UNL     1      -1.359   5.102 -32.015  1.00  0.00     0.095 A 
HETATM   13  C   UNL     1      -0.694   6.213 -32.543  1.00  0.00     0.039 A 
HETATM   14  C   UNL     1      -1.212   6.864 -33.663  1.00  0.00     0.003 A 
HETATM   15  C   UNL     1      -2.386   6.401 -34.256  1.00  0.00     0.002 A 
HETATM   16  C   UNL     1      -3.040   5.279 -33.740  1.00  0.00     0.032 A 
BRANCH  12  17
HETATM   17  O   UNL     1      -0.896   4.445 -30.900  1.00  0.00    -0.354 OA
HETATM   18  C   UNL     1       0.215   5.114 -30.299  1.00  0.00     0.210 C 
ENDBRANCH  12  17
ENDBRANCH   7  11
ENDBRANCH   1   5
BRANCH   2  19
HETATM   19  C   UNL     1      -6.172  -0.390 -32.907  1.00  0.00     0.060 A 
HETATM   20  C   UNL     1      -5.612  -1.460 -33.628  1.00  0.00     0.054 A 
HETATM   21  C   UNL     1      -6.126  -1.769 -34.904  1.00  0.00     0.031 A 
HETATM   22  C   UNL     1      -7.206  -1.059 -35.433  1.00  0.00     0.002 A 
HETATM   23  C   UNL     1      -7.790  -0.033 -34.700  1.00  0.00     0.001 A 
HETATM   24  C   UNL     1      -7.275   0.301 -33.448  1.00  0.00     0.019 A 
BRANCH  20  25
HETATM   25  N   UNL     1      -4.584  -2.295 -33.108  1.00  0.00    -0.332 N 
HETATM   26  C   UNL     1      -3.734  -2.013 -32.058  1.00  0.00     0.096 A 
HETATM   27  C   UNL     1      -2.881  -3.078 -31.870  1.00  0.00     0.019 A 
HETATM   28  C   UNL     1      -3.222  -4.063 -32.818  1.00  0.00     0.019 A 
HETATM   29  C   UNL     1      -4.282  -3.571 -33.548  1.00  0.00     0.096 A 
ENDBRANCH  20  25
ENDBRANCH   2  19
TORSDOF 5
ENDMDL
MODEL 7
REMARK VINA RESULT:      -7.4      1.979      7.802
REMARK  5 active torsions:
REMARK  status: ('A' for Active; 'I' for Inactive)
REMARK    1  A    between atoms: O_2  and  C_3 
REMARK    2  A    between atoms: C_4  and  N_5 
REMARK       I    between atoms: N_5  and  C_6 
REMARK       I    between atoms: C_6  and  N_7 
REMARK    3  A    between atoms: N_7  and  N_8 
REMARK       I    between atoms: N_8  and  C_9 
REMARK    4  A    between atoms: C_9  and  C_10 
REMARK    5  A    between atoms: C_11  and  N_12 
ROOT
HETATM    1  N   UNL     1      -4.084   4.137 -30.439  1.00  0.00    -0.262 N 
HETATM    2  C   UNL     1      -4.284   5.495 -30.625  1.00  0.00     0.272 C 
HETATM    3  O   UNL     1      -5.392   6.018 -30.696  1.00  0.00    -0.266 OA
HETATM    4  H   UNL     1      -3.162   3.762 -30.224  1.00  0.00     0.190 HD
ENDROOT
BRANCH   1   5
HETATM    5  N   UNL     1      -5.175   3.374 -29.986  1.00  0.00    -0.249 N 
HETATM    6  C   UNL     1      -5.391   2.099 -30.466  1.00  0.00     0.339 C 
HETATM    7  N   UNL     1      -5.013   1.936 -31.774  1.00  0.00    -0.305 N 
HETATM    8  O   UNL     1      -5.896   1.251 -29.738  1.00  0.00    -0.245 OA
HETATM    9  H   UNL     1      -4.981   2.792 -32.317  1.00  0.00     0.171 HD
HETATM   10  H   UNL     1      -5.461   3.529 -29.023  1.00  0.00     0.192 HD
BRANCH   7  11
HETATM   11  C   UNL     1      -5.049   0.738 -32.514  1.00  0.00     0.069 A 
HETATM   12  C   UNL     1      -6.160   0.500 -33.340  1.00  0.00     0.095 A 
HETATM   13  C   UNL     1      -6.215  -0.643 -34.144  1.00  0.00     0.039 A 
HETATM   14  C   UNL     1      -5.177  -1.572 -34.099  1.00  0.00     0.003 A 
HETATM   15  C   UNL     1      -4.085  -1.357 -33.260  1.00  0.00     0.002 A 
HETATM   16  C   UNL     1      -4.019  -0.205 -32.472  1.00  0.00     0.032 A 
BRANCH  12  17
HETATM   17  O   UNL     1      -7.171   1.431 -33.336  1.00  0.00    -0.354 OA
HETATM   18  C   UNL     1      -8.052   1.279 -34.451  1.00  0.00     0.210 C 
ENDBRANCH  12  17
ENDBRANCH   7  11
ENDBRANCH   1   5
BRANCH   2  19
HETATM   19  C   UNL     1      -3.063   6.350 -30.595  1.00  0.00     0.060 A 
HETATM   20  C   UNL     1      -2.084   6.444 -31.601  1.00  0.00     0.054 A 
HETATM   21  C   UNL     1      -0.878   7.119 -31.322  1.00  0.00     0.031 A 
HETATM   22  C   UNL     1      -0.668   7.730 -30.084  1.00  0.00     0.002 A 
HETATM   23  C   UNL     1      -1.655   7.678 -29.107  1.00  0.00     0.001 A 
HETATM   24  C   UNL     1      -2.841   6.991 -29.359  1.00  0.00     0.019 A 
BRANCH  20  25
HETATM   25  N   UNL     1      -2.272   5.942 -32.919  1.00  0.00    -0.332 N 
HETATM   26  C   UNL     1      -1.356   5.248 -33.683  1.00  0.00     0.096 A 
HETATM   27  C   UNL     1      -1.924   4.943 -34.901  1.00  0.00     0.019 A 
HETATM   28  C   UNL     1      -3.241   5.445 -34.888  1.00  0.00     0.019 A 
HETATM   29  C   UNL     1      -3.439   6.029 -33.656  1.00  0.00     0.096 A 
ENDBRANCH  20  25
ENDBRANCH   2  19
TORSDOF 5
ENDMDL
MODEL 8
REMARK VINA RESULT:      -7.4      1.759      3.659
REMARK  5 active torsions:
REMARK  status: ('A' for Active; 'I' for Inactive)
REMARK    1  A    between atoms: O_2  and  C_3 
REMARK    2  A    between atoms: C_4  and  N_5 
REMARK       I    between atoms: N_5  and  C_6 
REMARK       I    between atoms: C_6  and  N_7 
REMARK    3  A    between atoms: N_7  and  N_8 
REMARK       I    between atoms: N_8  and  C_9 
REMARK    4  A    between atoms: C_9  and  C_10 
REMARK    5  A    between atoms: C_11  and  N_12 
ROOT
HETATM    1  N   UNL     1      -5.452   2.517 -31.596  1.00  0.00    -0.262 N 
HETATM    2  C   UNL     1      -6.356   1.475 -31.470  1.00  0.00     0.272 C 
HETATM    3  O   UNL     1      -6.929   1.191 -30.423  1.00  0.00    -0.266 OA
HETATM    4  H   UNL     1      -5.121   2.824 -32.508  1.00  0.00     0.190 HD
ENDROOT
BRANCH   1   5
HETATM    5  N   UNL     1      -5.436   3.491 -30.580  1.00  0.00    -0.249 N 
HETATM    6  C   UNL     1      -4.639   4.610 -30.691  1.00  0.00     0.339 C 
HETATM    7  N   UNL     1      -3.462   4.380 -31.356  1.00  0.00    -0.305 N 
HETATM    8  O   UNL     1      -5.006   5.671 -30.196  1.00  0.00    -0.245 OA
HETATM    9  H   UNL     1      -3.155   3.413 -31.353  1.00  0.00     0.171 HD
HETATM   10  H   UNL     1      -6.309   3.626 -30.077  1.00  0.00     0.192 HD
BRANCH   7  11
HETATM   11  C   UNL     1      -2.481   5.338 -31.680  1.00  0.00     0.069 A 
HETATM   12  C   UNL     1      -2.604   6.028 -32.898  1.00  0.00     0.095 A 
HETATM   13  C   UNL     1      -1.694   7.034 -33.238  1.00  0.00     0.039 A 
HETATM   14  C   UNL     1      -0.634   7.329 -32.381  1.00  0.00     0.003 A 
HETATM   15  C   UNL     1      -0.490   6.628 -31.185  1.00  0.00     0.002 A 
HETATM   16  C   UNL     1      -1.411   5.637 -30.834  1.00  0.00     0.032 A 
BRANCH  12  17
HETATM   17  O   UNL     1      -3.649   5.689 -33.723  1.00  0.00    -0.354 OA
HETATM   18  C   UNL     1      -3.218   5.410 -35.057  1.00  0.00     0.210 C 
ENDBRANCH  12  17
ENDBRANCH   7  11
ENDBRANCH   1   5
BRANCH   2  19
HETATM   19  C   UNL     1      -6.726   0.770 -32.731  1.00  0.00     0.060 A 
HETATM   20  C   UNL     1      -5.919  -0.126 -33.455  1.00  0.00     0.054 A 
HETATM   21  C   UNL     1      -6.327  -0.527 -34.744  1.00  0.00     0.031 A 
HETATM   22  C   UNL     1      -7.536  -0.083 -35.283  1.00  0.00     0.002 A 
HETATM   23  C   UNL     1      -8.356   0.765 -34.548  1.00  0.00     0.001 A 
HETATM   24  C   UNL     1      -7.953   1.190 -33.283  1.00  0.00     0.019 A 
BRANCH  20  25
HETATM   25  N   UNL     1      -4.731  -0.705 -32.927  1.00  0.00    -0.332 N 
HETATM   26  C   UNL     1      -3.554  -0.053 -32.621  1.00  0.00     0.096 A 
HETATM   27  C   UNL     1      -2.645  -0.968 -32.137  1.00  0.00     0.019 A 
HETATM   28  C   UNL     1      -3.281  -2.225 -32.123  1.00  0.00     0.019 A 
HETATM   29  C   UNL     1      -4.564  -2.034 -32.587  1.00  0.00     0.096 A 
ENDBRANCH  20  25
ENDBRANCH   2  19
TORSDOF 5
ENDMDL
MODEL 9
REMARK VINA RESULT:      -7.3      3.297      7.273
REMARK  5 active torsions:
REMARK  status: ('A' for Active; 'I' for Inactive)
REMARK    1  A    between atoms: O_2  and  C_3 
REMARK    2  A    between atoms: C_4  and  N_5 
REMARK       I    between atoms: N_5  and  C_6 
REMARK       I    between atoms: C_6  and  N_7 
REMARK    3  A    between atoms: N_7  and  N_8 
REMARK       I    between atoms: N_8  and  C_9 
REMARK    4  A    between atoms: C_9  and  C_10 
REMARK    5  A    between atoms: C_11  and  N_12 
ROOT
HETATM    1  N   UNL     1      -7.334   2.732 -29.504  1.00  0.00    -0.262 N 
HETATM    2  C   UNL     1      -6.913   4.025 -29.764  1.00  0.00     0.272 C 
HETATM    3  O   UNL     1      -5.774   4.428 -29.552  1.00  0.00    -0.266 OA
HETATM    4  H   UNL     1      -8.232   2.389 -29.839  1.00  0.00     0.190 HD
ENDROOT
BRANCH   1   5
HETATM    5  N   UNL     1      -6.343   1.753 -29.301  1.00  0.00    -0.249 N 
HETATM    6  C   UNL     1      -5.921   0.952 -30.340  1.00  0.00     0.339 C 
HETATM    7  N   UNL     1      -6.910   0.661 -31.244  1.00  0.00    -0.305 N 
HETATM    8  O   UNL     1      -4.760   0.558 -30.372  1.00  0.00    -0.245 OA
HETATM    9  H   UNL     1      -7.854   0.737 -30.879  1.00  0.00     0.171 HD
HETATM   10  H   UNL     1      -5.635   1.972 -28.605  1.00  0.00     0.192 HD
BRANCH   7  11
HETATM   11  C   UNL     1      -6.767  -0.074 -32.436  1.00  0.00     0.069 A 
HETATM   12  C   UNL     1      -7.783   0.021 -33.402  1.00  0.00     0.095 A 
HETATM   13  C   UNL     1      -7.660  -0.638 -34.629  1.00  0.00     0.039 A 
HETATM   14  C   UNL     1      -6.538  -1.425 -34.884  1.00  0.00     0.003 A 
HETATM   15  C   UNL     1      -5.539  -1.548 -33.918  1.00  0.00     0.002 A 
HETATM   16  C   UNL     1      -5.652  -0.873 -32.700  1.00  0.00     0.032 A 
BRANCH  12  17
HETATM   17  O   UNL     1      -8.882   0.789 -33.101  1.00  0.00    -0.354 OA
HETATM   18  C   UNL     1     -10.019  -0.005 -32.752  1.00  0.00     0.210 C 
ENDBRANCH  12  17
ENDBRANCH   7  11
ENDBRANCH   1   5
BRANCH   2  19
HETATM   19  C   UNL     1      -7.891   4.906 -30.466  1.00  0.00     0.060 A 
HETATM   20  C   UNL     1      -7.792   5.377 -31.787  1.00  0.00     0.054 A 
HETATM   21  C   UNL     1      -8.678   6.383 -32.224  1.00  0.00     0.031 A 
HETATM   22  C   UNL     1      -9.674   6.876 -31.379  1.00  0.00     0.002 A 
HETATM   23  C   UNL     1      -9.803   6.376 -30.089  1.00  0.00     0.001 A 
HETATM   24  C   UNL     1      -8.916   5.401 -29.635  1.00  0.00     0.019 A 
BRANCH  20  25
HETATM   25  N   UNL     1      -6.875   4.845 -32.737  1.00  0.00    -0.332 N 
HETATM   26  C   UNL     1      -6.915   3.595 -33.321  1.00  0.00     0.096 A 
HETATM   27  C   UNL     1      -5.846   3.466 -34.181  1.00  0.00     0.019 A 
HETATM   28  C   UNL     1      -5.130   4.679 -34.147  1.00  0.00     0.019 A 
HETATM   29  C   UNL     1      -5.792   5.515 -33.276  1.00  0.00     0.096 A 
ENDBRANCH  20  25
ENDBRANCH   2  19
TORSDOF 5
ENDMDL
MODEL 10
REMARK VINA RESULT:      -7.2      3.949      6.250
REMARK  5 active torsions:
REMARK  status: ('A' for Active; 'I' for Inactive)
REMARK    1  A    between atoms: O_2  and  C_3 
REMARK    2  A    between atoms: C_4  and  N_5 
REMARK       I    between atoms: N_5  and  C_6 
REMARK       I    between atoms: C_6  and  N_7 
REMARK    3  A    between atoms: N_7  and  N_8 
REMARK       I    between atoms: N_8  and  C_9 
REMARK    4  A    between atoms: C_9  and  C_10 
REMARK    5  A    between atoms: C_11  and  N_12 
ROOT
HETATM    1  N   UNL     1      -8.465   1.004 -34.620  1.00  0.00    -0.262 N 
HETATM    2  C   UNL     1      -8.303   0.145 -33.547  1.00  0.00     0.272 C 
HETATM    3  O   UNL     1      -9.123   0.017 -32.644  1.00  0.00    -0.266 OA
HETATM    4  H   UNL     1      -7.846   0.967 -35.427  1.00  0.00     0.190 HD
ENDROOT
BRANCH   1   5
HETATM    5  N   UNL     1      -9.757   1.506 -34.863  1.00  0.00    -0.249 N 
HETATM    6  C   UNL     1     -10.089   2.797 -34.513  1.00  0.00     0.339 C 
HETATM    7  N   UNL     1      -9.448   3.240 -33.385  1.00  0.00    -0.305 N 
HETATM    8  O   UNL     1     -10.904   3.420 -35.186  1.00  0.00    -0.245 OA
HETATM    9  H   UNL     1      -9.127   2.506 -32.763  1.00  0.00     0.171 HD
HETATM   10  H   UNL     1     -10.229   1.144 -35.687  1.00  0.00     0.192 HD
BRANCH   7  11
HETATM   11  C   UNL     1      -9.532   4.530 -32.824  1.00  0.00     0.069 A 
HETATM   12  C   UNL     1     -10.482   4.755 -31.815  1.00  0.00     0.095 A 
HETATM   13  C   UNL     1     -10.564   5.998 -31.181  1.00  0.00     0.039 A 
HETATM   14  C   UNL     1      -9.720   7.035 -31.578  1.00  0.00     0.003 A 
HETATM   15  C   UNL     1      -8.794   6.827 -32.599  1.00  0.00     0.002 A 
HETATM   16  C   UNL     1      -8.699   5.579 -33.219  1.00  0.00     0.032 A 
BRANCH  12  17
HETATM   17  O   UNL     1     -11.310   3.712 -31.471  1.00  0.00    -0.354 OA
HETATM   18  C   UNL     1     -12.674   3.968 -31.812  1.00  0.00     0.210 C 
ENDBRANCH  12  17
ENDBRANCH   7  11
ENDBRANCH   1   5
BRANCH   2  19
HETATM   19  C   UNL     1      -7.115  -0.756 -33.600  1.00  0.00     0.060 A 
HETATM   20  C   UNL     1      -5.922  -0.609 -32.869  1.00  0.00     0.054 A 
HETATM   21  C   UNL     1      -4.811  -1.411 -33.203  1.00  0.00     0.031 A 
HETATM   22  C   UNL     1      -4.899  -2.373 -34.211  1.00  0.00     0.002 A 
HETATM   23  C   UNL     1      -6.092  -2.550 -34.902  1.00  0.00     0.001 A 
HETATM   24  C   UNL     1      -7.191  -1.746 -34.600  1.00  0.00     0.019 A 
BRANCH  20  25
HETATM   25  N   UNL     1      -5.793   0.271 -31.759  1.00  0.00    -0.332 N 
HETATM   26  C   UNL     1      -6.252   0.062 -30.474  1.00  0.00     0.096 A 
HETATM   27  C   UNL     1      -5.930   1.153 -29.697  1.00  0.00     0.019 A 
HETATM   28  C   UNL     1      -5.232   2.062 -30.517  1.00  0.00     0.019 A 
HETATM   29  C   UNL     1      -5.138   1.489 -31.767  1.00  0.00     0.096 A 
ENDBRANCH  20  25
ENDBRANCH   2  19
TORSDOF 5
ENDMDL
