MODEL 1
REMARK VINA RESULT:      -8.5      0.000      0.000
REMARK  6 active torsions:
REMARK  status: ('A' for Active; 'I' for Inactive)
REMARK    1  A    between atoms: C_3  and  O_4 
REMARK    2  A    between atoms: C_6  and  C_7 
REMARK    3  A    between atoms: C_7  and  C_8 
REMARK    4  A    between atoms: C_8  and  N_9 
REMARK       I    between atoms: N_9  and  C_10 
REMARK    5  A    between atoms: C_10  and  C_11 
REMARK    6  A    between atoms: C_13  and  C_14 
ROOT
HETATM    1  N   UNL     1      -5.605   2.294 -31.460  1.00  0.00    -0.357 N 
HETATM    2  C   UNL     1      -4.870   1.381 -32.192  1.00  0.00     0.251 C 
HETATM    3  O   UNL     1      -3.674   1.186 -32.015  1.00  0.00    -0.268 OA
HETATM    4  H   UNL     1      -6.482   2.615 -31.846  1.00  0.00     0.162 HD
ENDROOT
BRANCH   2   5
HETATM    5  C   UNL     1      -5.593   0.639 -33.264  1.00  0.00     0.032 A 
HETATM    6  C   UNL     1      -5.339  -0.735 -33.400  1.00  0.00     0.029 A 
HETATM    7  C   UNL     1      -6.000  -1.495 -34.374  1.00  0.00    -0.023 A 
HETATM    8  C   UNL     1      -6.927  -0.858 -35.209  1.00  0.00     0.012 A 
HETATM    9  C   UNL     1      -7.193   0.507 -35.071  1.00  0.00     0.002 A 
HETATM   10  C   UNL     1      -6.532   1.256 -34.097  1.00  0.00     0.017 A 
BRANCH   7  11
HETATM   11  C   UNL     1      -5.751  -2.923 -34.513  1.00  0.00    -0.002 A 
HETATM   12  C   UNL     1      -6.690  -3.847 -34.927  1.00  0.00     0.153 A 
HETATM   13  O   UNL     1      -6.161  -5.098 -34.954  1.00  0.00    -0.334 OA
HETATM   14  C   UNL     1      -4.869  -4.987 -34.555  1.00  0.00     0.142 A 
HETATM   15  C   UNL     1      -4.568  -3.676 -34.267  1.00  0.00     0.038 A 
ENDBRANCH   7  11
ENDBRANCH   2   5
BRANCH   1  16
HETATM   16  C   UNL     1      -4.941   3.153 -30.494  1.00  0.00     0.127 C 
BRANCH  16  17
HETATM   17  C   UNL     1      -4.859   4.601 -30.976  1.00  0.00     0.058 C 
BRANCH  17  18
HETATM   18  C   UNL     1      -3.829   4.765 -32.064  1.00  0.00    -0.054 A 
HETATM   19  C   UNL     1      -4.224   5.083 -33.370  1.00  0.00     0.043 A 
HETATM   20  C   UNL     1      -3.267   5.273 -34.362  1.00  0.00     0.066 A 
HETATM   21  C   UNL     1      -1.911   5.155 -34.078  1.00  0.00     0.036 A 
HETATM   22  C   UNL     1      -1.509   4.841 -32.780  1.00  0.00     0.003 A 
HETATM   23  C   UNL     1      -2.462   4.650 -31.777  1.00  0.00     0.007 A 
BRANCH  20  24
HETATM   24  O   UNL     1      -3.706   5.584 -35.615  1.00  0.00    -0.361 OA
HETATM   25  H   UNL     1      -4.209   6.414 -35.569  1.00  0.00     0.217 HD
ENDBRANCH  20  24
ENDBRANCH  17  18
ENDBRANCH  16  17
ENDBRANCH   1  16
TORSDOF 6
ENDMDL
MODEL 2
REMARK VINA RESULT:      -8.5      1.824      2.584
REMARK  6 active torsions:
REMARK  status: ('A' for Active; 'I' for Inactive)
REMARK    1  A    between atoms: C_3  and  O_4 
REMARK    2  A    between atoms: C_6  and  C_7 
REMARK    3  A    between atoms: C_7  and  C_8 
REMARK    4  A    between atoms: C_8  and  N_9 
REMARK       I    between atoms: N_9  and  C_10 
REMARK    5  A    between atoms: C_10  and  C_11 
REMARK    6  A    between atoms: C_13  and  C_14 
ROOT
HETATM    1  N   UNL     1      -4.616   2.828 -32.805  1.00  0.00    -0.357 N 
HETATM    2  C   UNL     1      -4.651   1.468 -32.565  1.00  0.00     0.251 C 
HETATM    3  O   UNL     1      -3.990   0.922 -31.690  1.00  0.00    -0.268 OA
HETATM    4  H   UNL     1      -4.938   3.159 -33.703  1.00  0.00     0.162 HD
ENDROOT
BRANCH   2   5
HETATM    5  C   UNL     1      -5.521   0.649 -33.456  1.00  0.00     0.032 A 
HETATM    6  C   UNL     1      -5.233  -0.720 -33.582  1.00  0.00     0.029 A 
HETATM    7  C   UNL     1      -6.024  -1.550 -34.387  1.00  0.00    -0.023 A 
HETATM    8  C   UNL     1      -7.117  -0.989 -35.061  1.00  0.00     0.012 A 
HETATM    9  C   UNL     1      -7.416   0.370 -34.931  1.00  0.00     0.002 A 
HETATM   10  C   UNL     1      -6.624   1.188 -34.126  1.00  0.00     0.017 A 
BRANCH   7  11
HETATM   11  C   UNL     1      -5.739  -2.972 -34.513  1.00  0.00    -0.002 A 
HETATM   12  C   UNL     1      -6.640  -3.917 -34.962  1.00  0.00     0.153 A 
HETATM   13  O   UNL     1      -6.083  -5.157 -34.965  1.00  0.00    -0.334 OA
HETATM   14  C   UNL     1      -4.811  -5.016 -34.516  1.00  0.00     0.142 A 
HETATM   15  C   UNL     1      -4.550  -3.699 -34.219  1.00  0.00     0.038 A 
ENDBRANCH   7  11
ENDBRANCH   2   5
BRANCH   1  16
HETATM   16  C   UNL     1      -3.687   3.671 -32.070  1.00  0.00     0.127 C 
BRANCH  16  17
HETATM   17  C   UNL     1      -2.512   4.118 -32.937  1.00  0.00     0.058 C 
BRANCH  17  18
HETATM   18  C   UNL     1      -1.589   5.043 -32.185  1.00  0.00    -0.054 A 
HETATM   19  C   UNL     1      -1.163   4.717 -30.890  1.00  0.00     0.043 A 
HETATM   20  C   UNL     1      -0.280   5.555 -30.215  1.00  0.00     0.066 A 
HETATM   21  C   UNL     1       0.195   6.720 -30.808  1.00  0.00     0.036 A 
HETATM   22  C   UNL     1      -0.223   7.050 -32.098  1.00  0.00     0.003 A 
HETATM   23  C   UNL     1      -1.108   6.215 -32.784  1.00  0.00     0.007 A 
BRANCH  20  24
HETATM   24  O   UNL     1       0.105   5.189 -28.959  1.00  0.00    -0.361 OA
HETATM   25  H   UNL     1      -0.040   4.234 -28.858  1.00  0.00     0.217 HD
ENDBRANCH  20  24
ENDBRANCH  17  18
ENDBRANCH  16  17
ENDBRANCH   1  16
TORSDOF 6
ENDMDL
MODEL 3
REMARK VINA RESULT:      -8.1      1.637      2.380
REMARK  6 active torsions:
REMARK  status: ('A' for Active; 'I' for Inactive)
REMARK    1  A    between atoms: C_3  and  O_4 
REMARK    2  A    between atoms: C_6  and  C_7 
REMARK    3  A    between atoms: C_7  and  C_8 
REMARK    4  A    between atoms: C_8  and  N_9 
REMARK       I    between atoms: N_9  and  C_10 
REMARK    5  A    between atoms: C_10  and  C_11 
REMARK    6  A    between atoms: C_13  and  C_14 
ROOT
HETATM    1  N   UNL     1      -5.381   2.948 -32.784  1.00  0.00    -0.357 N 
HETATM    2  C   UNL     1      -5.800   1.831 -33.482  1.00  0.00     0.251 C 
HETATM    3  O   UNL     1      -6.730   1.847 -34.280  1.00  0.00    -0.268 OA
HETATM    4  H   UNL     1      -4.832   2.804 -31.948  1.00  0.00     0.162 HD
ENDROOT
BRANCH   2   5
HETATM    5  C   UNL     1      -5.086   0.553 -33.201  1.00  0.00     0.032 A 
HETATM    6  C   UNL     1      -5.569  -0.618 -33.806  1.00  0.00     0.029 A 
HETATM    7  C   UNL     1      -4.931  -1.849 -33.601  1.00  0.00    -0.023 A 
HETATM    8  C   UNL     1      -3.794  -1.888 -32.783  1.00  0.00     0.012 A 
HETATM    9  C   UNL     1      -3.301  -0.724 -32.187  1.00  0.00     0.002 A 
HETATM   10  C   UNL     1      -3.941   0.497 -32.399  1.00  0.00     0.017 A 
BRANCH   7  11
HETATM   11  C   UNL     1      -5.419  -3.066 -34.234  1.00  0.00    -0.002 A 
HETATM   12  C   UNL     1      -4.682  -4.225 -34.380  1.00  0.00     0.153 A 
HETATM   13  O   UNL     1      -5.407  -5.184 -35.013  1.00  0.00    -0.334 OA
HETATM   14  C   UNL     1      -6.623  -4.646 -35.278  1.00  0.00     0.142 A 
HETATM   15  C   UNL     1      -6.682  -3.348 -34.828  1.00  0.00     0.038 A 
ENDBRANCH   7  11
ENDBRANCH   2   5
BRANCH   1  16
HETATM   16  C   UNL     1      -6.118   4.195 -32.899  1.00  0.00     0.127 C 
BRANCH  16  17
HETATM   17  C   UNL     1      -5.545   5.099 -33.989  1.00  0.00     0.058 C 
BRANCH  17  18
HETATM   18  C   UNL     1      -4.081   5.379 -33.764  1.00  0.00    -0.054 A 
HETATM   19  C   UNL     1      -3.151   5.141 -34.786  1.00  0.00     0.043 A 
HETATM   20  C   UNL     1      -1.806   5.437 -34.588  1.00  0.00     0.066 A 
HETATM   21  C   UNL     1      -1.362   5.973 -33.384  1.00  0.00     0.036 A 
HETATM   22  C   UNL     1      -2.282   6.215 -32.363  1.00  0.00     0.003 A 
HETATM   23  C   UNL     1      -3.634   5.922 -32.552  1.00  0.00     0.007 A 
BRANCH  20  24
HETATM   24  O   UNL     1      -0.945   5.190 -35.616  1.00  0.00    -0.361 OA
HETATM   25  H   UNL     1      -1.196   5.748 -36.370  1.00  0.00     0.217 HD
ENDBRANCH  20  24
ENDBRANCH  17  18
ENDBRANCH  16  17
ENDBRANCH   1  16
TORSDOF 6
ENDMDL
MODEL 4
REMARK VINA RESULT:      -7.9      5.069      7.323
REMARK  6 active torsions:
REMARK  status: ('A' for Active; 'I' for Inactive)
REMARK    1  A    between atoms: C_3  and  O_4 
REMARK    2  A    between atoms: C_6  and  C_7 
REMARK    3  A    between atoms: C_7  and  C_8 
REMARK    4  A    between atoms: C_8  and  N_9 
REMARK       I    between atoms: N_9  and  C_10 
REMARK    5  A    between atoms: C_10  and  C_11 
REMARK    6  A    between atoms: C_13  and  C_14 
ROOT
HETATM    1  N   UNL     1      -9.563   2.012 -34.674  1.00  0.00    -0.357 N 
HETATM    2  C   UNL     1      -9.342   0.841 -33.973  1.00  0.00     0.251 C 
HETATM    3  O   UNL     1     -10.240   0.188 -33.455  1.00  0.00    -0.268 OA
HETATM    4  H   UNL     1      -8.782   2.638 -34.807  1.00  0.00     0.162 HD
ENDROOT
BRANCH   2   5
HETATM    5  C   UNL     1      -7.926   0.399 -33.831  1.00  0.00     0.032 A 
HETATM    6  C   UNL     1      -7.621  -0.939 -34.129  1.00  0.00     0.029 A 
HETATM    7  C   UNL     1      -6.306  -1.415 -34.036  1.00  0.00    -0.023 A 
HETATM    8  C   UNL     1      -5.296  -0.525 -33.644  1.00  0.00     0.012 A 
HETATM    9  C   UNL     1      -5.591   0.810 -33.357  1.00  0.00     0.002 A 
HETATM   10  C   UNL     1      -6.902   1.275 -33.455  1.00  0.00     0.017 A 
BRANCH   7  11
HETATM   11  C   UNL     1      -5.980  -2.797 -34.355  1.00  0.00    -0.002 A 
HETATM   12  C   UNL     1      -6.893  -3.741 -34.781  1.00  0.00     0.153 A 
HETATM   13  O   UNL     1      -6.289  -4.939 -34.996  1.00  0.00    -0.334 OA
HETATM   14  C   UNL     1      -4.973  -4.772 -34.710  1.00  0.00     0.142 A 
HETATM   15  C   UNL     1      -4.731  -3.479 -34.307  1.00  0.00     0.038 A 
ENDBRANCH   7  11
ENDBRANCH   2   5
BRANCH   1  16
HETATM   16  C   UNL     1     -10.900   2.579 -34.735  1.00  0.00     0.127 C 
BRANCH  16  17
HETATM   17  C   UNL     1     -11.422   2.965 -33.352  1.00  0.00     0.058 C 
BRANCH  17  18
HETATM   18  C   UNL     1     -12.867   2.574 -33.177  1.00  0.00    -0.054 A 
HETATM   19  C   UNL     1     -13.461   1.651 -34.049  1.00  0.00     0.043 A 
HETATM   20  C   UNL     1     -14.784   1.263 -33.860  1.00  0.00     0.066 A 
HETATM   21  C   UNL     1     -15.536   1.777 -32.808  1.00  0.00     0.036 A 
HETATM   22  C   UNL     1     -14.951   2.694 -31.934  1.00  0.00     0.003 A 
HETATM   23  C   UNL     1     -13.624   3.089 -32.115  1.00  0.00     0.007 A 
BRANCH  20  24
HETATM   24  O   UNL     1     -15.311   0.360 -34.736  1.00  0.00    -0.361 OA
HETATM   25  H   UNL     1     -14.784  -0.454 -34.694  1.00  0.00     0.217 HD
ENDBRANCH  20  24
ENDBRANCH  17  18
ENDBRANCH  16  17
ENDBRANCH   1  16
TORSDOF 6
ENDMDL
MODEL 5
REMARK VINA RESULT:      -7.9      3.631      7.321
REMARK  6 active torsions:
REMARK  status: ('A' for Active; 'I' for Inactive)
REMARK    1  A    between atoms: C_3  and  O_4 
REMARK    2  A    between atoms: C_6  and  C_7 
REMARK    3  A    between atoms: C_7  and  C_8 
REMARK    4  A    between atoms: C_8  and  N_9 
REMARK       I    between atoms: N_9  and  C_10 
REMARK    5  A    between atoms: C_10  and  C_11 
REMARK    6  A    between atoms: C_13  and  C_14 
ROOT
HETATM    1  N   UNL     1      -5.849   0.729 -33.099  1.00  0.00    -0.357 N 
HETATM    2  C   UNL     1      -6.929   1.165 -32.355  1.00  0.00     0.251 C 
HETATM    3  O   UNL     1      -7.115   0.839 -31.188  1.00  0.00    -0.268 OA
HETATM    4  H   UNL     1      -5.915   0.785 -34.106  1.00  0.00     0.162 HD
ENDROOT
BRANCH   2   5
HETATM    5  C   UNL     1      -7.912   2.046 -33.046  1.00  0.00     0.032 A 
HETATM    6  C   UNL     1      -9.178   1.515 -33.342  1.00  0.00     0.029 A 
HETATM    7  C   UNL     1     -10.156   2.296 -33.972  1.00  0.00    -0.023 A 
HETATM    8  C   UNL     1      -9.849   3.625 -34.296  1.00  0.00     0.012 A 
HETATM    9  C   UNL     1      -8.595   4.163 -33.993  1.00  0.00     0.002 A 
HETATM   10  C   UNL     1      -7.628   3.378 -33.364  1.00  0.00     0.017 A 
BRANCH   7  11
HETATM   11  C   UNL     1     -11.474   1.757 -34.271  1.00  0.00    -0.002 A 
HETATM   12  C   UNL     1     -12.309   2.229 -35.265  1.00  0.00     0.153 A 
HETATM   13  O   UNL     1     -13.471   1.525 -35.298  1.00  0.00    -0.334 OA
HETATM   14  C   UNL     1     -13.390   0.588 -34.321  1.00  0.00     0.142 A 
HETATM   15  C   UNL     1     -12.190   0.690 -33.657  1.00  0.00     0.038 A 
ENDBRANCH   7  11
ENDBRANCH   2   5
BRANCH   1  16
HETATM   16  C   UNL     1      -4.925  -0.242 -32.538  1.00  0.00     0.127 C 
BRANCH  16  17
HETATM   17  C   UNL     1      -4.181  -1.019 -33.624  1.00  0.00     0.058 C 
BRANCH  17  18
HETATM   18  C   UNL     1      -4.965  -2.224 -34.078  1.00  0.00    -0.054 A 
HETATM   19  C   UNL     1      -4.360  -3.488 -34.114  1.00  0.00     0.043 A 
HETATM   20  C   UNL     1      -5.098  -4.604 -34.496  1.00  0.00     0.066 A 
HETATM   21  C   UNL     1      -6.440  -4.488 -34.844  1.00  0.00     0.036 A 
HETATM   22  C   UNL     1      -7.050  -3.234 -34.809  1.00  0.00     0.003 A 
HETATM   23  C   UNL     1      -6.318  -2.108 -34.426  1.00  0.00     0.007 A 
BRANCH  20  24
HETATM   24  O   UNL     1      -4.462  -5.810 -34.510  1.00  0.00    -0.361 OA
HETATM   25  H   UNL     1      -4.662  -6.274 -33.681  1.00  0.00     0.217 HD
ENDBRANCH  20  24
ENDBRANCH  17  18
ENDBRANCH  16  17
ENDBRANCH   1  16
TORSDOF 6
ENDMDL
MODEL 6
REMARK VINA RESULT:      -7.8      2.404      8.751
REMARK  6 active torsions:
REMARK  status: ('A' for Active; 'I' for Inactive)
REMARK    1  A    between atoms: C_3  and  O_4 
REMARK    2  A    between atoms: C_6  and  C_7 
REMARK    3  A    between atoms: C_7  and  C_8 
REMARK    4  A    between atoms: C_8  and  N_9 
REMARK       I    between atoms: N_9  and  C_10 
REMARK    5  A    between atoms: C_10  and  C_11 
REMARK    6  A    between atoms: C_13  and  C_14 
ROOT
HETATM    1  N   UNL     1      -3.705   1.008 -32.708  1.00  0.00    -0.357 N 
HETATM    2  C   UNL     1      -3.756   2.119 -31.888  1.00  0.00     0.251 C 
HETATM    3  O   UNL     1      -4.463   2.185 -30.889  1.00  0.00    -0.268 OA
HETATM    4  H   UNL     1      -3.350   1.128 -33.646  1.00  0.00     0.162 HD
ENDROOT
BRANCH   2   5
HETATM    5  C   UNL     1      -2.923   3.289 -32.286  1.00  0.00     0.032 A 
HETATM    6  C   UNL     1      -2.231   3.978 -31.277  1.00  0.00     0.029 A 
HETATM    7  C   UNL     1      -1.413   5.074 -31.585  1.00  0.00    -0.023 A 
HETATM    8  C   UNL     1      -1.294   5.467 -32.925  1.00  0.00     0.012 A 
HETATM    9  C   UNL     1      -1.971   4.778 -33.935  1.00  0.00     0.002 A 
HETATM   10  C   UNL     1      -2.780   3.687 -33.619  1.00  0.00     0.017 A 
BRANCH   7  11
HETATM   11  C   UNL     1      -0.683   5.786 -30.547  1.00  0.00    -0.002 A 
HETATM   12  C   UNL     1       0.280   5.219 -29.735  1.00  0.00     0.153 A 
HETATM   13  O   UNL     1       0.779   6.133 -28.862  1.00  0.00    -0.334 OA
HETATM   14  C   UNL     1       0.138   7.303 -29.110  1.00  0.00     0.142 A 
HETATM   15  C   UNL     1      -0.773   7.144 -30.128  1.00  0.00     0.038 A 
ENDBRANCH   7  11
ENDBRANCH   2   5
BRANCH   1  16
HETATM   16  C   UNL     1      -4.593  -0.116 -32.463  1.00  0.00     0.127 C 
BRANCH  16  17
HETATM   17  C   UNL     1      -5.259  -0.610 -33.746  1.00  0.00     0.058 C 
BRANCH  17  18
HETATM   18  C   UNL     1      -5.100  -2.099 -33.916  1.00  0.00    -0.054 A 
HETATM   19  C   UNL     1      -6.082  -2.843 -34.585  1.00  0.00     0.043 A 
HETATM   20  C   UNL     1      -5.912  -4.212 -34.774  1.00  0.00     0.066 A 
HETATM   21  C   UNL     1      -4.773  -4.861 -34.309  1.00  0.00     0.036 A 
HETATM   22  C   UNL     1      -3.790  -4.127 -33.644  1.00  0.00     0.003 A 
HETATM   23  C   UNL     1      -3.951  -2.753 -33.451  1.00  0.00     0.007 A 
BRANCH  20  24
HETATM   24  O   UNL     1      -6.895  -4.887 -35.434  1.00  0.00    -0.361 OA
HETATM   25  H   UNL     1      -6.526  -5.719 -35.771  1.00  0.00     0.217 HD
ENDBRANCH  20  24
ENDBRANCH  17  18
ENDBRANCH  16  17
ENDBRANCH   1  16
TORSDOF 6
ENDMDL
MODEL 7
REMARK VINA RESULT:      -7.6     15.230     17.655
REMARK  6 active torsions:
REMARK  status: ('A' for Active; 'I' for Inactive)
REMARK    1  A    between atoms: C_3  and  O_4 
REMARK    2  A    between atoms: C_6  and  C_7 
REMARK    3  A    between atoms: C_7  and  C_8 
REMARK    4  A    between atoms: C_8  and  N_9 
REMARK       I    between atoms: N_9  and  C_10 
REMARK    5  A    between atoms: C_10  and  C_11 
REMARK    6  A    between atoms: C_13  and  C_14 
ROOT
HETATM    1  N   UNL     1      -5.855 -13.068 -39.117  1.00  0.00    -0.357 N 
HETATM    2  C   UNL     1      -5.832 -12.770 -40.466  1.00  0.00     0.251 C 
HETATM    3  O   UNL     1      -6.555 -11.923 -40.979  1.00  0.00    -0.268 OA
HETATM    4  H   UNL     1      -5.469 -13.954 -38.822  1.00  0.00     0.162 HD
ENDROOT
BRANCH   2   5
HETATM    5  C   UNL     1      -4.895 -13.559 -41.315  1.00  0.00     0.032 A 
HETATM    6  C   UNL     1      -3.642 -13.894 -40.777  1.00  0.00     0.029 A 
HETATM    7  C   UNL     1      -2.722 -14.651 -41.515  1.00  0.00    -0.023 A 
HETATM    8  C   UNL     1      -3.080 -15.076 -42.801  1.00  0.00     0.012 A 
HETATM    9  C   UNL     1      -4.330 -14.757 -43.338  1.00  0.00     0.002 A 
HETATM   10  C   UNL     1      -5.240 -14.004 -42.596  1.00  0.00     0.017 A 
BRANCH   7  11
HETATM   11  C   UNL     1      -1.426 -15.013 -40.959  1.00  0.00    -0.002 A 
HETATM   12  C   UNL     1      -0.932 -16.301 -40.894  1.00  0.00     0.153 A 
HETATM   13  O   UNL     1       0.301 -16.319 -40.321  1.00  0.00    -0.334 OA
HETATM   14  C   UNL     1       0.609 -15.034 -40.013  1.00  0.00     0.142 A 
HETATM   15  C   UNL     1      -0.417 -14.194 -40.377  1.00  0.00     0.038 A 
ENDBRANCH   7  11
ENDBRANCH   2   5
BRANCH   1  16
HETATM   16  C   UNL     1      -6.839 -12.440 -38.251  1.00  0.00     0.127 C 
BRANCH  16  17
HETATM   17  C   UNL     1      -7.892 -13.435 -37.765  1.00  0.00     0.058 C 
BRANCH  17  18
HETATM   18  C   UNL     1      -8.987 -13.624 -38.784  1.00  0.00    -0.054 A 
HETATM   19  C   UNL     1      -9.640 -12.512 -39.334  1.00  0.00     0.043 A 
HETATM   20  C   UNL     1     -10.623 -12.690 -40.303  1.00  0.00     0.066 A 
HETATM   21  C   UNL     1     -10.972 -13.963 -40.742  1.00  0.00     0.036 A 
HETATM   22  C   UNL     1     -10.325 -15.074 -40.201  1.00  0.00     0.003 A 
HETATM   23  C   UNL     1      -9.336 -14.906 -39.229  1.00  0.00     0.007 A 
BRANCH  20  24
HETATM   24  O   UNL     1     -11.224 -11.574 -40.808  1.00  0.00    -0.361 OA
HETATM   25  H   UNL     1     -11.563 -11.045 -40.068  1.00  0.00     0.217 HD
ENDBRANCH  20  24
ENDBRANCH  17  18
ENDBRANCH  16  17
ENDBRANCH   1  16
TORSDOF 6
ENDMDL
MODEL 8
REMARK VINA RESULT:      -7.5      1.229      7.946
REMARK  6 active torsions:
REMARK  status: ('A' for Active; 'I' for Inactive)
REMARK    1  A    between atoms: C_3  and  O_4 
REMARK    2  A    between atoms: C_6  and  C_7 
REMARK    3  A    between atoms: C_7  and  C_8 
REMARK    4  A    between atoms: C_8  and  N_9 
REMARK       I    between atoms: N_9  and  C_10 
REMARK    5  A    between atoms: C_10  and  C_11 
REMARK    6  A    between atoms: C_13  and  C_14 
ROOT
HETATM    1  N   UNL     1      -6.328   1.199 -32.546  1.00  0.00    -0.357 N 
HETATM    2  C   UNL     1      -5.164   1.386 -31.825  1.00  0.00     0.251 C 
HETATM    3  O   UNL     1      -4.477   0.461 -31.407  1.00  0.00    -0.268 OA
HETATM    4  H   UNL     1      -6.983   1.967 -32.595  1.00  0.00     0.162 HD
ENDROOT
BRANCH   2   5
HETATM    5  C   UNL     1      -4.771   2.794 -31.532  1.00  0.00     0.032 A 
HETATM    6  C   UNL     1      -3.814   3.397 -32.364  1.00  0.00     0.029 A 
HETATM    7  C   UNL     1      -3.416   4.725 -32.156  1.00  0.00    -0.023 A 
HETATM    8  C   UNL     1      -3.998   5.444 -31.104  1.00  0.00     0.012 A 
HETATM    9  C   UNL     1      -4.960   4.853 -30.279  1.00  0.00     0.002 A 
HETATM   10  C   UNL     1      -5.351   3.531 -30.495  1.00  0.00     0.017 A 
BRANCH   7  11
HETATM   11  C   UNL     1      -2.434   5.361 -33.022  1.00  0.00    -0.002 A 
HETATM   12  C   UNL     1      -2.017   4.859 -34.239  1.00  0.00     0.153 A 
HETATM   13  O   UNL     1      -1.092   5.675 -34.810  1.00  0.00    -0.334 OA
HETATM   14  C   UNL     1      -0.909   6.715 -33.959  1.00  0.00     0.142 A 
HETATM   15  C   UNL     1      -1.702   6.569 -32.845  1.00  0.00     0.038 A 
ENDBRANCH   7  11
ENDBRANCH   2   5
BRANCH   1  16
HETATM   16  C   UNL     1      -6.848  -0.143 -32.750  1.00  0.00     0.127 C 
BRANCH  16  17
HETATM   17  C   UNL     1      -6.658  -0.618 -34.189  1.00  0.00     0.058 C 
BRANCH  17  18
HETATM   18  C   UNL     1      -5.988  -1.968 -34.244  1.00  0.00    -0.054 A 
HETATM   19  C   UNL     1      -6.637  -3.055 -34.846  1.00  0.00     0.043 A 
HETATM   20  C   UNL     1      -5.999  -4.289 -34.929  1.00  0.00     0.066 A 
HETATM   21  C   UNL     1      -4.715  -4.465 -34.423  1.00  0.00     0.036 A 
HETATM   22  C   UNL     1      -4.063  -3.387 -33.825  1.00  0.00     0.003 A 
HETATM   23  C   UNL     1      -4.694  -2.144 -33.737  1.00  0.00     0.007 A 
BRANCH  20  24
HETATM   24  O   UNL     1      -6.674  -5.312 -35.527  1.00  0.00    -0.361 OA
HETATM   25  H   UNL     1      -7.418  -5.566 -34.957  1.00  0.00     0.217 HD
ENDBRANCH  20  24
ENDBRANCH  17  18
ENDBRANCH  16  17
ENDBRANCH   1  16
TORSDOF 6
ENDMDL
MODEL 9
REMARK VINA RESULT:      -7.4      3.096      5.292
REMARK  6 active torsions:
REMARK  status: ('A' for Active; 'I' for Inactive)
REMARK    1  A    between atoms: C_3  and  O_4 
REMARK    2  A    between atoms: C_6  and  C_7 
REMARK    3  A    between atoms: C_7  and  C_8 
REMARK    4  A    between atoms: C_8  and  N_9 
REMARK       I    between atoms: N_9  and  C_10 
REMARK    5  A    between atoms: C_10  and  C_11 
REMARK    6  A    between atoms: C_13  and  C_14 
ROOT
HETATM    1  N   UNL     1      -6.460   1.653 -33.640  1.00  0.00    -0.357 N 
HETATM    2  C   UNL     1      -5.455   1.491 -32.706  1.00  0.00     0.251 C 
HETATM    3  O   UNL     1      -5.101   2.378 -31.939  1.00  0.00    -0.268 OA
HETATM    4  H   UNL     1      -6.493   1.007 -34.417  1.00  0.00     0.162 HD
ENDROOT
BRANCH   2   5
HETATM    5  C   UNL     1      -4.765   0.170 -32.680  1.00  0.00     0.032 A 
HETATM    6  C   UNL     1      -5.346  -0.890 -33.395  1.00  0.00     0.029 A 
HETATM    7  C   UNL     1      -4.738  -2.153 -33.429  1.00  0.00    -0.023 A 
HETATM    8  C   UNL     1      -3.532  -2.337 -32.740  1.00  0.00     0.012 A 
HETATM    9  C   UNL     1      -2.943  -1.283 -32.036  1.00  0.00     0.002 A 
HETATM   10  C   UNL     1      -3.554  -0.029 -32.010  1.00  0.00     0.017 A 
BRANCH   7  11
HETATM   11  C   UNL     1      -5.328  -3.253 -34.178  1.00  0.00    -0.002 A 
HETATM   12  C   UNL     1      -4.727  -4.481 -34.373  1.00  0.00     0.153 A 
HETATM   13  O   UNL     1      -5.521  -5.298 -35.113  1.00  0.00    -0.334 OA
HETATM   14  C   UNL     1      -6.646  -4.597 -35.400  1.00  0.00     0.142 A 
HETATM   15  C   UNL     1      -6.577  -3.336 -34.856  1.00  0.00     0.038 A 
ENDBRANCH   7  11
ENDBRANCH   2   5
BRANCH   1  16
HETATM   16  C   UNL     1      -7.082   2.954 -33.820  1.00  0.00     0.127 C 
BRANCH  16  17
HETATM   17  C   UNL     1      -8.273   3.153 -32.884  1.00  0.00     0.058 C 
BRANCH  17  18
HETATM   18  C   UNL     1      -9.538   2.576 -33.467  1.00  0.00    -0.054 A 
HETATM   19  C   UNL     1     -10.155   3.192 -34.564  1.00  0.00     0.043 A 
HETATM   20  C   UNL     1     -11.301   2.634 -35.124  1.00  0.00     0.066 A 
HETATM   21  C   UNL     1     -11.849   1.462 -34.612  1.00  0.00     0.036 A 
HETATM   22  C   UNL     1     -11.238   0.843 -33.521  1.00  0.00     0.003 A 
HETATM   23  C   UNL     1     -10.088   1.394 -32.953  1.00  0.00     0.007 A 
BRANCH  20  24
HETATM   24  O   UNL     1     -11.859   3.271 -36.193  1.00  0.00    -0.361 OA
HETATM   25  H   UNL     1     -12.802   3.415 -36.008  1.00  0.00     0.217 HD
ENDBRANCH  20  24
ENDBRANCH  17  18
ENDBRANCH  16  17
ENDBRANCH   1  16
TORSDOF 6
ENDMDL
MODEL 10
REMARK VINA RESULT:      -7.4      2.040      2.523
REMARK  6 active torsions:
REMARK  status: ('A' for Active; 'I' for Inactive)
REMARK    1  A    between atoms: C_3  and  O_4 
REMARK    2  A    between atoms: C_6  and  C_7 
REMARK    3  A    between atoms: C_7  and  C_8 
REMARK    4  A    between atoms: C_8  and  N_9 
REMARK       I    between atoms: N_9  and  C_10 
REMARK    5  A    between atoms: C_10  and  C_11 
REMARK    6  A    between atoms: C_13  and  C_14 
ROOT
HETATM    1  N   UNL     1      -5.546   3.510 -32.746  1.00  0.00    -0.357 N 
HETATM    2  C   UNL     1      -6.610   3.077 -33.515  1.00  0.00     0.251 C 
HETATM    3  O   UNL     1      -7.555   3.794 -33.820  1.00  0.00    -0.268 OA
HETATM    4  H   UNL     1      -4.975   2.812 -32.292  1.00  0.00     0.162 HD
ENDROOT
BRANCH   2   5
HETATM    5  C   UNL     1      -6.590   1.651 -33.950  1.00  0.00     0.032 A 
HETATM    6  C   UNL     1      -5.642   0.797 -33.364  1.00  0.00     0.029 A 
HETATM    7  C   UNL     1      -5.583  -0.559 -33.712  1.00  0.00    -0.023 A 
HETATM    8  C   UNL     1      -6.496  -1.051 -34.655  1.00  0.00     0.012 A 
HETATM    9  C   UNL     1      -7.450  -0.209 -35.234  1.00  0.00     0.002 A 
HETATM   10  C   UNL     1      -7.502   1.140 -34.879  1.00  0.00     0.017 A 
BRANCH   7  11
HETATM   11  C   UNL     1      -4.611  -1.453 -33.100  1.00  0.00    -0.002 A 
HETATM   12  C   UNL     1      -3.811  -1.125 -32.023  1.00  0.00     0.153 A 
HETATM   13  O   UNL     1      -3.006  -2.165 -31.682  1.00  0.00    -0.334 OA
HETATM   14  C   UNL     1      -3.286  -3.176 -32.542  1.00  0.00     0.142 A 
HETATM   15  C   UNL     1      -4.257  -2.791 -33.435  1.00  0.00     0.038 A 
ENDBRANCH   7  11
ENDBRANCH   2   5
BRANCH   1  16
HETATM   16  C   UNL     1      -5.564   4.844 -32.170  1.00  0.00     0.127 C 
BRANCH  16  17
HETATM   17  C   UNL     1      -4.420   5.056 -31.180  1.00  0.00     0.058 C 
BRANCH  17  18
HETATM   18  C   UNL     1      -3.149   5.462 -31.881  1.00  0.00    -0.054 A 
HETATM   19  C   UNL     1      -3.159   6.512 -32.809  1.00  0.00     0.043 A 
HETATM   20  C   UNL     1      -1.975   6.910 -33.425  1.00  0.00     0.066 A 
HETATM   21  C   UNL     1      -0.770   6.281 -33.131  1.00  0.00     0.036 A 
HETATM   22  C   UNL     1      -0.752   5.237 -32.206  1.00  0.00     0.003 A 
HETATM   23  C   UNL     1      -1.934   4.831 -31.582  1.00  0.00     0.007 A 
BRANCH  20  24
HETATM   24  O   UNL     1      -2.041   7.939 -34.318  1.00  0.00    -0.361 OA
HETATM   25  H   UNL     1      -1.553   7.685 -35.118  1.00  0.00     0.217 HD
ENDBRANCH  20  24
ENDBRANCH  17  18
ENDBRANCH  16  17
ENDBRANCH   1  16
TORSDOF 6
ENDMDL
