MODEL 1
REMARK VINA RESULT:      -9.7      0.000      0.000
REMARK  7 active torsions:
REMARK  status: ('A' for Active; 'I' for Inactive)
REMARK    1  A    between atoms: C_4  and  C_5 
REMARK    2  A    between atoms: C_5  and  N_6 
REMARK    3  A    between atoms: C_14  and  C_15 
REMARK    4  A    between atoms: C_18  and  O_19 
REMARK    5  A    between atoms: O_19  and  C_20 
REMARK    6  A    between atoms: C_20  and  C_21 
REMARK    7  A    between atoms: C_22  and  C_23 
ROOT
HETATM    1  N   UNL     1      -5.725   2.559 -31.633  1.00  0.00    -0.063 N 
HETATM    2  H   UNL     1      -5.715   3.024 -32.549  1.00  0.00     0.280 HD
HETATM    3  C   UNL     1      -5.976   3.675 -30.630  1.00  0.00     0.282 C 
HETATM    4  C   UNL     1      -4.837   4.636 -30.666  1.00  0.00     0.018 A 
HETATM    5  C   UNL     1      -3.577   4.350 -31.162  1.00  0.00    -0.023 A 
HETATM    6  C   UNL     1      -2.712   5.488 -31.060  1.00  0.00     0.073 A 
HETATM    7  C   UNL     1      -3.355   6.568 -30.505  1.00  0.00     0.088 A 
HETATM    8  N   UNL     1      -2.775   7.772 -30.336  1.00  0.00    -0.358 N 
HETATM    9  C   UNL     1      -1.344   7.922 -30.485  1.00  0.00     0.219 C 
HETATM   10  N   UNL     1      -0.757   6.839 -31.233  1.00  0.00    -0.332 N 
HETATM   11  C   UNL     1      -1.330   5.623 -31.471  1.00  0.00     0.256 C 
HETATM   12  O   UNL     1      -0.709   4.712 -32.006  1.00  0.00    -0.267 OA
HETATM   13  S   UNL     1      -4.963   6.225 -30.073  1.00  0.00    -0.074 SA
HETATM   14  C   UNL     1      -3.248   3.012 -31.759  1.00  0.00     0.068 C 
HETATM   15  C   UNL     1      -4.333   1.963 -31.447  1.00  0.00     0.240 C 
HETATM   16  H   UNL     1      -3.215   8.460 -29.732  1.00  0.00     0.162 HD
HETATM   17  H   UNL     1       0.220   6.909 -31.475  1.00  0.00     0.165 HD
ENDROOT
BRANCH   9  18
HETATM   18  C   UNL     1      -0.696   8.125 -29.129  1.00  0.00    -0.016 A 
HETATM   19  C   UNL     1       0.628   7.731 -28.865  1.00  0.00     0.014 A 
HETATM   20  C   UNL     1       1.185   7.890 -27.591  1.00  0.00     0.038 A 
HETATM   21  C   UNL     1       0.409   8.418 -26.565  1.00  0.00     0.079 A 
HETATM   22  C   UNL     1      -0.900   8.833 -26.807  1.00  0.00     0.038 A 
HETATM   23  C   UNL     1      -1.451   8.679 -28.079  1.00  0.00     0.014 A 
BRANCH  21  24
HETATM   24  O   UNL     1       0.878   8.625 -25.254  1.00  0.00    -0.276 OA
BRANCH  24  25
HETATM   25  C   UNL     1       1.867   9.560 -24.980  1.00  0.00     0.288 C 
HETATM   26  O   UNL     1       1.838  10.759 -25.213  1.00  0.00    -0.260 OA
BRANCH  25  27
HETATM   27  C   UNL     1       3.038   8.912 -24.351  1.00  0.00     0.085 C 
HETATM   28  C   UNL     1       3.207   8.785 -23.026  1.00  0.00     0.043 C 
BRANCH  28  29
HETATM   29  C   UNL     1       4.339   8.107 -22.499  1.00  0.00     0.075 A 
HETATM   30  O   UNL     1       4.297   7.264 -21.409  1.00  0.00    -0.323 OA
HETATM   31  C   UNL     1       5.549   6.797 -21.180  1.00  0.00     0.142 A 
HETATM   32  C   UNL     1       6.428   7.316 -22.095  1.00  0.00     0.027 A 
HETATM   33  C   UNL     1       5.657   8.150 -22.940  1.00  0.00     0.039 A 
ENDBRANCH  28  29
ENDBRANCH  25  27
ENDBRANCH  24  25
ENDBRANCH  21  24
ENDBRANCH   9  18
BRANCH   1  34
HETATM   34  C   UNL     1      -6.838   1.548 -31.707  1.00  0.00     0.273 C 
BRANCH  34  35
HETATM   35  C   UNL     1      -6.817   0.635 -32.902  1.00  0.00    -0.033 A 
HETATM   36  C   UNL     1      -7.088   1.133 -34.187  1.00  0.00     0.009 A 
HETATM   37  C   UNL     1      -7.090   0.280 -35.291  1.00  0.00     0.001 A 
HETATM   38  C   UNL     1      -6.815  -1.075 -35.128  1.00  0.00     0.000 A 
HETATM   39  C   UNL     1      -6.531  -1.580 -33.862  1.00  0.00     0.001 A 
HETATM   40  C   UNL     1      -6.528  -0.731 -32.755  1.00  0.00     0.009 A 
ENDBRANCH  34  35
ENDBRANCH   1  34
TORSDOF 7
ENDMDL
MODEL 2
REMARK VINA RESULT:      -9.6      6.158     14.260
REMARK  7 active torsions:
REMARK  status: ('A' for Active; 'I' for Inactive)
REMARK    1  A    between atoms: C_4  and  C_5 
REMARK    2  A    between atoms: C_5  and  N_6 
REMARK    3  A    between atoms: C_14  and  C_15 
REMARK    4  A    between atoms: C_18  and  O_19 
REMARK    5  A    between atoms: O_19  and  C_20 
REMARK    6  A    between atoms: C_20  and  C_21 
REMARK    7  A    between atoms: C_22  and  C_23 
ROOT
HETATM    1  N   UNL     1      -2.186   5.243 -31.563  1.00  0.00    -0.063 N 
HETATM    2  H   UNL     1      -1.824   4.567 -30.879  1.00  0.00     0.280 HD
HETATM    3  C   UNL     1      -3.574   5.604 -31.059  1.00  0.00     0.282 C 
HETATM    4  C   UNL     1      -4.440   4.391 -31.083  1.00  0.00     0.018 A 
HETATM    5  C   UNL     1      -4.194   3.260 -31.841  1.00  0.00    -0.023 A 
HETATM    6  C   UNL     1      -5.209   2.270 -31.634  1.00  0.00     0.073 A 
HETATM    7  C   UNL     1      -6.157   2.692 -30.734  1.00  0.00     0.088 A 
HETATM    8  N   UNL     1      -7.195   1.933 -30.336  1.00  0.00    -0.358 N 
HETATM    9  C   UNL     1      -7.524   0.714 -31.043  1.00  0.00     0.219 C 
HETATM   10  N   UNL     1      -6.420   0.227 -31.832  1.00  0.00    -0.332 N 
HETATM   11  C   UNL     1      -5.326   0.948 -32.215  1.00  0.00     0.256 C 
HETATM   12  O   UNL     1      -4.496   0.494 -32.995  1.00  0.00    -0.267 OA
HETATM   13  S   UNL     1      -5.867   4.269 -30.166  1.00  0.00    -0.074 SA
HETATM   14  C   UNL     1      -2.975   3.141 -32.709  1.00  0.00     0.068 C 
HETATM   15  C   UNL     1      -2.265   4.497 -32.891  1.00  0.00     0.240 C 
HETATM   16  H   UNL     1      -7.974   2.364 -29.846  1.00  0.00     0.162 HD
HETATM   17  H   UNL     1      -6.522  -0.671 -32.280  1.00  0.00     0.165 HD
ENDROOT
BRANCH   9  18
HETATM   18  C   UNL     1      -8.792   0.906 -31.853  1.00  0.00    -0.016 A 
HETATM   19  C   UNL     1      -9.376   2.171 -32.041  1.00  0.00     0.014 A 
HETATM   20  C   UNL     1     -10.571   2.312 -32.755  1.00  0.00     0.038 A 
HETATM   21  C   UNL     1     -11.205   1.182 -33.260  1.00  0.00     0.079 A 
HETATM   22  C   UNL     1     -10.636  -0.081 -33.102  1.00  0.00     0.038 A 
HETATM   23  C   UNL     1      -9.441  -0.218 -32.395  1.00  0.00     0.014 A 
BRANCH  21  24
HETATM   24  O   UNL     1     -12.404   1.218 -33.998  1.00  0.00    -0.276 OA
BRANCH  24  25
HETATM   25  C   UNL     1     -13.492   0.432 -33.645  1.00  0.00     0.288 C 
HETATM   26  O   UNL     1     -13.507  -0.777 -33.470  1.00  0.00    -0.260 OA
BRANCH  25  27
HETATM   27  C   UNL     1     -14.711   1.259 -33.507  1.00  0.00     0.085 C 
HETATM   28  C   UNL     1     -15.101   1.839 -32.362  1.00  0.00     0.043 C 
BRANCH  28  29
HETATM   29  C   UNL     1     -16.261   2.659 -32.321  1.00  0.00     0.075 A 
HETATM   30  O   UNL     1     -17.521   2.236 -32.684  1.00  0.00    -0.323 OA
HETATM   31  C   UNL     1     -18.383   3.271 -32.527  1.00  0.00     0.142 A 
HETATM   32  C   UNL     1     -17.721   4.379 -32.068  1.00  0.00     0.027 A 
HETATM   33  C   UNL     1     -16.367   3.991 -31.933  1.00  0.00     0.039 A 
ENDBRANCH  28  29
ENDBRANCH  25  27
ENDBRANCH  24  25
ENDBRANCH  21  24
ENDBRANCH   9  18
BRANCH   1  34
HETATM   34  C   UNL     1      -1.214   6.393 -31.545  1.00  0.00     0.273 C 
BRANCH  34  35
HETATM   35  C   UNL     1      -0.487   6.618 -30.246  1.00  0.00    -0.033 A 
HETATM   36  C   UNL     1       0.165   5.556 -29.600  1.00  0.00     0.009 A 
HETATM   37  C   UNL     1       0.820   5.761 -28.385  1.00  0.00     0.001 A 
HETATM   38  C   UNL     1       0.836   7.027 -27.806  1.00  0.00     0.000 A 
HETATM   39  C   UNL     1       0.205   8.093 -28.443  1.00  0.00     0.001 A 
HETATM   40  C   UNL     1      -0.451   7.892 -29.658  1.00  0.00     0.009 A 
ENDBRANCH  34  35
ENDBRANCH   1  34
TORSDOF 7
ENDMDL
MODEL 3
REMARK VINA RESULT:      -9.4      3.532     12.343
REMARK  7 active torsions:
REMARK  status: ('A' for Active; 'I' for Inactive)
REMARK    1  A    between atoms: C_4  and  C_5 
REMARK    2  A    between atoms: C_5  and  N_6 
REMARK    3  A    between atoms: C_14  and  C_15 
REMARK    4  A    between atoms: C_18  and  O_19 
REMARK    5  A    between atoms: O_19  and  C_20 
REMARK    6  A    between atoms: C_20  and  C_21 
REMARK    7  A    between atoms: C_22  and  C_23 
ROOT
HETATM    1  N   UNL     1      -0.712   9.832 -26.726  1.00  0.00    -0.063 N 
HETATM    2  H   UNL     1       0.126  10.088 -27.261  1.00  0.00     0.280 HD
HETATM    3  C   UNL     1      -0.725   8.311 -26.721  1.00  0.00     0.282 C 
HETATM    4  C   UNL     1      -0.881   7.814 -28.117  1.00  0.00     0.018 A 
HETATM    5  C   UNL     1      -1.381   8.560 -29.170  1.00  0.00    -0.023 A 
HETATM    6  C   UNL     1      -1.394   7.796 -30.382  1.00  0.00     0.073 A 
HETATM    7  C   UNL     1      -0.901   6.528 -30.191  1.00  0.00     0.088 A 
HETATM    8  N   UNL     1      -0.769   5.625 -31.180  1.00  0.00    -0.358 N 
HETATM    9  C   UNL     1      -1.395   5.850 -32.466  1.00  0.00     0.219 C 
HETATM   10  N   UNL     1      -1.726   7.237 -32.675  1.00  0.00    -0.332 N 
HETATM   11  C   UNL     1      -1.822   8.195 -31.708  1.00  0.00     0.256 C 
HETATM   12  O   UNL     1      -2.235   9.322 -31.956  1.00  0.00    -0.267 OA
HETATM   13  S   UNL     1      -0.460   6.231 -28.576  1.00  0.00    -0.074 SA
HETATM   14  C   UNL     1      -1.793   9.993 -28.997  1.00  0.00     0.068 C 
HETATM   15  C   UNL     1      -1.898  10.385 -27.510  1.00  0.00     0.240 C 
HETATM   16  H   UNL     1      -0.608   4.648 -30.950  1.00  0.00     0.162 HD
HETATM   17  H   UNL     1      -2.074   7.506 -33.583  1.00  0.00     0.165 HD
ENDROOT
BRANCH   9  18
HETATM   18  C   UNL     1      -2.584   4.924 -32.637  1.00  0.00    -0.016 A 
HETATM   19  C   UNL     1      -2.619   3.638 -32.068  1.00  0.00     0.014 A 
HETATM   20  C   UNL     1      -3.710   2.788 -32.280  1.00  0.00     0.038 A 
HETATM   21  C   UNL     1      -4.760   3.210 -33.088  1.00  0.00     0.079 A 
HETATM   22  C   UNL     1      -4.756   4.487 -33.648  1.00  0.00     0.038 A 
HETATM   23  C   UNL     1      -3.670   5.335 -33.430  1.00  0.00     0.014 A 
BRANCH  21  24
HETATM   24  O   UNL     1      -5.906   2.436 -33.356  1.00  0.00    -0.276 OA
BRANCH  24  25
HETATM   25  C   UNL     1      -6.407   1.542 -32.421  1.00  0.00     0.288 C 
HETATM   26  O   UNL     1      -7.034   1.806 -31.406  1.00  0.00    -0.260 OA
BRANCH  25  27
HETATM   27  C   UNL     1      -6.073   0.150 -32.796  1.00  0.00     0.085 C 
HETATM   28  C   UNL     1      -6.394  -0.410 -33.971  1.00  0.00     0.043 C 
BRANCH  28  29
HETATM   29  C   UNL     1      -5.995  -1.740 -34.276  1.00  0.00     0.075 A 
HETATM   30  O   UNL     1      -4.691  -2.186 -34.236  1.00  0.00    -0.323 OA
HETATM   31  C   UNL     1      -4.674  -3.495 -34.587  1.00  0.00     0.142 A 
HETATM   32  C   UNL     1      -5.943  -3.932 -34.863  1.00  0.00     0.027 A 
HETATM   33  C   UNL     1      -6.789  -2.815 -34.663  1.00  0.00     0.039 A 
ENDBRANCH  28  29
ENDBRANCH  25  27
ENDBRANCH  24  25
ENDBRANCH  21  24
ENDBRANCH   9  18
BRANCH   1  34
HETATM   34  C   UNL     1      -0.520  10.442 -25.362  1.00  0.00     0.273 C 
BRANCH  34  35
HETATM   35  C   UNL     1       0.734  10.042 -24.635  1.00  0.00    -0.033 A 
HETATM   36  C   UNL     1       1.879   9.651 -25.347  1.00  0.00     0.009 A 
HETATM   37  C   UNL     1       3.035   9.259 -24.670  1.00  0.00     0.001 A 
HETATM   38  C   UNL     1       3.062   9.258 -23.278  1.00  0.00     0.000 A 
HETATM   39  C   UNL     1       1.938   9.656 -22.559  1.00  0.00     0.001 A 
HETATM   40  C   UNL     1       0.781  10.049 -23.232  1.00  0.00     0.009 A 
ENDBRANCH  34  35
ENDBRANCH   1  34
TORSDOF 7
ENDMDL
MODEL 4
REMARK VINA RESULT:      -9.4      3.613     12.650
REMARK  7 active torsions:
REMARK  status: ('A' for Active; 'I' for Inactive)
REMARK    1  A    between atoms: C_4  and  C_5 
REMARK    2  A    between atoms: C_5  and  N_6 
REMARK    3  A    between atoms: C_14  and  C_15 
REMARK    4  A    between atoms: C_18  and  O_19 
REMARK    5  A    between atoms: O_19  and  C_20 
REMARK    6  A    between atoms: C_20  and  C_21 
REMARK    7  A    between atoms: C_22  and  C_23 
ROOT
HETATM    1  N   UNL     1       0.404   7.357 -27.731  1.00  0.00    -0.063 N 
HETATM    2  H   UNL     1       0.531   8.174 -28.340  1.00  0.00     0.280 HD
HETATM    3  C   UNL     1       0.516   6.156 -28.658  1.00  0.00     0.282 C 
HETATM    4  C   UNL     1      -0.597   6.191 -29.649  1.00  0.00     0.018 A 
HETATM    5  C   UNL     1      -1.773   6.901 -29.490  1.00  0.00    -0.023 A 
HETATM    6  C   UNL     1      -2.634   6.733 -30.623  1.00  0.00     0.073 A 
HETATM    7  C   UNL     1      -2.069   5.920 -31.576  1.00  0.00     0.088 A 
HETATM    8  N   UNL     1      -2.656   5.635 -32.753  1.00  0.00    -0.358 N 
HETATM    9  C   UNL     1      -4.050   5.957 -32.973  1.00  0.00     0.219 C 
HETATM   10  N   UNL     1      -4.531   6.953 -32.049  1.00  0.00    -0.332 N 
HETATM   11  C   UNL     1      -3.941   7.307 -30.870  1.00  0.00     0.256 C 
HETATM   12  O   UNL     1      -4.486   8.071 -30.081  1.00  0.00    -0.267 OA
HETATM   13  S   UNL     1      -0.543   5.328 -31.113  1.00  0.00    -0.074 SA
HETATM   14  C   UNL     1      -2.024   7.755 -28.280  1.00  0.00     0.068 C 
HETATM   15  C   UNL     1      -1.005   7.474 -27.159  1.00  0.00     0.240 C 
HETATM   16  H   UNL     1      -2.303   4.867 -33.318  1.00  0.00     0.162 HD
HETATM   17  H   UNL     1      -5.462   7.316 -32.190  1.00  0.00     0.165 HD
ENDROOT
BRANCH   9  18
HETATM   18  C   UNL     1      -4.886   4.692 -32.971  1.00  0.00    -0.016 A 
HETATM   19  C   UNL     1      -5.607   4.270 -34.102  1.00  0.00     0.014 A 
HETATM   20  C   UNL     1      -6.406   3.122 -34.057  1.00  0.00     0.038 A 
HETATM   21  C   UNL     1      -6.511   2.406 -32.870  1.00  0.00     0.079 A 
HETATM   22  C   UNL     1      -5.790   2.795 -31.741  1.00  0.00     0.038 A 
HETATM   23  C   UNL     1      -4.989   3.936 -31.790  1.00  0.00     0.014 A 
BRANCH  21  24
HETATM   24  O   UNL     1      -7.280   1.235 -32.724  1.00  0.00    -0.276 OA
BRANCH  24  25
HETATM   25  C   UNL     1      -7.580   0.429 -33.812  1.00  0.00     0.288 C 
HETATM   26  O   UNL     1      -8.373   0.664 -34.712  1.00  0.00    -0.260 OA
BRANCH  25  27
HETATM   27  C   UNL     1      -6.803  -0.829 -33.762  1.00  0.00     0.085 C 
HETATM   28  C   UNL     1      -6.857  -1.785 -34.700  1.00  0.00     0.043 C 
BRANCH  28  29
HETATM   29  C   UNL     1      -6.042  -2.946 -34.603  1.00  0.00     0.075 A 
HETATM   30  O   UNL     1      -4.727  -2.936 -34.188  1.00  0.00    -0.323 OA
HETATM   31  C   UNL     1      -4.258  -4.207 -34.220  1.00  0.00     0.142 A 
HETATM   32  C   UNL     1      -5.235  -5.067 -34.652  1.00  0.00     0.027 A 
HETATM   33  C   UNL     1      -6.375  -4.264 -34.895  1.00  0.00     0.039 A 
ENDBRANCH  28  29
ENDBRANCH  25  27
ENDBRANCH  24  25
ENDBRANCH  21  24
ENDBRANCH   9  18
BRANCH   1  34
HETATM   34  C   UNL     1       1.507   7.441 -26.709  1.00  0.00     0.273 C 
BRANCH  34  35
HETATM   35  C   UNL     1       1.686   8.780 -26.046  1.00  0.00    -0.033 A 
HETATM   36  C   UNL     1       2.429   8.896 -24.860  1.00  0.00     0.009 A 
HETATM   37  C   UNL     1       2.576  10.134 -24.235  1.00  0.00     0.001 A 
HETATM   38  C   UNL     1       1.990  11.270 -24.788  1.00  0.00     0.000 A 
HETATM   39  C   UNL     1       1.263  11.172 -25.971  1.00  0.00     0.001 A 
HETATM   40  C   UNL     1       1.113   9.936 -26.600  1.00  0.00     0.009 A 
ENDBRANCH  34  35
ENDBRANCH   1  34
TORSDOF 7
ENDMDL
MODEL 5
REMARK VINA RESULT:      -9.3      5.305     13.242
REMARK  7 active torsions:
REMARK  status: ('A' for Active; 'I' for Inactive)
REMARK    1  A    between atoms: C_4  and  C_5 
REMARK    2  A    between atoms: C_5  and  N_6 
REMARK    3  A    between atoms: C_14  and  C_15 
REMARK    4  A    between atoms: C_18  and  O_19 
REMARK    5  A    between atoms: O_19  and  C_20 
REMARK    6  A    between atoms: C_20  and  C_21 
REMARK    7  A    between atoms: C_22  and  C_23 
ROOT
HETATM    1  N   UNL     1      -1.974   5.107 -31.610  1.00  0.00    -0.063 N 
HETATM    2  H   UNL     1      -1.647   4.381 -30.960  1.00  0.00     0.280 HD
HETATM    3  C   UNL     1      -3.304   5.574 -31.040  1.00  0.00     0.282 C 
HETATM    4  C   UNL     1      -4.275   4.443 -31.061  1.00  0.00     0.018 A 
HETATM    5  C   UNL     1      -4.160   3.318 -31.859  1.00  0.00    -0.023 A 
HETATM    6  C   UNL     1      -5.250   2.416 -31.637  1.00  0.00     0.073 A 
HETATM    7  C   UNL     1      -6.122   2.892 -30.688  1.00  0.00     0.088 A 
HETATM    8  N   UNL     1      -7.207   2.215 -30.268  1.00  0.00    -0.358 N 
HETATM    9  C   UNL     1      -7.671   1.052 -30.994  1.00  0.00     0.219 C 
HETATM   10  N   UNL     1      -6.646   0.494 -31.840  1.00  0.00    -0.332 N 
HETATM   11  C   UNL     1      -5.508   1.127 -32.248  1.00  0.00     0.256 C 
HETATM   12  O   UNL     1      -4.752   0.626 -33.073  1.00  0.00    -0.267 OA
HETATM   13  S   UNL     1      -5.671   4.419 -30.089  1.00  0.00    -0.074 SA
HETATM   14  C   UNL     1      -2.991   3.118 -32.779  1.00  0.00     0.068 C 
HETATM   15  C   UNL     1      -2.170   4.411 -32.953  1.00  0.00     0.240 C 
HETATM   16  H   UNL     1      -7.925   2.698 -29.735  1.00  0.00     0.162 HD
HETATM   17  H   UNL     1      -6.845  -0.378 -32.307  1.00  0.00     0.165 HD
ENDROOT
BRANCH   9  18
HETATM   18  C   UNL     1      -8.947   1.379 -31.744  1.00  0.00    -0.016 A 
HETATM   19  C   UNL     1      -9.566   0.456 -32.606  1.00  0.00     0.014 A 
HETATM   20  C   UNL     1     -10.719   0.801 -33.320  1.00  0.00     0.038 A 
HETATM   21  C   UNL     1     -11.242   2.084 -33.199  1.00  0.00     0.079 A 
HETATM   22  C   UNL     1     -10.656   3.010 -32.337  1.00  0.00     0.038 A 
HETATM   23  C   UNL     1      -9.511   2.662 -31.621  1.00  0.00     0.014 A 
BRANCH  21  24
HETATM   24  O   UNL     1     -12.400   2.526 -33.867  1.00  0.00    -0.276 OA
BRANCH  24  25
HETATM   25  C   UNL     1     -12.452   2.594 -35.252  1.00  0.00     0.288 C 
HETATM   26  O   UNL     1     -12.740   1.695 -36.028  1.00  0.00    -0.260 OA
BRANCH  25  27
HETATM   27  C   UNL     1     -12.090   3.949 -35.723  1.00  0.00     0.085 C 
HETATM   28  C   UNL     1     -12.384   5.079 -35.063  1.00  0.00     0.043 C 
BRANCH  28  29
HETATM   29  C   UNL     1     -11.959   6.342 -35.557  1.00  0.00     0.075 A 
HETATM   30  O   UNL     1     -12.790   7.248 -36.181  1.00  0.00    -0.323 OA
HETATM   31  C   UNL     1     -12.057   8.335 -36.526  1.00  0.00     0.142 A 
HETATM   32  C   UNL     1     -10.750   8.170 -36.147  1.00  0.00     0.027 A 
HETATM   33  C   UNL     1     -10.685   6.900 -35.526  1.00  0.00     0.039 A 
ENDBRANCH  28  29
ENDBRANCH  25  27
ENDBRANCH  24  25
ENDBRANCH  21  24
ENDBRANCH   9  18
BRANCH   1  34
HETATM   34  C   UNL     1      -0.903   6.166 -31.601  1.00  0.00     0.273 C 
BRANCH  34  35
HETATM   35  C   UNL     1      -0.281   6.458 -30.262  1.00  0.00    -0.033 A 
HETATM   36  C   UNL     1       0.273   5.423 -29.491  1.00  0.00     0.009 A 
HETATM   37  C   UNL     1       0.830   5.693 -28.240  1.00  0.00     0.001 A 
HETATM   38  C   UNL     1       0.847   6.995 -27.749  1.00  0.00     0.000 A 
HETATM   39  C   UNL     1       0.314   8.033 -28.509  1.00  0.00     0.001 A 
HETATM   40  C   UNL     1      -0.245   7.768 -29.760  1.00  0.00     0.009 A 
ENDBRANCH  34  35
ENDBRANCH   1  34
TORSDOF 7
ENDMDL
MODEL 6
REMARK VINA RESULT:      -9.1      5.225     13.289
REMARK  7 active torsions:
REMARK  status: ('A' for Active; 'I' for Inactive)
REMARK    1  A    between atoms: C_4  and  C_5 
REMARK    2  A    between atoms: C_5  and  N_6 
REMARK    3  A    between atoms: C_14  and  C_15 
REMARK    4  A    between atoms: C_18  and  O_19 
REMARK    5  A    between atoms: O_19  and  C_20 
REMARK    6  A    between atoms: C_20  and  C_21 
REMARK    7  A    between atoms: C_22  and  C_23 
ROOT
HETATM    1  N   UNL     1      -2.244   5.961 -30.529  1.00  0.00    -0.063 N 
HETATM    2  H   UNL     1      -1.934   5.274 -29.832  1.00  0.00     0.280 HD
HETATM    3  C   UNL     1      -3.717   6.189 -30.226  1.00  0.00     0.282 C 
HETATM    4  C   UNL     1      -4.468   4.919 -30.441  1.00  0.00     0.018 A 
HETATM    5  C   UNL     1      -4.021   3.858 -31.208  1.00  0.00    -0.023 A 
HETATM    6  C   UNL     1      -4.971   2.785 -31.207  1.00  0.00     0.073 A 
HETATM    7  C   UNL     1      -6.073   3.081 -30.442  1.00  0.00     0.088 A 
HETATM    8  N   UNL     1      -7.093   2.225 -30.244  1.00  0.00    -0.358 N 
HETATM    9  C   UNL     1      -7.213   1.031 -31.053  1.00  0.00     0.219 C 
HETATM   10  N   UNL     1      -5.969   0.675 -31.687  1.00  0.00    -0.332 N 
HETATM   11  C   UNL     1      -4.893   1.496 -31.863  1.00  0.00     0.256 C 
HETATM   12  O   UNL     1      -3.922   1.152 -32.528  1.00  0.00    -0.267 OA
HETATM   13  S   UNL     1      -6.000   4.637 -29.759  1.00  0.00    -0.074 SA
HETATM   14  C   UNL     1      -2.681   3.881 -31.884  1.00  0.00     0.068 C 
HETATM   15  C   UNL     1      -2.064   5.294 -31.889  1.00  0.00     0.240 C 
HETATM   16  H   UNL     1      -7.969   2.568 -29.859  1.00  0.00     0.162 HD
HETATM   17  H   UNL     1      -5.929  -0.200 -32.189  1.00  0.00     0.165 HD
ENDROOT
BRANCH   9  18
HETATM   18  C   UNL     1      -8.359   1.178 -32.036  1.00  0.00    -0.016 A 
HETATM   19  C   UNL     1      -9.367   0.205 -32.162  1.00  0.00     0.014 A 
HETATM   20  C   UNL     1     -10.387   0.346 -33.109  1.00  0.00     0.038 A 
HETATM   21  C   UNL     1     -10.388   1.448 -33.956  1.00  0.00     0.079 A 
HETATM   22  C   UNL     1      -9.411   2.435 -33.837  1.00  0.00     0.038 A 
HETATM   23  C   UNL     1      -8.397   2.296 -32.888  1.00  0.00     0.014 A 
BRANCH  21  24
HETATM   24  O   UNL     1     -11.373   1.686 -34.934  1.00  0.00    -0.276 OA
BRANCH  24  25
HETATM   25  C   UNL     1     -12.718   1.755 -34.601  1.00  0.00     0.288 C 
HETATM   26  O   UNL     1     -13.628   1.073 -35.049  1.00  0.00    -0.260 OA
BRANCH  25  27
HETATM   27  C   UNL     1     -12.955   2.814 -33.595  1.00  0.00     0.085 C 
HETATM   28  C   UNL     1     -13.997   2.831 -32.752  1.00  0.00     0.043 C 
BRANCH  28  29
HETATM   29  C   UNL     1     -14.129   3.860 -31.781  1.00  0.00     0.075 A 
HETATM   30  O   UNL     1     -15.178   4.753 -31.736  1.00  0.00    -0.323 OA
HETATM   31  C   UNL     1     -14.983   5.594 -30.691  1.00  0.00     0.142 A 
HETATM   32  C   UNL     1     -13.819   5.281 -30.037  1.00  0.00     0.027 A 
HETATM   33  C   UNL     1     -13.274   4.173 -30.729  1.00  0.00     0.039 A 
ENDBRANCH  28  29
ENDBRANCH  25  27
ENDBRANCH  24  25
ENDBRANCH  21  24
ENDBRANCH   9  18
BRANCH   1  34
HETATM   34  C   UNL     1      -1.383   7.176 -30.306  1.00  0.00     0.273 C 
BRANCH  34  35
HETATM   35  C   UNL     1      -0.580   7.187 -29.034  1.00  0.00    -0.033 A 
HETATM   36  C   UNL     1       0.569   7.986 -28.922  1.00  0.00     0.009 A 
HETATM   37  C   UNL     1       1.325   7.978 -27.749  1.00  0.00     0.001 A 
HETATM   38  C   UNL     1       0.940   7.180 -26.675  1.00  0.00     0.000 A 
HETATM   39  C   UNL     1      -0.206   6.394 -26.767  1.00  0.00     0.001 A 
HETATM   40  C   UNL     1      -0.965   6.399 -27.938  1.00  0.00     0.009 A 
ENDBRANCH  34  35
ENDBRANCH   1  34
TORSDOF 7
ENDMDL
MODEL 7
REMARK VINA RESULT:      -9.1      5.700      7.229
REMARK  7 active torsions:
REMARK  status: ('A' for Active; 'I' for Inactive)
REMARK    1  A    between atoms: C_4  and  C_5 
REMARK    2  A    between atoms: C_5  and  N_6 
REMARK    3  A    between atoms: C_14  and  C_15 
REMARK    4  A    between atoms: C_18  and  O_19 
REMARK    5  A    between atoms: O_19  and  C_20 
REMARK    6  A    between atoms: C_20  and  C_21 
REMARK    7  A    between atoms: C_22  and  C_23 
ROOT
HETATM    1  N   UNL     1      -6.958  -0.090 -33.846  1.00  0.00    -0.063 N 
HETATM    2  H   UNL     1      -7.133  -0.672 -33.018  1.00  0.00     0.280 HD
HETATM    3  C   UNL     1      -5.646   0.623 -33.554  1.00  0.00     0.282 C 
HETATM    4  C   UNL     1      -5.821   1.515 -32.373  1.00  0.00     0.018 A 
HETATM    5  C   UNL     1      -7.039   1.974 -31.903  1.00  0.00    -0.023 A 
HETATM    6  C   UNL     1      -6.866   2.804 -30.748  1.00  0.00     0.073 A 
HETATM    7  C   UNL     1      -5.543   2.924 -30.400  1.00  0.00     0.088 A 
HETATM    8  N   UNL     1      -5.116   3.617 -29.328  1.00  0.00    -0.358 N 
HETATM    9  C   UNL     1      -6.015   4.507 -28.626  1.00  0.00     0.219 C 
HETATM   10  N   UNL     1      -7.399   4.210 -28.899  1.00  0.00    -0.332 N 
HETATM   11  C   UNL     1      -7.871   3.470 -29.944  1.00  0.00     0.256 C 
HETATM   12  O   UNL     1      -9.071   3.375 -30.176  1.00  0.00    -0.267 OA
HETATM   13  S   UNL     1      -4.507   2.088 -31.459  1.00  0.00    -0.074 SA
HETATM   14  C   UNL     1      -8.335   1.573 -32.545  1.00  0.00     0.068 C 
HETATM   15  C   UNL     1      -8.114   0.903 -33.916  1.00  0.00     0.240 C 
HETATM   16  H   UNL     1      -4.131   3.853 -29.242  1.00  0.00     0.162 HD
HETATM   17  H   UNL     1      -8.100   4.712 -28.376  1.00  0.00     0.165 HD
ENDROOT
BRANCH   9  18
HETATM   18  C   UNL     1      -5.651   5.951 -28.913  1.00  0.00    -0.016 A 
HETATM   19  C   UNL     1      -6.177   6.651 -30.013  1.00  0.00     0.014 A 
HETATM   20  C   UNL     1      -5.789   7.969 -30.279  1.00  0.00     0.038 A 
HETATM   21  C   UNL     1      -4.848   8.584 -29.460  1.00  0.00     0.079 A 
HETATM   22  C   UNL     1      -4.326   7.916 -28.353  1.00  0.00     0.038 A 
HETATM   23  C   UNL     1      -4.719   6.605 -28.086  1.00  0.00     0.014 A 
BRANCH  21  24
HETATM   24  O   UNL     1      -4.398   9.907 -29.637  1.00  0.00    -0.276 OA
BRANCH  24  25
HETATM   25  C   UNL     1      -3.228  10.185 -30.328  1.00  0.00     0.288 C 
HETATM   26  O   UNL     1      -2.491  11.148 -30.181  1.00  0.00    -0.260 OA
BRANCH  25  27
HETATM   27  C   UNL     1      -2.953   9.135 -31.334  1.00  0.00     0.085 C 
HETATM   28  C   UNL     1      -1.845   8.380 -31.351  1.00  0.00     0.043 C 
BRANCH  28  29
HETATM   29  C   UNL     1      -1.676   7.358 -32.324  1.00  0.00     0.075 A 
HETATM   30  O   UNL     1      -1.302   7.588 -33.631  1.00  0.00    -0.323 OA
HETATM   31  C   UNL     1      -1.243   6.397 -34.276  1.00  0.00     0.142 A 
HETATM   32  C   UNL     1      -1.572   5.375 -33.424  1.00  0.00     0.027 A 
HETATM   33  C   UNL     1      -1.846   5.985 -32.177  1.00  0.00     0.039 A 
ENDBRANCH  28  29
ENDBRANCH  25  27
ENDBRANCH  24  25
ENDBRANCH  21  24
ENDBRANCH   9  18
BRANCH   1  34
HETATM   34  C   UNL     1      -6.883  -1.050 -35.004  1.00  0.00     0.273 C 
BRANCH  34  35
HETATM   35  C   UNL     1      -6.149  -2.337 -34.742  1.00  0.00    -0.033 A 
HETATM   36  C   UNL     1      -6.774  -3.574 -34.970  1.00  0.00     0.009 A 
HETATM   37  C   UNL     1      -6.100  -4.767 -34.706  1.00  0.00     0.001 A 
HETATM   38  C   UNL     1      -4.797  -4.740 -34.218  1.00  0.00     0.000 A 
HETATM   39  C   UNL     1      -4.160  -3.520 -34.000  1.00  0.00     0.001 A 
HETATM   40  C   UNL     1      -4.830  -2.325 -34.263  1.00  0.00     0.009 A 
ENDBRANCH  34  35
ENDBRANCH   1  34
TORSDOF 7
ENDMDL
MODEL 8
REMARK VINA RESULT:      -9.1      1.583      2.249
REMARK  7 active torsions:
REMARK  status: ('A' for Active; 'I' for Inactive)
REMARK    1  A    between atoms: C_4  and  C_5 
REMARK    2  A    between atoms: C_5  and  N_6 
REMARK    3  A    between atoms: C_14  and  C_15 
REMARK    4  A    between atoms: C_18  and  O_19 
REMARK    5  A    between atoms: O_19  and  C_20 
REMARK    6  A    between atoms: C_20  and  C_21 
REMARK    7  A    between atoms: C_22  and  C_23 
ROOT
HETATM    1  N   UNL     1      -5.408   1.795 -31.679  1.00  0.00    -0.063 N 
HETATM    2  H   UNL     1      -5.371   2.026 -32.680  1.00  0.00     0.280 HD
HETATM    3  C   UNL     1      -5.995   3.031 -31.014  1.00  0.00     0.282 C 
HETATM    4  C   UNL     1      -5.068   4.182 -31.205  1.00  0.00     0.018 A 
HETATM    5  C   UNL     1      -3.724   4.071 -31.515  1.00  0.00    -0.023 A 
HETATM    6  C   UNL     1      -3.115   5.362 -31.638  1.00  0.00     0.073 A 
HETATM    7  C   UNL     1      -4.019   6.374 -31.426  1.00  0.00     0.088 A 
HETATM    8  N   UNL     1      -3.709   7.681 -31.523  1.00  0.00    -0.358 N 
HETATM    9  C   UNL     1      -2.326   8.102 -31.595  1.00  0.00     0.219 C 
HETATM   10  N   UNL     1      -1.451   7.030 -31.999  1.00  0.00    -0.332 N 
HETATM   11  C   UNL     1      -1.744   5.697 -31.964  1.00  0.00     0.256 C 
HETATM   12  O   UNL     1      -0.895   4.845 -32.203  1.00  0.00    -0.267 OA
HETATM   13  S   UNL     1      -5.573   5.798 -31.045  1.00  0.00    -0.074 SA
HETATM   14  C   UNL     1      -3.070   2.736 -31.727  1.00  0.00     0.068 C 
HETATM   15  C   UNL     1      -3.963   1.577 -31.244  1.00  0.00     0.240 C 
HETATM   16  H   UNL     1      -4.347   8.378 -31.148  1.00  0.00     0.162 HD
HETATM   17  H   UNL     1      -0.483   7.253 -32.175  1.00  0.00     0.165 HD
ENDROOT
BRANCH   9  18
HETATM   18  C   UNL     1      -1.908   8.749 -30.289  1.00  0.00    -0.016 A 
HETATM   19  C   UNL     1      -1.089   8.089 -29.356  1.00  0.00     0.014 A 
HETATM   20  C   UNL     1      -0.755   8.694 -28.139  1.00  0.00     0.038 A 
HETATM   21  C   UNL     1      -1.265   9.952 -27.837  1.00  0.00     0.079 A 
HETATM   22  C   UNL     1      -2.063  10.634 -28.754  1.00  0.00     0.038 A 
HETATM   23  C   UNL     1      -2.390  10.031 -29.970  1.00  0.00     0.014 A 
BRANCH  21  24
HETATM   24  O   UNL     1      -0.982  10.649 -26.646  1.00  0.00    -0.276 OA
BRANCH  24  25
HETATM   25  C   UNL     1      -1.365  10.149 -25.409  1.00  0.00     0.288 C 
HETATM   26  O   UNL     1      -2.501  10.043 -24.973  1.00  0.00    -0.260 OA
BRANCH  25  27
HETATM   27  C   UNL     1      -0.182   9.743 -24.620  1.00  0.00     0.085 C 
HETATM   28  C   UNL     1       1.086   9.936 -25.012  1.00  0.00     0.043 C 
BRANCH  28  29
HETATM   29  C   UNL     1       2.171   9.560 -24.174  1.00  0.00     0.075 A 
HETATM   30  O   UNL     1       3.453   9.329 -24.625  1.00  0.00    -0.323 OA
HETATM   31  C   UNL     1       4.226   8.987 -23.565  1.00  0.00     0.142 A 
HETATM   32  C   UNL     1       3.483   8.983 -22.413  1.00  0.00     0.027 A 
HETATM   33  C   UNL     1       2.172   9.350 -22.799  1.00  0.00     0.039 A 
ENDBRANCH  28  29
ENDBRANCH  25  27
ENDBRANCH  24  25
ENDBRANCH  21  24
ENDBRANCH   9  18
BRANCH   1  34
HETATM   34  C   UNL     1      -6.287   0.577 -31.580  1.00  0.00     0.273 C 
BRANCH  34  35
HETATM   35  C   UNL     1      -6.134  -0.435 -32.683  1.00  0.00    -0.033 A 
HETATM   36  C   UNL     1      -7.188  -0.682 -33.577  1.00  0.00     0.009 A 
HETATM   37  C   UNL     1      -7.053  -1.636 -34.586  1.00  0.00     0.001 A 
HETATM   38  C   UNL     1      -5.864  -2.348 -34.718  1.00  0.00     0.000 A 
HETATM   39  C   UNL     1      -4.805  -2.104 -33.847  1.00  0.00     0.001 A 
HETATM   40  C   UNL     1      -4.936  -1.151 -32.837  1.00  0.00     0.009 A 
ENDBRANCH  34  35
ENDBRANCH   1  34
TORSDOF 7
ENDMDL
MODEL 9
REMARK VINA RESULT:      -9.1      2.621      4.256
REMARK  7 active torsions:
REMARK  status: ('A' for Active; 'I' for Inactive)
REMARK    1  A    between atoms: C_4  and  C_5 
REMARK    2  A    between atoms: C_5  and  N_6 
REMARK    3  A    between atoms: C_14  and  C_15 
REMARK    4  A    between atoms: C_18  and  O_19 
REMARK    5  A    between atoms: O_19  and  C_20 
REMARK    6  A    between atoms: C_20  and  C_21 
REMARK    7  A    between atoms: C_22  and  C_23 
ROOT
HETATM    1  N   UNL     1      -6.014   0.755 -33.161  1.00  0.00    -0.063 N 
HETATM    2  H   UNL     1      -5.273   0.631 -33.862  1.00  0.00     0.280 HD
HETATM    3  C   UNL     1      -6.592   2.133 -33.443  1.00  0.00     0.282 C 
HETATM    4  C   UNL     1      -5.542   3.166 -33.215  1.00  0.00     0.018 A 
HETATM    5  C   UNL     1      -4.402   2.978 -32.454  1.00  0.00    -0.023 A 
HETATM    6  C   UNL     1      -3.591   4.160 -32.440  1.00  0.00     0.073 A 
HETATM    7  C   UNL     1      -4.147   5.168 -33.189  1.00  0.00     0.088 A 
HETATM    8  N   UNL     1      -3.564   6.368 -33.371  1.00  0.00    -0.358 N 
HETATM    9  C   UNL     1      -2.433   6.762 -32.559  1.00  0.00     0.219 C 
HETATM   10  N   UNL     1      -1.785   5.632 -31.942  1.00  0.00    -0.332 N 
HETATM   11  C   UNL     1      -2.320   4.387 -31.783  1.00  0.00     0.256 C 
HETATM   12  O   UNL     1      -1.750   3.519 -31.132  1.00  0.00    -0.267 OA
HETATM   13  S   UNL     1      -5.641   4.730 -33.874  1.00  0.00    -0.074 SA
HETATM   14  C   UNL     1      -4.098   1.663 -31.797  1.00  0.00     0.068 C 
HETATM   15  C   UNL     1      -5.320   0.723 -31.803  1.00  0.00     0.240 C 
HETATM   16  H   UNL     1      -4.109   7.140 -33.744  1.00  0.00     0.162 HD
HETATM   17  H   UNL     1      -0.925   5.798 -31.440  1.00  0.00     0.165 HD
ENDROOT
BRANCH   9  18
HETATM   18  C   UNL     1      -2.851   7.824 -31.560  1.00  0.00    -0.016 A 
HETATM   19  C   UNL     1      -2.215   9.077 -31.489  1.00  0.00     0.014 A 
HETATM   20  C   UNL     1      -2.592  10.020 -30.527  1.00  0.00     0.038 A 
HETATM   21  C   UNL     1      -3.589   9.704 -29.611  1.00  0.00     0.079 A 
HETATM   22  C   UNL     1      -4.246   8.475 -29.673  1.00  0.00     0.038 A 
HETATM   23  C   UNL     1      -3.873   7.538 -30.636  1.00  0.00     0.014 A 
BRANCH  21  24
HETATM   24  O   UNL     1      -4.046  10.585 -28.612  1.00  0.00    -0.276 OA
BRANCH  24  25
HETATM   25  C   UNL     1      -3.759  10.367 -27.272  1.00  0.00     0.288 C 
HETATM   26  O   UNL     1      -4.550  10.328 -26.342  1.00  0.00    -0.260 OA
BRANCH  25  27
HETATM   27  C   UNL     1      -2.304  10.188 -27.070  1.00  0.00     0.085 C 
HETATM   28  C   UNL     1      -1.756   9.148 -26.426  1.00  0.00     0.043 C 
BRANCH  28  29
HETATM   29  C   UNL     1      -0.345   9.023 -26.315  1.00  0.00     0.075 A 
HETATM   30  O   UNL     1       0.384   9.426 -25.217  1.00  0.00    -0.323 OA
HETATM   31  C   UNL     1       1.694   9.164 -25.451  1.00  0.00     0.142 A 
HETATM   32  C   UNL     1       1.853   8.595 -26.688  1.00  0.00     0.027 A 
HETATM   33  C   UNL     1       0.554   8.502 -27.240  1.00  0.00     0.039 A 
ENDBRANCH  28  29
ENDBRANCH  25  27
ENDBRANCH  24  25
ENDBRANCH  21  24
ENDBRANCH   9  18
BRANCH   1  34
HETATM   34  C   UNL     1      -6.985  -0.371 -33.397  1.00  0.00     0.273 C 
BRANCH  34  35
HETATM   35  C   UNL     1      -6.390  -1.655 -33.909  1.00  0.00    -0.033 A 
HETATM   36  C   UNL     1      -4.998  -1.841 -33.924  1.00  0.00     0.009 A 
HETATM   37  C   UNL     1      -4.446  -3.023 -34.419  1.00  0.00     0.001 A 
HETATM   38  C   UNL     1      -5.276  -4.033 -34.898  1.00  0.00     0.000 A 
HETATM   39  C   UNL     1      -6.658  -3.868 -34.878  1.00  0.00     0.001 A 
HETATM   40  C   UNL     1      -7.214  -2.687 -34.383  1.00  0.00     0.009 A 
ENDBRANCH  34  35
ENDBRANCH   1  34
TORSDOF 7
ENDMDL
MODEL 10
REMARK VINA RESULT:      -9.0      7.260      9.750
REMARK  7 active torsions:
REMARK  status: ('A' for Active; 'I' for Inactive)
REMARK    1  A    between atoms: C_4  and  C_5 
REMARK    2  A    between atoms: C_5  and  N_6 
REMARK    3  A    between atoms: C_14  and  C_15 
REMARK    4  A    between atoms: C_18  and  O_19 
REMARK    5  A    between atoms: O_19  and  C_20 
REMARK    6  A    between atoms: C_20  and  C_21 
REMARK    7  A    between atoms: C_22  and  C_23 
ROOT
HETATM    1  N   UNL     1      -6.406  -0.039 -34.026  1.00  0.00    -0.063 N 
HETATM    2  H   UNL     1      -5.384   0.065 -34.041  1.00  0.00     0.280 HD
HETATM    3  C   UNL     1      -6.944   1.324 -34.432  1.00  0.00     0.282 C 
HETATM    4  C   UNL     1      -6.553   2.334 -33.407  1.00  0.00     0.018 A 
HETATM    5  C   UNL     1      -6.178   2.038 -32.109  1.00  0.00    -0.023 A 
HETATM    6  C   UNL     1      -5.855   3.229 -31.381  1.00  0.00     0.073 A 
HETATM    7  C   UNL     1      -5.993   4.354 -32.157  1.00  0.00     0.088 A 
HETATM    8  N   UNL     1      -5.713   5.597 -31.723  1.00  0.00    -0.358 N 
HETATM    9  C   UNL     1      -5.503   5.849 -30.313  1.00  0.00     0.219 C 
HETATM   10  N   UNL     1      -5.186   4.646 -29.586  1.00  0.00    -0.332 N 
HETATM   11  C   UNL     1      -5.407   3.368 -30.011  1.00  0.00     0.256 C 
HETATM   12  O   UNL     1      -5.226   2.404 -29.275  1.00  0.00    -0.267 OA
HETATM   13  S   UNL     1      -6.539   4.004 -33.730  1.00  0.00    -0.074 SA
HETATM   14  C   UNL     1      -6.097   0.623 -31.614  1.00  0.00     0.068 C 
HETATM   15  C   UNL     1      -6.776  -0.364 -32.583  1.00  0.00     0.240 C 
HETATM   16  H   UNL     1      -6.035   6.400 -32.255  1.00  0.00     0.162 HD
HETATM   17  H   UNL     1      -4.923   4.737 -28.616  1.00  0.00     0.165 HD
ENDROOT
BRANCH   9  18
HETATM   18  C   UNL     1      -6.689   6.597 -29.734  1.00  0.00    -0.016 A 
HETATM   19  C   UNL     1      -6.966   7.935 -30.068  1.00  0.00     0.014 A 
HETATM   20  C   UNL     1      -8.041   8.613 -29.484  1.00  0.00     0.038 A 
HETATM   21  C   UNL     1      -8.828   7.965 -28.538  1.00  0.00     0.079 A 
HETATM   22  C   UNL     1      -8.584   6.634 -28.205  1.00  0.00     0.038 A 
HETATM   23  C   UNL     1      -7.515   5.957 -28.793  1.00  0.00     0.014 A 
BRANCH  21  24
HETATM   24  O   UNL     1      -9.936   8.556 -27.900  1.00  0.00    -0.276 OA
BRANCH  24  25
HETATM   25  C   UNL     1     -10.013   8.636 -26.517  1.00  0.00     0.288 C 
HETATM   26  O   UNL     1      -9.137   8.995 -25.746  1.00  0.00    -0.260 OA
BRANCH  25  27
HETATM   27  C   UNL     1     -11.346   8.204 -26.042  1.00  0.00     0.085 C 
HETATM   28  C   UNL     1     -11.711   8.171 -24.753  1.00  0.00     0.043 C 
BRANCH  28  29
HETATM   29  C   UNL     1     -13.028   7.788 -24.379  1.00  0.00     0.075 A 
HETATM   30  O   UNL     1     -13.792   6.871 -25.069  1.00  0.00    -0.323 OA
HETATM   31  C   UNL     1     -14.988   6.751 -24.442  1.00  0.00     0.142 A 
HETATM   32  C   UNL     1     -15.038   7.573 -23.346  1.00  0.00     0.027 A 
HETATM   33  C   UNL     1     -13.787   8.234 -23.302  1.00  0.00     0.039 A 
ENDBRANCH  28  29
ENDBRANCH  25  27
ENDBRANCH  24  25
ENDBRANCH  21  24
ENDBRANCH   9  18
BRANCH   1  34
HETATM   34  C   UNL     1      -6.713  -1.132 -35.016  1.00  0.00     0.273 C 
BRANCH  34  35
HETATM   35  C   UNL     1      -6.038  -2.453 -34.765  1.00  0.00    -0.033 A 
HETATM   36  C   UNL     1      -4.725  -2.502 -34.269  1.00  0.00     0.009 A 
HETATM   37  C   UNL     1      -4.094  -3.728 -34.057  1.00  0.00     0.001 A 
HETATM   38  C   UNL     1      -4.765  -4.916 -34.332  1.00  0.00     0.000 A 
HETATM   39  C   UNL     1      -6.072  -4.883 -34.812  1.00  0.00     0.001 A 
HETATM   40  C   UNL     1      -6.708  -3.659 -35.024  1.00  0.00     0.009 A 
ENDBRANCH  34  35
ENDBRANCH   1  34
TORSDOF 7
ENDMDL
