MODEL 1
REMARK VINA RESULT:      -8.0      0.000      0.000
REMARK  5 active torsions:
REMARK  status: ('A' for Active; 'I' for Inactive)
REMARK    1  A    between atoms: C_3  and  N_4 
REMARK       I    between atoms: N_4  and  C_5 
REMARK       I    between atoms: C_5  and  N_6 
REMARK    2  A    between atoms: N_6  and  C_7 
REMARK    3  A    between atoms: C_7  and  C_8 
REMARK    4  A    between atoms: C_8  and  O_9 
REMARK    5  A    between atoms: O_9  and  C_10 
ROOT
HETATM    1  N   UNL     1      -2.785   3.219 -32.208  1.00  0.00    -0.307 N 
HETATM    2  C   UNL     1      -3.806   2.904 -31.357  1.00  0.00     0.320 C 
HETATM    3  N   UNL     1      -3.933   1.574 -31.072  1.00  0.00    -0.340 N 
HETATM    4  O   UNL     1      -4.577   3.685 -30.816  1.00  0.00    -0.247 OA
HETATM    5  H   UNL     1      -2.006   2.586 -32.135  1.00  0.00     0.170 HD
HETATM    6  H   UNL     1      -4.780   1.393 -30.541  1.00  0.00     0.164 HD
ENDROOT
BRANCH   3   7
HETATM    7  C   UNL     1      -3.345   0.429 -31.756  1.00  0.00     0.156 C 
BRANCH   7   8
HETATM    8  C   UNL     1      -4.357  -0.704 -32.002  1.00  0.00     0.142 C 
HETATM    9  C   UNL     1      -5.735  -0.364 -31.431  1.00  0.00     0.042 C 
BRANCH   8  10
HETATM   10  O   UNL     1      -4.517  -0.896 -33.414  1.00  0.00    -0.343 OA
BRANCH  10  11
HETATM   11  C   UNL     1      -4.883  -2.138 -33.859  1.00  0.00     0.086 A 
HETATM   12  C   UNL     1      -6.090  -2.240 -34.566  1.00  0.00     0.044 A 
HETATM   13 BR   UNL     1      -7.201  -0.725 -34.856  1.00  0.00    -0.048 Br
HETATM   14  C   UNL     1      -6.519  -3.470 -35.073  1.00  0.00     0.022 A 
HETATM   15  C   UNL     1      -5.739  -4.609 -34.885  1.00  0.00     0.002 A 
HETATM   16  C   UNL     1      -4.528  -4.515 -34.204  1.00  0.00     0.003 A 
HETATM   17  C   UNL     1      -4.096  -3.284 -33.700  1.00  0.00     0.038 A 
ENDBRANCH  10  11
ENDBRANCH   8  10
ENDBRANCH   7   8
ENDBRANCH   3   7
BRANCH   1  18
HETATM   18  C   UNL     1      -2.481   4.483 -32.771  1.00  0.00     0.059 A 
HETATM   19  C   UNL     1      -1.477   5.372 -32.360  1.00  0.00    -0.032 A 
HETATM   20  C   UNL     1      -0.565   5.164 -31.185  1.00  0.00     0.050 C 
HETATM   21  C   UNL     1      -1.313   6.568 -33.084  1.00  0.00     0.028 A 
HETATM   22  C   UNL     1      -2.173   6.868 -34.128  1.00  0.00     0.117 A 
HETATM   23  N   UNL     1      -3.185   6.069 -34.504  1.00  0.00    -0.271 NA
HETATM   24  C   UNL     1      -3.309   4.907 -33.819  1.00  0.00     0.146 A 
ENDBRANCH   1  18
TORSDOF 5
ENDMDL
MODEL 2
REMARK VINA RESULT:      -7.6      2.941      8.185
REMARK  5 active torsions:
REMARK  status: ('A' for Active; 'I' for Inactive)
REMARK    1  A    between atoms: C_3  and  N_4 
REMARK       I    between atoms: N_4  and  C_5 
REMARK       I    between atoms: C_5  and  N_6 
REMARK    2  A    between atoms: N_6  and  C_7 
REMARK    3  A    between atoms: C_7  and  C_8 
REMARK    4  A    between atoms: C_8  and  O_9 
REMARK    5  A    between atoms: O_9  and  C_10 
ROOT
HETATM    1  N   UNL     1      -4.785  -0.445 -32.705  1.00  0.00    -0.307 N 
HETATM    2  C   UNL     1      -5.290  -0.066 -31.493  1.00  0.00     0.320 C 
HETATM    3  N   UNL     1      -4.651   0.987 -30.903  1.00  0.00    -0.340 N 
HETATM    4  O   UNL     1      -6.256  -0.550 -30.918  1.00  0.00    -0.247 OA
HETATM    5  H   UNL     1      -4.380   0.322 -33.217  1.00  0.00     0.170 HD
HETATM    6  H   UNL     1      -4.990   1.136 -29.957  1.00  0.00     0.164 HD
ENDROOT
BRANCH   3   7
HETATM    7  C   UNL     1      -3.352   1.567 -31.221  1.00  0.00     0.156 C 
BRANCH   7   8
HETATM    8  C   UNL     1      -3.454   3.021 -31.715  1.00  0.00     0.142 C 
HETATM    9  C   UNL     1      -4.481   3.820 -30.913  1.00  0.00     0.042 C 
BRANCH   8  10
HETATM   10  O   UNL     1      -2.185   3.668 -31.546  1.00  0.00    -0.343 OA
BRANCH  10  11
HETATM   11  C   UNL     1      -1.853   4.674 -32.411  1.00  0.00     0.086 A 
HETATM   12  C   UNL     1      -1.095   5.740 -31.903  1.00  0.00     0.044 A 
HETATM   13 BR   UNL     1      -0.589   5.810 -30.072  1.00  0.00    -0.048 Br
HETATM   14  C   UNL     1      -0.697   6.793 -32.731  1.00  0.00     0.022 A 
HETATM   15  C   UNL     1      -1.045   6.786 -34.080  1.00  0.00     0.002 A 
HETATM   16  C   UNL     1      -1.777   5.722 -34.601  1.00  0.00     0.003 A 
HETATM   17  C   UNL     1      -2.172   4.666 -33.774  1.00  0.00     0.038 A 
ENDBRANCH  10  11
ENDBRANCH   8  10
ENDBRANCH   7   8
ENDBRANCH   3   7
BRANCH   1  18
HETATM   18  C   UNL     1      -5.159  -1.561 -33.493  1.00  0.00     0.059 A 
HETATM   19  C   UNL     1      -6.351  -1.725 -34.214  1.00  0.00    -0.032 A 
HETATM   20  C   UNL     1      -7.493  -0.751 -34.231  1.00  0.00     0.050 C 
HETATM   21  C   UNL     1      -6.512  -2.902 -34.971  1.00  0.00     0.028 A 
HETATM   22  C   UNL     1      -5.536  -3.884 -34.937  1.00  0.00     0.117 A 
HETATM   23  N   UNL     1      -4.413  -3.787 -34.204  1.00  0.00    -0.271 NA
HETATM   24  C   UNL     1      -4.259  -2.635 -33.508  1.00  0.00     0.146 A 
ENDBRANCH   1  18
TORSDOF 5
ENDMDL
MODEL 3
REMARK VINA RESULT:      -7.5      1.928      2.469
REMARK  5 active torsions:
REMARK  status: ('A' for Active; 'I' for Inactive)
REMARK    1  A    between atoms: C_3  and  N_4 
REMARK       I    between atoms: N_4  and  C_5 
REMARK       I    between atoms: C_5  and  N_6 
REMARK    2  A    between atoms: N_6  and  C_7 
REMARK    3  A    between atoms: C_7  and  C_8 
REMARK    4  A    between atoms: C_8  and  O_9 
REMARK    5  A    between atoms: O_9  and  C_10 
ROOT
HETATM    1  N   UNL     1      -4.790   3.162 -31.845  1.00  0.00    -0.307 N 
HETATM    2  C   UNL     1      -5.816   3.504 -31.010  1.00  0.00     0.320 C 
HETATM    3  N   UNL     1      -6.283   2.491 -30.221  1.00  0.00    -0.340 N 
HETATM    4  O   UNL     1      -6.319   4.613 -30.883  1.00  0.00    -0.247 OA
HETATM    5  H   UNL     1      -4.208   2.430 -31.471  1.00  0.00     0.170 HD
HETATM    6  H   UNL     1      -7.120   2.775 -29.720  1.00  0.00     0.164 HD
ENDROOT
BRANCH   3   7
HETATM    7  C   UNL     1      -6.060   1.056 -30.343  1.00  0.00     0.156 C 
BRANCH   7   8
HETATM    8  C   UNL     1      -6.954   0.403 -31.412  1.00  0.00     0.142 C 
HETATM    9  C   UNL     1      -8.298   1.119 -31.540  1.00  0.00     0.042 C 
BRANCH   8  10
HETATM   10  O   UNL     1      -6.304   0.488 -32.688  1.00  0.00    -0.343 OA
BRANCH  10  11
HETATM   11  C   UNL     1      -6.089  -0.672 -33.382  1.00  0.00     0.086 A 
HETATM   12  C   UNL     1      -4.772  -1.149 -33.453  1.00  0.00     0.044 A 
HETATM   13 BR   UNL     1      -3.330  -0.196 -32.659  1.00  0.00    -0.048 Br
HETATM   14  C   UNL     1      -4.477  -2.339 -34.123  1.00  0.00     0.022 A 
HETATM   15  C   UNL     1      -5.501  -3.071 -34.721  1.00  0.00     0.002 A 
HETATM   16  C   UNL     1      -6.816  -2.620 -34.637  1.00  0.00     0.003 A 
HETATM   17  C   UNL     1      -7.111  -1.431 -33.963  1.00  0.00     0.038 A 
ENDBRANCH  10  11
ENDBRANCH   8  10
ENDBRANCH   7   8
ENDBRANCH   3   7
BRANCH   1  18
HETATM   18  C   UNL     1      -4.184   3.957 -32.849  1.00  0.00     0.059 A 
HETATM   19  C   UNL     1      -2.892   4.502 -32.830  1.00  0.00    -0.032 A 
HETATM   20  C   UNL     1      -1.921   4.387 -31.690  1.00  0.00     0.050 C 
HETATM   21  C   UNL     1      -2.464   5.235 -33.953  1.00  0.00     0.028 A 
HETATM   22  C   UNL     1      -3.335   5.454 -35.007  1.00  0.00     0.117 A 
HETATM   23  N   UNL     1      -4.600   5.003 -35.028  1.00  0.00    -0.271 NA
HETATM   24  C   UNL     1      -4.985   4.272 -33.955  1.00  0.00     0.146 A 
ENDBRANCH   1  18
TORSDOF 5
ENDMDL
MODEL 4
REMARK VINA RESULT:      -7.5      6.563      8.577
REMARK  5 active torsions:
REMARK  status: ('A' for Active; 'I' for Inactive)
REMARK    1  A    between atoms: C_3  and  N_4 
REMARK       I    between atoms: N_4  and  C_5 
REMARK       I    between atoms: C_5  and  N_6 
REMARK    2  A    between atoms: N_6  and  C_7 
REMARK    3  A    between atoms: C_7  and  C_8 
REMARK    4  A    between atoms: C_8  and  O_9 
REMARK    5  A    between atoms: O_9  and  C_10 
ROOT
HETATM    1  N   UNL     1     -12.050   1.724 -33.483  1.00  0.00    -0.307 N 
HETATM    2  C   UNL     1     -11.328   2.202 -34.540  1.00  0.00     0.320 C 
HETATM    3  N   UNL     1     -10.084   1.658 -34.685  1.00  0.00    -0.340 N 
HETATM    4  O   UNL     1     -11.696   3.028 -35.366  1.00  0.00    -0.247 OA
HETATM    5  H   UNL     1     -11.829   0.768 -33.259  1.00  0.00     0.170 HD
HETATM    6  H   UNL     1      -9.555   2.142 -35.405  1.00  0.00     0.164 HD
ENDROOT
BRANCH   3   7
HETATM    7  C   UNL     1      -9.307   0.877 -33.730  1.00  0.00     0.156 C 
BRANCH   7   8
HETATM    8  C   UNL     1      -8.227   0.013 -34.404  1.00  0.00     0.142 C 
HETATM    9  C   UNL     1      -7.231   0.866 -35.189  1.00  0.00     0.042 C 
BRANCH   8  10
HETATM   10  O   UNL     1      -7.486  -0.689 -33.396  1.00  0.00    -0.343 OA
BRANCH  10  11
HETATM   11  C   UNL     1      -6.581  -1.633 -33.801  1.00  0.00     0.086 A 
HETATM   12  C   UNL     1      -5.254  -1.480 -33.372  1.00  0.00     0.044 A 
HETATM   13 BR   UNL     1      -4.720   0.005 -32.313  1.00  0.00    -0.048 Br
HETATM   14  C   UNL     1      -4.277  -2.416 -33.725  1.00  0.00     0.022 A 
HETATM   15  C   UNL     1      -4.622  -3.520 -34.501  1.00  0.00     0.002 A 
HETATM   16  C   UNL     1      -5.941  -3.694 -34.912  1.00  0.00     0.003 A 
HETATM   17  C   UNL     1      -6.919  -2.761 -34.557  1.00  0.00     0.038 A 
ENDBRANCH  10  11
ENDBRANCH   8  10
ENDBRANCH   7   8
ENDBRANCH   3   7
BRANCH   1  18
HETATM   18  C   UNL     1     -13.311   2.174 -33.016  1.00  0.00     0.059 A 
HETATM   19  C   UNL     1     -14.567   1.627 -33.315  1.00  0.00    -0.032 A 
HETATM   20  C   UNL     1     -14.810   0.478 -34.252  1.00  0.00     0.050 C 
HETATM   21  C   UNL     1     -15.702   2.202 -32.712  1.00  0.00     0.028 A 
HETATM   22  C   UNL     1     -15.563   3.318 -31.903  1.00  0.00     0.117 A 
HETATM   23  N   UNL     1     -14.381   3.906 -31.650  1.00  0.00    -0.271 NA
HETATM   24  C   UNL     1     -13.297   3.320 -32.210  1.00  0.00     0.146 A 
ENDBRANCH   1  18
TORSDOF 5
ENDMDL
MODEL 5
REMARK VINA RESULT:      -7.4      2.156      3.423
REMARK  5 active torsions:
REMARK  status: ('A' for Active; 'I' for Inactive)
REMARK    1  A    between atoms: C_3  and  N_4 
REMARK       I    between atoms: N_4  and  C_5 
REMARK       I    between atoms: C_5  and  N_6 
REMARK    2  A    between atoms: N_6  and  C_7 
REMARK    3  A    between atoms: C_7  and  C_8 
REMARK    4  A    between atoms: C_8  and  O_9 
REMARK    5  A    between atoms: O_9  and  C_10 
ROOT
HETATM    1  N   UNL     1      -5.986   2.133 -32.542  1.00  0.00    -0.307 N 
HETATM    2  C   UNL     1      -6.803   1.670 -31.550  1.00  0.00     0.320 C 
HETATM    3  N   UNL     1      -7.904   0.984 -31.980  1.00  0.00    -0.340 N 
HETATM    4  O   UNL     1      -6.629   1.783 -30.344  1.00  0.00    -0.247 OA
HETATM    5  H   UNL     1      -5.995   1.549 -33.362  1.00  0.00     0.170 HD
HETATM    6  H   UNL     1      -8.531   0.779 -31.207  1.00  0.00     0.164 HD
ENDROOT
BRANCH   3   7
HETATM    7  C   UNL     1      -8.486   0.927 -33.315  1.00  0.00     0.156 C 
BRANCH   7   8
HETATM    8  C   UNL     1      -7.866  -0.178 -34.188  1.00  0.00     0.142 C 
HETATM    9  C   UNL     1      -7.196   0.397 -35.437  1.00  0.00     0.042 C 
BRANCH   8  10
HETATM   10  O   UNL     1      -6.851  -0.860 -33.438  1.00  0.00    -0.343 OA
BRANCH  10  11
HETATM   11  C   UNL     1      -6.366  -2.040 -33.933  1.00  0.00     0.086 A 
HETATM   12  C   UNL     1      -4.978  -2.238 -33.885  1.00  0.00     0.044 A 
HETATM   13 BR   UNL     1      -3.809  -0.902 -33.206  1.00  0.00    -0.048 Br
HETATM   14  C   UNL     1      -4.410  -3.428 -34.350  1.00  0.00     0.022 A 
HETATM   15  C   UNL     1      -5.226  -4.436 -34.857  1.00  0.00     0.002 A 
HETATM   16  C   UNL     1      -6.607  -4.260 -34.888  1.00  0.00     0.003 A 
HETATM   17  C   UNL     1      -7.177  -3.072 -34.420  1.00  0.00     0.038 A 
ENDBRANCH  10  11
ENDBRANCH   8  10
ENDBRANCH   7   8
ENDBRANCH   3   7
BRANCH   1  18
HETATM   18  C   UNL     1      -4.847   2.966 -32.413  1.00  0.00     0.059 A 
HETATM   19  C   UNL     1      -4.645   4.221 -33.006  1.00  0.00    -0.032 A 
HETATM   20  C   UNL     1      -5.597   4.893 -33.954  1.00  0.00     0.050 C 
HETATM   21  C   UNL     1      -3.451   4.908 -32.716  1.00  0.00     0.028 A 
HETATM   22  C   UNL     1      -2.489   4.313 -31.917  1.00  0.00     0.117 A 
HETATM   23  N   UNL     1      -2.622   3.086 -31.387  1.00  0.00    -0.271 NA
HETATM   24  C   UNL     1      -3.790   2.452 -31.649  1.00  0.00     0.146 A 
ENDBRANCH   1  18
TORSDOF 5
ENDMDL
MODEL 6
REMARK VINA RESULT:      -7.1      6.184      8.826
REMARK  5 active torsions:
REMARK  status: ('A' for Active; 'I' for Inactive)
REMARK    1  A    between atoms: C_3  and  N_4 
REMARK       I    between atoms: N_4  and  C_5 
REMARK       I    between atoms: C_5  and  N_6 
REMARK    2  A    between atoms: N_6  and  C_7 
REMARK    3  A    between atoms: C_7  and  C_8 
REMARK    4  A    between atoms: C_8  and  O_9 
REMARK    5  A    between atoms: O_9  and  C_10 
ROOT
HETATM    1  N   UNL     1      -7.464  -0.771 -33.991  1.00  0.00    -0.307 N 
HETATM    2  C   UNL     1      -7.768   0.200 -34.903  1.00  0.00     0.320 C 
HETATM    3  N   UNL     1      -8.863   0.958 -34.599  1.00  0.00    -0.340 N 
HETATM    4  O   UNL     1      -7.147   0.468 -35.924  1.00  0.00    -0.247 OA
HETATM    5  H   UNL     1      -7.729  -0.522 -33.052  1.00  0.00     0.170 HD
HETATM    6  H   UNL     1      -9.109   1.572 -35.371  1.00  0.00     0.164 HD
ENDROOT
BRANCH   3   7
HETATM    7  C   UNL     1      -9.913   0.702 -33.620  1.00  0.00     0.156 C 
BRANCH   7   8
HETATM    8  C   UNL     1     -10.601   1.989 -33.134  1.00  0.00     0.142 C 
HETATM    9  C   UNL     1      -9.675   3.201 -33.243  1.00  0.00     0.042 C 
BRANCH   8  10
HETATM   10  O   UNL     1     -11.746   2.253 -33.956  1.00  0.00    -0.343 OA
BRANCH  10  11
HETATM   11  C   UNL     1     -12.914   2.613 -33.341  1.00  0.00     0.086 A 
HETATM   12  C   UNL     1     -13.882   1.615 -33.157  1.00  0.00     0.044 A 
HETATM   13 BR   UNL     1     -13.606  -0.159 -33.782  1.00  0.00    -0.048 Br
HETATM   14  C   UNL     1     -15.090   1.901 -32.516  1.00  0.00     0.022 A 
HETATM   15  C   UNL     1     -15.338   3.187 -32.041  1.00  0.00     0.002 A 
HETATM   16  C   UNL     1     -14.374   4.180 -32.197  1.00  0.00     0.003 A 
HETATM   17  C   UNL     1     -13.164   3.894 -32.836  1.00  0.00     0.038 A 
ENDBRANCH  10  11
ENDBRANCH   8  10
ENDBRANCH   7   8
ENDBRANCH   3   7
BRANCH   1  18
HETATM   18  C   UNL     1      -6.468  -1.774 -34.088  1.00  0.00     0.059 A 
HETATM   19  C   UNL     1      -5.125  -1.672 -33.696  1.00  0.00    -0.032 A 
HETATM   20  C   UNL     1      -4.475  -0.435 -33.146  1.00  0.00     0.050 C 
HETATM   21  C   UNL     1      -4.304  -2.806 -33.842  1.00  0.00     0.028 A 
HETATM   22  C   UNL     1      -4.812  -3.958 -34.420  1.00  0.00     0.117 A 
HETATM   23  N   UNL     1      -6.075  -4.066 -34.867  1.00  0.00    -0.271 NA
HETATM   24  C   UNL     1      -6.861  -2.977 -34.689  1.00  0.00     0.146 A 
ENDBRANCH   1  18
TORSDOF 5
ENDMDL
MODEL 7
REMARK VINA RESULT:      -7.1      3.088      7.925
REMARK  5 active torsions:
REMARK  status: ('A' for Active; 'I' for Inactive)
REMARK    1  A    between atoms: C_3  and  N_4 
REMARK       I    between atoms: N_4  and  C_5 
REMARK       I    between atoms: C_5  and  N_6 
REMARK    2  A    between atoms: N_6  and  C_7 
REMARK    3  A    between atoms: C_7  and  C_8 
REMARK    4  A    between atoms: C_8  and  O_9 
REMARK    5  A    between atoms: O_9  and  C_10 
ROOT
HETATM    1  N   UNL     1      -5.680   1.182 -33.250  1.00  0.00    -0.307 N 
HETATM    2  C   UNL     1      -6.397   1.650 -32.186  1.00  0.00     0.320 C 
HETATM    3  N   UNL     1      -6.252   2.984 -31.930  1.00  0.00    -0.340 N 
HETATM    4  O   UNL     1      -7.162   1.007 -31.478  1.00  0.00    -0.247 OA
HETATM    5  H   UNL     1      -5.545   1.877 -33.966  1.00  0.00     0.170 HD
HETATM    6  H   UNL     1      -6.707   3.240 -31.058  1.00  0.00     0.164 HD
ENDROOT
BRANCH   3   7
HETATM    7  C   UNL     1      -5.239   3.908 -32.425  1.00  0.00     0.156 C 
BRANCH   7   8
HETATM    8  C   UNL     1      -5.691   4.669 -33.684  1.00  0.00     0.142 C 
HETATM    9  C   UNL     1      -7.195   4.946 -33.667  1.00  0.00     0.042 C 
BRANCH   8  10
HETATM   10  O   UNL     1      -5.025   5.939 -33.733  1.00  0.00    -0.343 OA
BRANCH  10  11
HETATM   11  C   UNL     1      -3.662   5.948 -33.850  1.00  0.00     0.086 A 
HETATM   12  C   UNL     1      -2.934   6.630 -32.863  1.00  0.00     0.044 A 
HETATM   13 BR   UNL     1      -3.806   7.547 -31.445  1.00  0.00    -0.048 Br
HETATM   14  C   UNL     1      -1.537   6.664 -32.902  1.00  0.00     0.022 A 
HETATM   15  C   UNL     1      -0.854   6.007 -33.923  1.00  0.00     0.002 A 
HETATM   16  C   UNL     1      -1.566   5.308 -34.895  1.00  0.00     0.003 A 
HETATM   17  C   UNL     1      -2.962   5.270 -34.855  1.00  0.00     0.038 A 
ENDBRANCH  10  11
ENDBRANCH   8  10
ENDBRANCH   7   8
ENDBRANCH   3   7
BRANCH   1  18
HETATM   18  C   UNL     1      -5.540  -0.160 -33.683  1.00  0.00     0.059 A 
HETATM   19  C   UNL     1      -6.393  -0.863 -34.546  1.00  0.00    -0.032 A 
HETATM   20  C   UNL     1      -7.667  -0.327 -35.130  1.00  0.00     0.050 C 
HETATM   21  C   UNL     1      -6.050  -2.186 -34.884  1.00  0.00     0.028 A 
HETATM   22  C   UNL     1      -4.933  -2.777 -34.316  1.00  0.00     0.117 A 
HETATM   23  N   UNL     1      -4.133  -2.153 -33.435  1.00  0.00    -0.271 NA
HETATM   24  C   UNL     1      -4.457  -0.871 -33.147  1.00  0.00     0.146 A 
ENDBRANCH   1  18
TORSDOF 5
ENDMDL
MODEL 8
REMARK VINA RESULT:      -7.1      2.412      3.328
REMARK  5 active torsions:
REMARK  status: ('A' for Active; 'I' for Inactive)
REMARK    1  A    between atoms: C_3  and  N_4 
REMARK       I    between atoms: N_4  and  C_5 
REMARK       I    between atoms: C_5  and  N_6 
REMARK    2  A    between atoms: N_6  and  C_7 
REMARK    3  A    between atoms: C_7  and  C_8 
REMARK    4  A    between atoms: C_8  and  O_9 
REMARK    5  A    between atoms: O_9  and  C_10 
ROOT
HETATM    1  N   UNL     1      -6.393   2.423 -32.268  1.00  0.00    -0.307 N 
HETATM    2  C   UNL     1      -6.982   1.592 -31.358  1.00  0.00     0.320 C 
HETATM    3  N   UNL     1      -7.855   0.683 -31.885  1.00  0.00    -0.340 N 
HETATM    4  O   UNL     1      -6.782   1.567 -30.151  1.00  0.00    -0.247 OA
HETATM    5  H   UNL     1      -6.276   1.994 -33.172  1.00  0.00     0.170 HD
HETATM    6  H   UNL     1      -8.351   0.185 -31.151  1.00  0.00     0.164 HD
ENDROOT
BRANCH   3   7
HETATM    7  C   UNL     1      -8.467   0.658 -33.208  1.00  0.00     0.156 C 
BRANCH   7   8
HETATM    8  C   UNL     1      -7.740  -0.282 -34.184  1.00  0.00     0.142 C 
HETATM    9  C   UNL     1      -7.162   0.479 -35.377  1.00  0.00     0.042 C 
BRANCH   8  10
HETATM   10  O   UNL     1      -6.642  -0.909 -33.507  1.00  0.00    -0.343 OA
BRANCH  10  11
HETATM   11  C   UNL     1      -6.206  -2.121 -33.968  1.00  0.00     0.086 A 
HETATM   12  C   UNL     1      -4.838  -2.405 -33.844  1.00  0.00     0.044 A 
HETATM   13 BR   UNL     1      -3.626  -1.139 -33.109  1.00  0.00    -0.048 Br
HETATM   14  C   UNL     1      -4.321  -3.632 -34.271  1.00  0.00     0.022 A 
HETATM   15  C   UNL     1      -5.171  -4.591 -34.817  1.00  0.00     0.002 A 
HETATM   16  C   UNL     1      -6.534  -4.329 -34.924  1.00  0.00     0.003 A 
HETATM   17  C   UNL     1      -7.052  -3.104 -34.494  1.00  0.00     0.038 A 
ENDBRANCH  10  11
ENDBRANCH   8  10
ENDBRANCH   7   8
ENDBRANCH   3   7
BRANCH   1  18
HETATM   18  C   UNL     1      -5.543   3.528 -32.014  1.00  0.00     0.059 A 
HETATM   19  C   UNL     1      -4.192   3.487 -31.639  1.00  0.00    -0.032 A 
HETATM   20  C   UNL     1      -3.405   2.236 -31.376  1.00  0.00     0.050 C 
HETATM   21  C   UNL     1      -3.512   4.709 -31.472  1.00  0.00     0.028 A 
HETATM   22  C   UNL     1      -4.196   5.905 -31.616  1.00  0.00     0.117 A 
HETATM   23  N   UNL     1      -5.505   5.978 -31.910  1.00  0.00    -0.271 NA
HETATM   24  C   UNL     1      -6.136   4.795 -32.099  1.00  0.00     0.146 A 
ENDBRANCH   1  18
TORSDOF 5
ENDMDL
MODEL 9
REMARK VINA RESULT:      -7.0      1.849      2.372
REMARK  5 active torsions:
REMARK  status: ('A' for Active; 'I' for Inactive)
REMARK    1  A    between atoms: C_3  and  N_4 
REMARK       I    between atoms: N_4  and  C_5 
REMARK       I    between atoms: C_5  and  N_6 
REMARK    2  A    between atoms: N_6  and  C_7 
REMARK    3  A    between atoms: C_7  and  C_8 
REMARK    4  A    between atoms: C_8  and  O_9 
REMARK    5  A    between atoms: O_9  and  C_10 
ROOT
HETATM    1  N   UNL     1      -2.511   4.124 -31.223  1.00  0.00    -0.307 N 
HETATM    2  C   UNL     1      -3.137   3.813 -32.396  1.00  0.00     0.320 C 
HETATM    3  N   UNL     1      -3.750   2.593 -32.420  1.00  0.00    -0.340 N 
HETATM    4  O   UNL     1      -3.224   4.521 -33.391  1.00  0.00    -0.247 OA
HETATM    5  H   UNL     1      -2.952   3.705 -30.421  1.00  0.00     0.170 HD
HETATM    6  H   UNL     1      -4.084   2.370 -33.353  1.00  0.00     0.164 HD
ENDROOT
BRANCH   3   7
HETATM    7  C   UNL     1      -3.590   1.468 -31.507  1.00  0.00     0.156 C 
BRANCH   7   8
HETATM    8  C   UNL     1      -4.632   0.360 -31.738  1.00  0.00     0.142 C 
HETATM    9  C   UNL     1      -5.952   0.668 -31.031  1.00  0.00     0.042 C 
BRANCH   8  10
HETATM   10  O   UNL     1      -4.913   0.260 -33.141  1.00  0.00    -0.343 OA
BRANCH  10  11
HETATM   11  C   UNL     1      -5.128  -0.983 -33.670  1.00  0.00     0.086 A 
HETATM   12  C   UNL     1      -6.341  -1.199 -34.340  1.00  0.00     0.044 A 
HETATM   13 BR   UNL     1      -7.659   0.165 -34.467  1.00  0.00    -0.048 Br
HETATM   14  C   UNL     1      -6.623  -2.436 -34.927  1.00  0.00     0.022 A 
HETATM   15  C   UNL     1      -5.689  -3.466 -34.859  1.00  0.00     0.002 A 
HETATM   16  C   UNL     1      -4.471  -3.256 -34.216  1.00  0.00     0.003 A 
HETATM   17  C   UNL     1      -4.187  -2.018 -33.632  1.00  0.00     0.038 A 
ENDBRANCH  10  11
ENDBRANCH   8  10
ENDBRANCH   7   8
ENDBRANCH   3   7
BRANCH   1  18
HETATM   18  C   UNL     1      -1.703   5.254 -30.940  1.00  0.00     0.059 A 
HETATM   19  C   UNL     1      -2.128   6.495 -30.446  1.00  0.00    -0.032 A 
HETATM   20  C   UNL     1      -3.556   6.876 -30.177  1.00  0.00     0.050 C 
HETATM   21  C   UNL     1      -1.153   7.479 -30.195  1.00  0.00     0.028 A 
HETATM   22  C   UNL     1       0.175   7.228 -30.498  1.00  0.00     0.117 A 
HETATM   23  N   UNL     1       0.606   6.075 -31.035  1.00  0.00    -0.271 NA
HETATM   24  C   UNL     1      -0.339   5.127 -31.239  1.00  0.00     0.146 A 
ENDBRANCH   1  18
TORSDOF 5
ENDMDL
MODEL 10
REMARK VINA RESULT:      -7.0      2.138      2.620
REMARK  5 active torsions:
REMARK  status: ('A' for Active; 'I' for Inactive)
REMARK    1  A    between atoms: C_3  and  N_4 
REMARK       I    between atoms: N_4  and  C_5 
REMARK       I    between atoms: C_5  and  N_6 
REMARK    2  A    between atoms: N_6  and  C_7 
REMARK    3  A    between atoms: C_7  and  C_8 
REMARK    4  A    between atoms: C_8  and  O_9 
REMARK    5  A    between atoms: O_9  and  C_10 
ROOT
HETATM    1  N   UNL     1      -2.611   4.569 -31.002  1.00  0.00    -0.307 N 
HETATM    2  C   UNL     1      -2.649   4.084 -32.278  1.00  0.00     0.320 C 
HETATM    3  N   UNL     1      -3.156   2.822 -32.404  1.00  0.00    -0.340 N 
HETATM    4  O   UNL     1      -2.308   4.673 -33.297  1.00  0.00    -0.247 OA
HETATM    5  H   UNL     1      -3.349   4.202 -30.423  1.00  0.00     0.170 HD
HETATM    6  H   UNL     1      -3.039   2.475 -33.352  1.00  0.00     0.164 HD
ENDROOT
BRANCH   3   7
HETATM    7  C   UNL     1      -3.383   1.818 -31.373  1.00  0.00     0.156 C 
BRANCH   7   8
HETATM    8  C   UNL     1      -4.710   1.062 -31.559  1.00  0.00     0.142 C 
HETATM    9  C   UNL     1      -5.883   1.813 -30.929  1.00  0.00     0.042 C 
BRANCH   8  10
HETATM   10  O   UNL     1      -4.989   0.935 -32.961  1.00  0.00    -0.343 OA
BRANCH  10  11
HETATM   11  C   UNL     1      -5.126  -0.323 -33.481  1.00  0.00     0.086 A 
HETATM   12  C   UNL     1      -6.218  -0.556 -34.330  1.00  0.00     0.044 A 
HETATM   13 BR   UNL     1      -7.488   0.808 -34.706  1.00  0.00    -0.048 Br
HETATM   14  C   UNL     1      -6.412  -1.808 -34.918  1.00  0.00     0.022 A 
HETATM   15  C   UNL     1      -5.508  -2.839 -34.672  1.00  0.00     0.002 A 
HETATM   16  C   UNL     1      -4.407  -2.613 -33.849  1.00  0.00     0.003 A 
HETATM   17  C   UNL     1      -4.211  -1.359 -33.263  1.00  0.00     0.038 A 
ENDBRANCH  10  11
ENDBRANCH   8  10
ENDBRANCH   7   8
ENDBRANCH   3   7
BRANCH   1  18
HETATM   18  C   UNL     1      -2.041   5.785 -30.549  1.00  0.00     0.059 A 
HETATM   19  C   UNL     1      -0.678   6.062 -30.366  1.00  0.00    -0.032 A 
HETATM   20  C   UNL     1       0.440   5.080 -30.565  1.00  0.00     0.050 C 
HETATM   21  C   UNL     1      -0.316   7.355 -29.943  1.00  0.00     0.028 A 
HETATM   22  C   UNL     1      -1.298   8.290 -29.658  1.00  0.00     0.117 A 
HETATM   23  N   UNL     1      -2.614   8.035 -29.759  1.00  0.00    -0.271 NA
HETATM   24  C   UNL     1      -2.945   6.797 -30.199  1.00  0.00     0.146 A 
ENDBRANCH   1  18
TORSDOF 5
ENDMDL
