MODEL 1
REMARK VINA RESULT:      -8.1      0.000      0.000
REMARK  7 active torsions:
REMARK  status: ('A' for Active; 'I' for Inactive)
REMARK    1  A    between atoms: C_2  and  N_3 
REMARK    2  A    between atoms: C_2  and  C_17 
REMARK       I    between atoms: N_3  and  C_4 
REMARK    3  A    between atoms: C_4  and  C_5 
REMARK    4  A    between atoms: C_6  and  N_7 
REMARK    5  A    between atoms: C_17  and  O_18 
REMARK    6  A    between atoms: C_17  and  C_19 
REMARK    7  A    between atoms: C_22  and  O_23 
ROOT
HETATM    1  N   UNL     1      -6.667   0.136 -33.596  1.00  0.00    -0.350 N 
HETATM    2  C   UNL     1      -6.879  -0.858 -34.508  1.00  0.00     0.255 C 
HETATM    3  O   UNL     1      -7.721  -0.702 -35.394  1.00  0.00    -0.268 OA
HETATM    4  H   UNL     1      -5.937   0.028 -32.894  1.00  0.00     0.163 HD
ENDROOT
BRANCH   1   5
HETATM    5  C   UNL     1      -7.352   1.430 -33.661  1.00  0.00     0.114 C 
HETATM    6  C   UNL     1      -6.345   2.571 -33.503  1.00  0.00     0.035 C 
BRANCH   5   7
HETATM    7  C   UNL     1      -8.558   1.527 -32.680  1.00  0.00     0.173 C 
BRANCH   7   8
HETATM    8  O   UNL     1      -8.493   0.454 -31.728  1.00  0.00    -0.389 OA
HETATM    9  H   UNL     1      -9.411   0.294 -31.447  1.00  0.00     0.210 HD
ENDBRANCH   7   8
BRANCH   7  10
HETATM   10  C   UNL     1      -9.924   1.535 -33.346  1.00  0.00    -0.028 A 
HETATM   11  C   UNL     1     -10.820   0.480 -33.129  1.00  0.00     0.012 A 
HETATM   12  C   UNL     1     -12.080   0.481 -33.735  1.00  0.00     0.037 A 
HETATM   13  C   UNL     1     -12.470   1.530 -34.570  1.00  0.00     0.068 A 
HETATM   14  C   UNL     1     -11.592   2.590 -34.785  1.00  0.00     0.037 A 
HETATM   15  C   UNL     1     -10.332   2.592 -34.176  1.00  0.00     0.012 A 
BRANCH  13  16
HETATM   16  O   UNL     1     -13.724   1.405 -35.103  1.00  0.00    -0.356 OA
HETATM   17  C   UNL     1     -14.721   0.825 -34.271  1.00  0.00     0.210 C 
ENDBRANCH  13  16
ENDBRANCH   7  10
ENDBRANCH   5   7
ENDBRANCH   1   5
BRANCH   2  18
HETATM   18  C   UNL     1      -6.136  -2.168 -34.436  1.00  0.00     0.079 A 
HETATM   19  C   UNL     1      -4.912  -2.542 -33.859  1.00  0.00     0.165 A 
HETATM   20  N   UNL     1      -4.437  -3.838 -33.936  1.00  0.00    -0.241 NA
HETATM   21  C   UNL     1      -5.149  -4.777 -34.585  1.00  0.00     0.119 A 
HETATM   22  C   UNL     1      -6.352  -4.510 -35.184  1.00  0.00     0.020 A 
HETATM   23  C   UNL     1      -6.836  -3.208 -35.103  1.00  0.00     0.022 A 
BRANCH  19  24
HETATM   24  N   UNL     1      -4.007  -1.677 -33.154  1.00  0.00    -0.226 N 
HETATM   25  N   UNL     1      -3.747  -0.385 -33.474  1.00  0.00    -0.179 NA
HETATM   26  C   UNL     1      -2.859   0.033 -32.570  1.00  0.00     0.141 A 
HETATM   27  C   UNL     1      -2.528  -0.957 -31.643  1.00  0.00     0.040 A 
HETATM   28  C   UNL     1      -3.273  -2.041 -32.031  1.00  0.00     0.122 A 
ENDBRANCH  19  24
ENDBRANCH   2  18
TORSDOF 7
ENDMDL
MODEL 2
REMARK VINA RESULT:      -8.0      2.716      7.721
REMARK  7 active torsions:
REMARK  status: ('A' for Active; 'I' for Inactive)
REMARK    1  A    between atoms: C_2  and  N_3 
REMARK    2  A    between atoms: C_2  and  C_17 
REMARK       I    between atoms: N_3  and  C_4 
REMARK    3  A    between atoms: C_4  and  C_5 
REMARK    4  A    between atoms: C_6  and  N_7 
REMARK    5  A    between atoms: C_17  and  O_18 
REMARK    6  A    between atoms: C_17  and  C_19 
REMARK    7  A    between atoms: C_22  and  O_23 
ROOT
HETATM    1  N   UNL     1      -9.057   1.257 -33.326  1.00  0.00    -0.350 N 
HETATM    2  C   UNL     1     -10.184   0.515 -33.114  1.00  0.00     0.255 C 
HETATM    3  O   UNL     1     -10.099  -0.572 -32.538  1.00  0.00    -0.268 OA
HETATM    4  H   UNL     1      -9.134   2.177 -33.757  1.00  0.00     0.163 HD
ENDROOT
BRANCH   1   5
HETATM    5  C   UNL     1      -7.738   0.852 -32.831  1.00  0.00     0.114 C 
HETATM    6  C   UNL     1      -7.259   1.821 -31.748  1.00  0.00     0.035 C 
BRANCH   5   7
HETATM    7  C   UNL     1      -6.702   0.638 -33.973  1.00  0.00     0.173 C 
BRANCH   7   8
HETATM    8  O   UNL     1      -7.266   1.067 -35.222  1.00  0.00    -0.389 OA
HETATM    9  H   UNL     1      -8.040   0.496 -35.373  1.00  0.00     0.210 HD
ENDBRANCH   7   8
BRANCH   7  10
HETATM   10  C   UNL     1      -6.185  -0.785 -34.110  1.00  0.00    -0.028 A 
HETATM   11  C   UNL     1      -4.887  -1.106 -33.694  1.00  0.00     0.012 A 
HETATM   12  C   UNL     1      -4.406  -2.414 -33.814  1.00  0.00     0.037 A 
HETATM   13  C   UNL     1      -5.205  -3.423 -34.352  1.00  0.00     0.068 A 
HETATM   14  C   UNL     1      -6.502  -3.118 -34.761  1.00  0.00     0.037 A 
HETATM   15  C   UNL     1      -6.987  -1.811 -34.638  1.00  0.00     0.012 A 
BRANCH  13  16
HETATM   16  O   UNL     1      -4.611  -4.654 -34.419  1.00  0.00    -0.356 OA
HETATM   17  C   UNL     1      -3.407  -4.826 -33.683  1.00  0.00     0.210 C 
ENDBRANCH  13  16
ENDBRANCH   7  10
ENDBRANCH   5   7
ENDBRANCH   1   5
BRANCH   2  18
HETATM   18  C   UNL     1     -11.534   0.971 -33.606  1.00  0.00     0.079 A 
HETATM   19  C   UNL     1     -12.006   2.195 -34.106  1.00  0.00     0.165 A 
HETATM   20  N   UNL     1     -13.322   2.364 -34.496  1.00  0.00    -0.241 NA
HETATM   21  C   UNL     1     -14.189   1.342 -34.392  1.00  0.00     0.119 A 
HETATM   22  C   UNL     1     -13.828   0.110 -33.912  1.00  0.00     0.020 A 
HETATM   23  C   UNL     1     -12.502  -0.065 -33.525  1.00  0.00     0.022 A 
BRANCH  19  24
HETATM   24  N   UNL     1     -11.237   3.400 -34.264  1.00  0.00    -0.226 N 
HETATM   25  N   UNL     1     -10.648   4.091 -33.257  1.00  0.00    -0.179 NA
HETATM   26  C   UNL     1     -10.049   5.129 -33.844  1.00  0.00     0.141 A 
HETATM   27  C   UNL     1     -10.220   5.137 -35.230  1.00  0.00     0.040 A 
HETATM   28  C   UNL     1     -10.980   4.023 -35.479  1.00  0.00     0.122 A 
ENDBRANCH  19  24
ENDBRANCH   2  18
TORSDOF 7
ENDMDL
MODEL 3
REMARK VINA RESULT:      -7.9      3.145      8.647
REMARK  7 active torsions:
REMARK  status: ('A' for Active; 'I' for Inactive)
REMARK    1  A    between atoms: C_2  and  N_3 
REMARK    2  A    between atoms: C_2  and  C_17 
REMARK       I    between atoms: N_3  and  C_4 
REMARK    3  A    between atoms: C_4  and  C_5 
REMARK    4  A    between atoms: C_6  and  N_7 
REMARK    5  A    between atoms: C_17  and  O_18 
REMARK    6  A    between atoms: C_17  and  C_19 
REMARK    7  A    between atoms: C_22  and  O_23 
ROOT
HETATM    1  N   UNL     1      -8.852   1.801 -33.984  1.00  0.00    -0.350 N 
HETATM    2  C   UNL     1     -10.219   1.810 -33.979  1.00  0.00     0.255 C 
HETATM    3  O   UNL     1     -10.833   0.785 -33.674  1.00  0.00    -0.268 OA
HETATM    4  H   UNL     1      -8.344   2.660 -34.187  1.00  0.00     0.163 HD
ENDROOT
BRANCH   1   5
HETATM    5  C   UNL     1      -8.067   0.635 -33.571  1.00  0.00     0.114 C 
HETATM    6  C   UNL     1      -7.713   0.735 -32.086  1.00  0.00     0.035 C 
BRANCH   5   7
HETATM    7  C   UNL     1      -6.834   0.379 -34.487  1.00  0.00     0.173 C 
BRANCH   7   8
HETATM    8  O   UNL     1      -7.161   0.722 -35.842  1.00  0.00    -0.389 OA
HETATM    9  H   UNL     1      -7.500  -0.096 -36.247  1.00  0.00     0.210 HD
ENDBRANCH   7   8
BRANCH   7  10
HETATM   10  C   UNL     1      -6.283  -1.036 -34.438  1.00  0.00    -0.028 A 
HETATM   11  C   UNL     1      -4.979  -1.269 -33.983  1.00  0.00     0.012 A 
HETATM   12  C   UNL     1      -4.466  -2.569 -33.932  1.00  0.00     0.037 A 
HETATM   13  C   UNL     1      -5.239  -3.659 -34.336  1.00  0.00     0.068 A 
HETATM   14  C   UNL     1      -6.541  -3.440 -34.782  1.00  0.00     0.037 A 
HETATM   15  C   UNL     1      -7.057  -2.141 -34.830  1.00  0.00     0.012 A 
BRANCH  13  16
HETATM   16  O   UNL     1      -4.616  -4.874 -34.243  1.00  0.00    -0.356 OA
HETATM   17  C   UNL     1      -3.372  -4.905 -33.555  1.00  0.00     0.210 C 
ENDBRANCH  13  16
ENDBRANCH   7  10
ENDBRANCH   5   7
ENDBRANCH   1   5
BRANCH   2  18
HETATM   18  C   UNL     1     -11.002   3.034 -34.378  1.00  0.00     0.079 A 
HETATM   19  C   UNL     1     -12.377   3.312 -34.438  1.00  0.00     0.165 A 
HETATM   20  N   UNL     1     -12.853   4.543 -34.852  1.00  0.00    -0.241 NA
HETATM   21  C   UNL     1     -11.992   5.507 -35.219  1.00  0.00     0.119 A 
HETATM   22  C   UNL     1     -10.633   5.333 -35.200  1.00  0.00     0.020 A 
HETATM   23  C   UNL     1     -10.149   4.098 -34.778  1.00  0.00     0.022 A 
BRANCH  19  24
HETATM   24  N   UNL     1     -13.441   2.403 -34.113  1.00  0.00    -0.226 N 
HETATM   25  N   UNL     1     -13.901   1.414 -34.919  1.00  0.00    -0.179 NA
HETATM   26  C   UNL     1     -14.881   0.824 -34.231  1.00  0.00     0.141 A 
HETATM   27  C   UNL     1     -15.077   1.397 -32.973  1.00  0.00     0.040 A 
HETATM   28  C   UNL     1     -14.146   2.402 -32.915  1.00  0.00     0.122 A 
ENDBRANCH  19  24
ENDBRANCH   2  18
TORSDOF 7
ENDMDL
MODEL 4
REMARK VINA RESULT:      -7.7      3.307      6.442
REMARK  7 active torsions:
REMARK  status: ('A' for Active; 'I' for Inactive)
REMARK    1  A    between atoms: C_2  and  N_3 
REMARK    2  A    between atoms: C_2  and  C_17 
REMARK       I    between atoms: N_3  and  C_4 
REMARK    3  A    between atoms: C_4  and  C_5 
REMARK    4  A    between atoms: C_6  and  N_7 
REMARK    5  A    between atoms: C_17  and  O_18 
REMARK    6  A    between atoms: C_17  and  C_19 
REMARK    7  A    between atoms: C_22  and  O_23 
ROOT
HETATM    1  N   UNL     1      -3.814   1.399 -32.657  1.00  0.00    -0.350 N 
HETATM    2  C   UNL     1      -3.974   2.645 -32.121  1.00  0.00     0.255 C 
HETATM    3  O   UNL     1      -4.409   2.763 -30.973  1.00  0.00    -0.268 OA
HETATM    4  H   UNL     1      -3.409   1.299 -33.586  1.00  0.00     0.163 HD
ENDROOT
BRANCH   1   5
HETATM    5  C   UNL     1      -4.072   0.172 -31.898  1.00  0.00     0.114 C 
HETATM    6  C   UNL     1      -2.761  -0.394 -31.347  1.00  0.00     0.035 C 
BRANCH   5   7
HETATM    7  C   UNL     1      -4.910  -0.869 -32.695  1.00  0.00     0.173 C 
BRANCH   7   8
HETATM    8  O   UNL     1      -4.134  -1.376 -33.792  1.00  0.00    -0.389 OA
HETATM    9  H   UNL     1      -4.673  -1.227 -34.589  1.00  0.00     0.210 HD
ENDBRANCH   7   8
BRANCH   7  10
HETATM   10  C   UNL     1      -6.245  -0.357 -33.211  1.00  0.00    -0.028 A 
HETATM   11  C   UNL     1      -7.214   0.113 -32.314  1.00  0.00     0.012 A 
HETATM   12  C   UNL     1      -8.443   0.588 -32.781  1.00  0.00     0.037 A 
HETATM   13  C   UNL     1      -8.732   0.603 -34.147  1.00  0.00     0.068 A 
HETATM   14  C   UNL     1      -7.772   0.148 -35.049  1.00  0.00     0.037 A 
HETATM   15  C   UNL     1      -6.540  -0.325 -34.584  1.00  0.00     0.012 A 
BRANCH  13  16
HETATM   16  O   UNL     1      -9.971   1.087 -34.468  1.00  0.00    -0.356 OA
HETATM   17  C   UNL     1     -10.998   0.913 -33.501  1.00  0.00     0.210 C 
ENDBRANCH  13  16
ENDBRANCH   7  10
ENDBRANCH   5   7
ENDBRANCH   1   5
BRANCH   2  18
HETATM   18  C   UNL     1      -3.671   3.890 -32.914  1.00  0.00     0.079 A 
HETATM   19  C   UNL     1      -4.485   4.867 -33.509  1.00  0.00     0.165 A 
HETATM   20  N   UNL     1      -3.950   5.937 -34.203  1.00  0.00    -0.241 NA
HETATM   21  C   UNL     1      -2.617   6.056 -34.329  1.00  0.00     0.119 A 
HETATM   22  C   UNL     1      -1.739   5.155 -33.789  1.00  0.00     0.020 A 
HETATM   23  C   UNL     1      -2.273   4.080 -33.084  1.00  0.00     0.022 A 
BRANCH  19  24
HETATM   24  N   UNL     1      -5.923   4.892 -33.503  1.00  0.00    -0.226 N 
HETATM   25  N   UNL     1      -6.687   5.931 -33.087  1.00  0.00    -0.179 NA
HETATM   26  C   UNL     1      -7.949   5.529 -33.249  1.00  0.00     0.141 A 
HETATM   27  C   UNL     1      -8.041   4.240 -33.778  1.00  0.00     0.040 A 
HETATM   28  C   UNL     1      -6.735   3.850 -33.936  1.00  0.00     0.122 A 
ENDBRANCH  19  24
ENDBRANCH   2  18
TORSDOF 7
ENDMDL
MODEL 5
REMARK VINA RESULT:      -7.5      3.061      5.787
REMARK  7 active torsions:
REMARK  status: ('A' for Active; 'I' for Inactive)
REMARK    1  A    between atoms: C_2  and  N_3 
REMARK    2  A    between atoms: C_2  and  C_17 
REMARK       I    between atoms: N_3  and  C_4 
REMARK    3  A    between atoms: C_4  and  C_5 
REMARK    4  A    between atoms: C_6  and  N_7 
REMARK    5  A    between atoms: C_17  and  O_18 
REMARK    6  A    between atoms: C_17  and  C_19 
REMARK    7  A    between atoms: C_22  and  O_23 
ROOT
HETATM    1  N   UNL     1      -7.198   3.337 -32.513  1.00  0.00    -0.350 N 
HETATM    2  C   UNL     1      -6.504   4.133 -33.380  1.00  0.00     0.255 C 
HETATM    3  O   UNL     1      -7.118   4.820 -34.199  1.00  0.00    -0.268 OA
HETATM    4  H   UNL     1      -6.694   2.808 -31.803  1.00  0.00     0.163 HD
ENDROOT
BRANCH   1   5
HETATM    5  C   UNL     1      -8.662   3.312 -32.459  1.00  0.00     0.114 C 
HETATM    6  C   UNL     1      -9.163   4.164 -31.291  1.00  0.00     0.035 C 
BRANCH   5   7
HETATM    7  C   UNL     1      -9.244   1.868 -32.468  1.00  0.00     0.173 C 
BRANCH   7   8
HETATM    8  O   UNL     1      -9.469   1.431 -31.119  1.00  0.00    -0.389 OA
HETATM    9  H   UNL     1     -10.435   1.380 -31.015  1.00  0.00     0.210 HD
ENDBRANCH   7   8
BRANCH   7  10
HETATM   10  C   UNL     1      -8.398   0.841 -33.202  1.00  0.00    -0.028 A 
HETATM   11  C   UNL     1      -7.723  -0.156 -32.487  1.00  0.00     0.012 A 
HETATM   12  C   UNL     1      -6.944  -1.106 -33.155  1.00  0.00     0.037 A 
HETATM   13  C   UNL     1      -6.821  -1.079 -34.546  1.00  0.00     0.068 A 
HETATM   14  C   UNL     1      -7.496  -0.098 -35.268  1.00  0.00     0.037 A 
HETATM   15  C   UNL     1      -8.278   0.851 -34.602  1.00  0.00     0.012 A 
BRANCH  13  16
HETATM   16  O   UNL     1      -6.025  -2.060 -35.072  1.00  0.00    -0.356 OA
HETATM   17  C   UNL     1      -4.820  -2.352 -34.376  1.00  0.00     0.210 C 
ENDBRANCH  13  16
ENDBRANCH   7  10
ENDBRANCH   5   7
ENDBRANCH   1   5
BRANCH   2  18
HETATM   18  C   UNL     1      -4.998   4.163 -33.392  1.00  0.00     0.079 A 
HETATM   19  C   UNL     1      -4.020   3.376 -32.762  1.00  0.00     0.165 A 
HETATM   20  N   UNL     1      -2.670   3.616 -32.935  1.00  0.00    -0.241 NA
HETATM   21  C   UNL     1      -2.263   4.631 -33.717  1.00  0.00     0.119 A 
HETATM   22  C   UNL     1      -3.137   5.458 -34.371  1.00  0.00     0.020 A 
HETATM   23  C   UNL     1      -4.498   5.216 -34.204  1.00  0.00     0.022 A 
BRANCH  19  24
HETATM   24  N   UNL     1      -4.263   2.271 -31.875  1.00  0.00    -0.226 N 
HETATM   25  N   UNL     1      -4.993   2.328 -30.734  1.00  0.00    -0.179 NA
HETATM   26  C   UNL     1      -4.958   1.094 -30.228  1.00  0.00     0.141 A 
HETATM   27  C   UNL     1      -4.224   0.208 -31.021  1.00  0.00     0.040 A 
HETATM   28  C   UNL     1      -3.790   0.979 -32.069  1.00  0.00     0.122 A 
ENDBRANCH  19  24
ENDBRANCH   2  18
TORSDOF 7
ENDMDL
MODEL 6
REMARK VINA RESULT:      -7.3      2.584      3.761
REMARK  7 active torsions:
REMARK  status: ('A' for Active; 'I' for Inactive)
REMARK    1  A    between atoms: C_2  and  N_3 
REMARK    2  A    between atoms: C_2  and  C_17 
REMARK       I    between atoms: N_3  and  C_4 
REMARK    3  A    between atoms: C_4  and  C_5 
REMARK    4  A    between atoms: C_6  and  N_7 
REMARK    5  A    between atoms: C_17  and  O_18 
REMARK    6  A    between atoms: C_17  and  C_19 
REMARK    7  A    between atoms: C_22  and  O_23 
ROOT
HETATM    1  N   UNL     1      -6.923  -0.222 -32.913  1.00  0.00    -0.350 N 
HETATM    2  C   UNL     1      -7.006  -0.985 -34.044  1.00  0.00     0.255 C 
HETATM    3  O   UNL     1      -7.780  -0.655 -34.945  1.00  0.00    -0.268 OA
HETATM    4  H   UNL     1      -6.247  -0.466 -32.191  1.00  0.00     0.163 HD
ENDROOT
BRANCH   1   5
HETATM    5  C   UNL     1      -7.669   1.027 -32.744  1.00  0.00     0.114 C 
HETATM    6  C   UNL     1      -6.809   2.219 -33.168  1.00  0.00     0.035 C 
BRANCH   5   7
HETATM    7  C   UNL     1      -8.281   1.179 -31.321  1.00  0.00     0.173 C 
BRANCH   7   8
HETATM    8  O   UNL     1      -9.526   0.466 -31.252  1.00  0.00    -0.389 OA
HETATM    9  H   UNL     1     -10.221   1.135 -31.379  1.00  0.00     0.210 HD
ENDBRANCH   7   8
BRANCH   7  10
HETATM   10  C   UNL     1      -8.491   2.614 -30.864  1.00  0.00    -0.028 A 
HETATM   11  C   UNL     1      -7.568   3.221 -30.003  1.00  0.00     0.012 A 
HETATM   12  C   UNL     1      -7.752   4.542 -29.581  1.00  0.00     0.037 A 
HETATM   13  C   UNL     1      -8.859   5.280 -30.005  1.00  0.00     0.068 A 
HETATM   14  C   UNL     1      -9.779   4.689 -30.869  1.00  0.00     0.037 A 
HETATM   15  C   UNL     1      -9.594   3.369 -31.295  1.00  0.00     0.012 A 
BRANCH  13  16
HETATM   16  O   UNL     1      -8.923   6.555 -29.514  1.00  0.00    -0.356 OA
HETATM   17  C   UNL     1      -8.542   6.740 -28.156  1.00  0.00     0.210 C 
ENDBRANCH  13  16
ENDBRANCH   7  10
ENDBRANCH   5   7
ENDBRANCH   1   5
BRANCH   2  18
HETATM   18  C   UNL     1      -6.202  -2.249 -34.205  1.00  0.00     0.079 A 
HETATM   19  C   UNL     1      -4.905  -2.615 -33.809  1.00  0.00     0.165 A 
HETATM   20  N   UNL     1      -4.384  -3.865 -34.087  1.00  0.00    -0.241 NA
HETATM   21  C   UNL     1      -5.121  -4.764 -34.763  1.00  0.00     0.119 A 
HETATM   22  C   UNL     1      -6.394  -4.502 -35.197  1.00  0.00     0.020 A 
HETATM   23  C   UNL     1      -6.924  -3.247 -34.913  1.00  0.00     0.022 A 
BRANCH  19  24
HETATM   24  N   UNL     1      -3.967  -1.783 -33.106  1.00  0.00    -0.226 N 
HETATM   25  N   UNL     1      -3.743  -0.470 -33.356  1.00  0.00    -0.179 NA
HETATM   26  C   UNL     1      -2.804  -0.098 -32.483  1.00  0.00     0.141 A 
HETATM   27  C   UNL     1      -2.404  -1.142 -31.646  1.00  0.00     0.040 A 
HETATM   28  C   UNL     1      -3.160  -2.210 -32.057  1.00  0.00     0.122 A 
ENDBRANCH  19  24
ENDBRANCH   2  18
TORSDOF 7
ENDMDL
MODEL 7
REMARK VINA RESULT:      -7.3     13.484     15.055
REMARK  7 active torsions:
REMARK  status: ('A' for Active; 'I' for Inactive)
REMARK    1  A    between atoms: C_2  and  N_3 
REMARK    2  A    between atoms: C_2  and  C_17 
REMARK       I    between atoms: N_3  and  C_4 
REMARK    3  A    between atoms: C_4  and  C_5 
REMARK    4  A    between atoms: C_6  and  N_7 
REMARK    5  A    between atoms: C_17  and  O_18 
REMARK    6  A    between atoms: C_17  and  C_19 
REMARK    7  A    between atoms: C_22  and  O_23 
ROOT
HETATM    1  N   UNL     1      -4.392 -14.160 -37.036  1.00  0.00    -0.350 N 
HETATM    2  C   UNL     1      -3.715 -13.214 -37.751  1.00  0.00     0.255 C 
HETATM    3  O   UNL     1      -3.987 -12.022 -37.594  1.00  0.00    -0.268 OA
HETATM    4  H   UNL     1      -4.134 -15.141 -37.129  1.00  0.00     0.163 HD
ENDROOT
BRANCH   1   5
HETATM    5  C   UNL     1      -5.395 -13.821 -36.024  1.00  0.00     0.114 C 
HETATM    6  C   UNL     1      -4.808 -13.987 -34.620  1.00  0.00     0.035 C 
BRANCH   5   7
HETATM    7  C   UNL     1      -6.741 -14.576 -36.226  1.00  0.00     0.173 C 
BRANCH   7   8
HETATM    8  O   UNL     1      -6.491 -15.986 -36.336  1.00  0.00    -0.389 OA
HETATM    9  H   UNL     1      -6.026 -16.107 -37.182  1.00  0.00     0.210 HD
ENDBRANCH   7   8
BRANCH   7  10
HETATM   10  C   UNL     1      -7.564 -14.111 -37.416  1.00  0.00    -0.028 A 
HETATM   11  C   UNL     1      -7.462 -12.790 -37.870  1.00  0.00     0.012 A 
HETATM   12  C   UNL     1      -8.214 -12.356 -38.966  1.00  0.00     0.037 A 
HETATM   13  C   UNL     1      -9.082 -13.226 -39.628  1.00  0.00     0.068 A 
HETATM   14  C   UNL     1      -9.185 -14.545 -39.191  1.00  0.00     0.037 A 
HETATM   15  C   UNL     1      -8.431 -14.983 -38.097  1.00  0.00     0.012 A 
BRANCH  13  16
HETATM   16  O   UNL     1      -9.762 -12.673 -40.679  1.00  0.00    -0.356 OA
HETATM   17  C   UNL     1     -10.630 -11.587 -40.381  1.00  0.00     0.210 C 
ENDBRANCH  13  16
ENDBRANCH   7  10
ENDBRANCH   5   7
ENDBRANCH   1   5
BRANCH   2  18
HETATM   18  C   UNL     1      -2.665 -13.590 -38.764  1.00  0.00     0.079 A 
HETATM   19  C   UNL     1      -2.728 -13.947 -40.121  1.00  0.00     0.165 A 
HETATM   20  N   UNL     1      -1.594 -14.260 -40.846  1.00  0.00    -0.241 NA
HETATM   21  C   UNL     1      -0.389 -14.237 -40.250  1.00  0.00     0.119 A 
HETATM   22  C   UNL     1      -0.222 -13.907 -38.931  1.00  0.00     0.020 A 
HETATM   23  C   UNL     1      -1.361 -13.585 -38.199  1.00  0.00     0.022 A 
BRANCH  19  24
HETATM   24  N   UNL     1      -3.922 -14.051 -40.915  1.00  0.00    -0.226 N 
HETATM   25  N   UNL     1      -4.006 -13.793 -42.243  1.00  0.00    -0.179 NA
HETATM   26  C   UNL     1      -5.282 -14.011 -42.567  1.00  0.00     0.141 A 
HETATM   27  C   UNL     1      -6.052 -14.423 -41.477  1.00  0.00     0.040 A 
HETATM   28  C   UNL     1      -5.165 -14.444 -40.431  1.00  0.00     0.122 A 
ENDBRANCH  19  24
ENDBRANCH   2  18
TORSDOF 7
ENDMDL
MODEL 8
REMARK VINA RESULT:      -7.2      4.078      7.398
REMARK  7 active torsions:
REMARK  status: ('A' for Active; 'I' for Inactive)
REMARK    1  A    between atoms: C_2  and  N_3 
REMARK    2  A    between atoms: C_2  and  C_17 
REMARK       I    between atoms: N_3  and  C_4 
REMARK    3  A    between atoms: C_4  and  C_5 
REMARK    4  A    between atoms: C_6  and  N_7 
REMARK    5  A    between atoms: C_17  and  O_18 
REMARK    6  A    between atoms: C_17  and  C_19 
REMARK    7  A    between atoms: C_22  and  O_23 
ROOT
HETATM    1  N   UNL     1      -5.408   1.248 -32.243  1.00  0.00    -0.350 N 
HETATM    2  C   UNL     1      -4.639   0.219 -32.708  1.00  0.00     0.255 C 
HETATM    3  O   UNL     1      -3.421   0.235 -32.515  1.00  0.00    -0.268 OA
HETATM    4  H   UNL     1      -6.420   1.212 -32.358  1.00  0.00     0.163 HD
ENDROOT
BRANCH   1   5
HETATM    5  C   UNL     1      -4.859   2.353 -31.452  1.00  0.00     0.114 C 
HETATM    6  C   UNL     1      -5.516   2.392 -30.071  1.00  0.00     0.035 C 
BRANCH   5   7
HETATM    7  C   UNL     1      -4.907   3.717 -32.201  1.00  0.00     0.173 C 
BRANCH   7   8
HETATM    8  O   UNL     1      -5.306   3.505 -33.564  1.00  0.00    -0.389 OA
HETATM    9  H   UNL     1      -6.277   3.434 -33.547  1.00  0.00     0.210 HD
ENDBRANCH   7   8
BRANCH   7  10
HETATM   10  C   UNL     1      -3.611   4.511 -32.168  1.00  0.00    -0.028 A 
HETATM   11  C   UNL     1      -3.389   5.454 -31.157  1.00  0.00     0.012 A 
HETATM   12  C   UNL     1      -2.198   6.187 -31.118  1.00  0.00     0.037 A 
HETATM   13  C   UNL     1      -1.210   5.997 -32.086  1.00  0.00     0.068 A 
HETATM   14  C   UNL     1      -1.416   5.054 -33.091  1.00  0.00     0.037 A 
HETATM   15  C   UNL     1      -2.605   4.318 -33.129  1.00  0.00     0.012 A 
BRANCH  13  16
HETATM   16  O   UNL     1      -0.099   6.781 -31.936  1.00  0.00    -0.356 OA
HETATM   17  C   UNL     1       0.425   6.906 -30.620  1.00  0.00     0.210 C 
ENDBRANCH  13  16
ENDBRANCH   7  10
ENDBRANCH   5   7
ENDBRANCH   1   5
BRANCH   2  18
HETATM   18  C   UNL     1      -5.235  -0.921 -33.492  1.00  0.00     0.079 A 
HETATM   19  C   UNL     1      -6.529  -1.178 -33.973  1.00  0.00     0.165 A 
HETATM   20  N   UNL     1      -6.829  -2.328 -34.679  1.00  0.00    -0.241 NA
HETATM   21  C   UNL     1      -5.870  -3.241 -34.913  1.00  0.00     0.119 A 
HETATM   22  C   UNL     1      -4.579  -3.086 -34.482  1.00  0.00     0.020 A 
HETATM   23  C   UNL     1      -4.272  -1.926 -33.776  1.00  0.00     0.022 A 
BRANCH  19  24
HETATM   24  N   UNL     1      -7.681  -0.336 -33.798  1.00  0.00    -0.226 N 
HETATM   25  N   UNL     1      -8.314  -0.107 -32.621  1.00  0.00    -0.179 NA
HETATM   26  C   UNL     1      -9.319   0.720 -32.914  1.00  0.00     0.141 A 
HETATM   27  C   UNL     1      -9.362   1.058 -34.268  1.00  0.00     0.040 A 
HETATM   28  C   UNL     1      -8.306   0.375 -34.816  1.00  0.00     0.122 A 
ENDBRANCH  19  24
ENDBRANCH   2  18
TORSDOF 7
ENDMDL
MODEL 9
REMARK VINA RESULT:      -7.1      2.168      4.688
REMARK  7 active torsions:
REMARK  status: ('A' for Active; 'I' for Inactive)
REMARK    1  A    between atoms: C_2  and  N_3 
REMARK    2  A    between atoms: C_2  and  C_17 
REMARK       I    between atoms: N_3  and  C_4 
REMARK    3  A    between atoms: C_4  and  C_5 
REMARK    4  A    between atoms: C_6  and  N_7 
REMARK    5  A    between atoms: C_17  and  O_18 
REMARK    6  A    between atoms: C_17  and  C_19 
REMARK    7  A    between atoms: C_22  and  O_23 
ROOT
HETATM    1  N   UNL     1      -7.989  -0.004 -32.657  1.00  0.00    -0.350 N 
HETATM    2  C   UNL     1      -7.592  -0.556 -33.842  1.00  0.00     0.255 C 
HETATM    3  O   UNL     1      -8.250  -0.344 -34.863  1.00  0.00    -0.268 OA
HETATM    4  H   UNL     1      -7.418  -0.138 -31.824  1.00  0.00     0.163 HD
ENDROOT
BRANCH   1   5
HETATM    5  C   UNL     1      -9.137   0.900 -32.550  1.00  0.00     0.114 C 
HETATM    6  C   UNL     1     -10.400   0.216 -33.079  1.00  0.00     0.035 C 
BRANCH   5   7
HETATM    7  C   UNL     1      -8.873   2.295 -33.189  1.00  0.00     0.173 C 
BRANCH   7   8
HETATM    8  O   UNL     1      -9.021   2.207 -34.615  1.00  0.00    -0.389 OA
HETATM    9  H   UNL     1      -8.261   2.686 -34.990  1.00  0.00     0.210 HD
ENDBRANCH   7   8
BRANCH   7  10
HETATM   10  C   UNL     1      -7.522   2.907 -32.855  1.00  0.00    -0.028 A 
HETATM   11  C   UNL     1      -6.496   2.914 -33.808  1.00  0.00     0.012 A 
HETATM   12  C   UNL     1      -5.252   3.478 -33.508  1.00  0.00     0.037 A 
HETATM   13  C   UNL     1      -5.006   4.041 -32.255  1.00  0.00     0.068 A 
HETATM   14  C   UNL     1      -6.022   4.048 -31.302  1.00  0.00     0.037 A 
HETATM   15  C   UNL     1      -7.269   3.488 -31.601  1.00  0.00     0.012 A 
BRANCH  13  16
HETATM   16  O   UNL     1      -3.747   4.552 -32.090  1.00  0.00    -0.356 OA
HETATM   17  C   UNL     1      -3.147   5.158 -33.228  1.00  0.00     0.210 C 
ENDBRANCH  13  16
ENDBRANCH   7  10
ENDBRANCH   5   7
ENDBRANCH   1   5
BRANCH   2  18
HETATM   18  C   UNL     1      -6.387  -1.458 -33.929  1.00  0.00     0.079 A 
HETATM   19  C   UNL     1      -5.135  -1.445 -33.294  1.00  0.00     0.165 A 
HETATM   20  N   UNL     1      -4.176  -2.406 -33.555  1.00  0.00    -0.241 NA
HETATM   21  C   UNL     1      -4.429  -3.381 -34.446  1.00  0.00     0.119 A 
HETATM   22  C   UNL     1      -5.617  -3.478 -35.120  1.00  0.00     0.020 A 
HETATM   23  C   UNL     1      -6.587  -2.517 -34.855  1.00  0.00     0.022 A 
BRANCH  19  24
HETATM   24  N   UNL     1      -4.678  -0.472 -32.340  1.00  0.00    -0.226 N 
HETATM   25  N   UNL     1      -5.353  -0.086 -31.229  1.00  0.00    -0.179 NA
HETATM   26  C   UNL     1      -4.576   0.825 -30.640  1.00  0.00     0.141 A 
HETATM   27  C   UNL     1      -3.385   1.047 -31.335  1.00  0.00     0.040 A 
HETATM   28  C   UNL     1      -3.468   0.208 -32.417  1.00  0.00     0.122 A 
ENDBRANCH  19  24
ENDBRANCH   2  18
TORSDOF 7
ENDMDL
MODEL 10
REMARK VINA RESULT:      -7.0     13.620     15.115
REMARK  7 active torsions:
REMARK  status: ('A' for Active; 'I' for Inactive)
REMARK    1  A    between atoms: C_2  and  N_3 
REMARK    2  A    between atoms: C_2  and  C_17 
REMARK       I    between atoms: N_3  and  C_4 
REMARK    3  A    between atoms: C_4  and  C_5 
REMARK    4  A    between atoms: C_6  and  N_7 
REMARK    5  A    between atoms: C_17  and  O_18 
REMARK    6  A    between atoms: C_17  and  C_19 
REMARK    7  A    between atoms: C_22  and  O_23 
ROOT
HETATM    1  N   UNL     1      -5.014 -13.822 -38.233  1.00  0.00    -0.350 N 
HETATM    2  C   UNL     1      -4.693 -13.094 -39.344  1.00  0.00     0.255 C 
HETATM    3  O   UNL     1      -4.850 -11.871 -39.336  1.00  0.00    -0.268 OA
HETATM    4  H   UNL     1      -4.838 -14.825 -38.221  1.00  0.00     0.163 HD
ENDROOT
BRANCH   1   5
HETATM    5  C   UNL     1      -5.477 -13.204 -36.988  1.00  0.00     0.114 C 
HETATM    6  C   UNL     1      -4.471 -13.461 -35.863  1.00  0.00     0.035 C 
BRANCH   5   7
HETATM    7  C   UNL     1      -6.936 -13.603 -36.619  1.00  0.00     0.173 C 
BRANCH   7   8
HETATM    8  O   UNL     1      -6.937 -14.892 -35.985  1.00  0.00    -0.389 OA
HETATM    9  H   UNL     1      -7.849 -15.223 -36.061  1.00  0.00     0.210 HD
ENDBRANCH   7   8
BRANCH   7  10
HETATM   10  C   UNL     1      -7.912 -13.608 -37.783  1.00  0.00    -0.028 A 
HETATM   11  C   UNL     1      -8.516 -14.805 -38.191  1.00  0.00     0.012 A 
HETATM   12  C   UNL     1      -9.418 -14.817 -39.260  1.00  0.00     0.037 A 
HETATM   13  C   UNL     1      -9.732 -13.641 -39.944  1.00  0.00     0.068 A 
HETATM   14  C   UNL     1      -9.145 -12.443 -39.541  1.00  0.00     0.037 A 
HETATM   15  C   UNL     1      -8.245 -12.428 -38.469  1.00  0.00     0.012 A 
BRANCH  13  16
HETATM   16  O   UNL     1     -10.622 -13.793 -40.972  1.00  0.00    -0.356 OA
HETATM   17  C   UNL     1     -10.941 -15.125 -41.353  1.00  0.00     0.210 C 
ENDBRANCH  13  16
ENDBRANCH   7  10
ENDBRANCH   5   7
ENDBRANCH   1   5
BRANCH   2  18
HETATM   18  C   UNL     1      -4.188 -13.753 -40.601  1.00  0.00     0.079 A 
HETATM   19  C   UNL     1      -2.961 -14.342 -40.947  1.00  0.00     0.165 A 
HETATM   20  N   UNL     1      -2.741 -14.887 -42.198  1.00  0.00    -0.241 NA
HETATM   21  C   UNL     1      -3.714 -14.852 -43.125  1.00  0.00     0.119 A 
HETATM   22  C   UNL     1      -4.944 -14.297 -42.888  1.00  0.00     0.020 A 
HETATM   23  C   UNL     1      -5.171 -13.753 -41.628  1.00  0.00     0.022 A 
BRANCH  19  24
HETATM   24  N   UNL     1      -1.803 -14.445 -40.101  1.00  0.00    -0.226 N 
HETATM   25  N   UNL     1      -1.824 -14.711 -38.772  1.00  0.00    -0.179 NA
HETATM   26  C   UNL     1      -0.545 -14.713 -38.391  1.00  0.00     0.141 A 
HETATM   27  C   UNL     1       0.333 -14.464 -39.448  1.00  0.00     0.040 A 
HETATM   28  C   UNL     1      -0.490 -14.298 -40.533  1.00  0.00     0.122 A 
ENDBRANCH  19  24
ENDBRANCH   2  18
TORSDOF 7
ENDMDL
