MODEL 1
REMARK VINA RESULT:      -8.3      0.000      0.000
REMARK  6 active torsions:
REMARK  status: ('A' for Active; 'I' for Inactive)
REMARK    1  A    between atoms: C_2  and  N_3 
REMARK    2  A    between atoms: C_2  and  C_24 
REMARK       I    between atoms: N_3  and  C_4 
REMARK    3  A    between atoms: C_4  and  C_5 
REMARK    4  A    between atoms: C_5  and  N_6 
REMARK    5  A    between atoms: C_10  and  N_11 
REMARK       I    between atoms: N_11  and  C_12 
REMARK       I    between atoms: C_12  and  N_13 
REMARK    6  A    between atoms: N_13  and  C_14 
ROOT
HETATM    1  N   UNL     1      -3.721   4.416 -32.669  1.00  0.00    -0.063 N 
HETATM    2  H   UNL     1      -3.727   5.159 -31.956  1.00  0.00     0.280 HD
HETATM    3  C   UNL     1      -5.116   4.374 -33.249  1.00  0.00     0.237 C 
HETATM    4  C   UNL     1      -6.085   3.626 -32.358  1.00  0.00     0.053 C 
HETATM    5  C   UNL     1      -5.598   2.235 -31.969  1.00  0.00     0.089 C 
HETATM    6  C   UNL     1      -4.224   2.322 -31.314  1.00  0.00     0.053 C 
HETATM    7  C   UNL     1      -3.186   3.146 -32.056  1.00  0.00     0.237 C 
ENDROOT
BRANCH   1   8
HETATM    8  C   UNL     1      -2.718   4.894 -33.743  1.00  0.00     0.337 C 
BRANCH   8   9
HETATM    9  C   UNL     1      -1.936   6.135 -33.318  1.00  0.00     0.244 C 
HETATM   10  N   UNL     1      -1.594   6.175 -31.989  1.00  0.00    -0.351 N 
HETATM   11  H   UNL     1      -1.835   5.413 -31.364  1.00  0.00     0.163 HD
HETATM   12  O   UNL     1      -1.592   6.970 -34.150  1.00  0.00    -0.272 OA
BRANCH  10  13
HETATM   13  C   UNL     1      -0.790   7.240 -31.408  1.00  0.00     0.120 C 
HETATM   14  C   UNL     1       0.661   6.812 -31.193  1.00  0.00     0.038 C 
BRANCH  13  15
HETATM   15  C   UNL     1      -1.448   7.662 -30.115  1.00  0.00     0.005 A 
HETATM   16  S   UNL     1      -3.118   7.362 -29.821  1.00  0.00    -0.104 SA
HETATM   17  C   UNL     1      -3.048   8.089 -28.277  1.00  0.00     0.050 A 
HETATM   18  C   UNL     1      -1.788   8.558 -27.984  1.00  0.00     0.008 A 
HETATM   19  C   UNL     1      -0.866   8.311 -29.042  1.00  0.00     0.017 A 
ENDBRANCH  13  15
ENDBRANCH  10  13
ENDBRANCH   8   9
ENDBRANCH   1   8
BRANCH   5  20
HETATM   20  N   UNL     1      -5.755   1.247 -33.040  1.00  0.00    -0.338 N 
HETATM   21  C   UNL     1      -5.827  -0.118 -32.901  1.00  0.00     0.321 C 
HETATM   22  N   UNL     1      -5.622  -0.770 -34.091  1.00  0.00    -0.309 N 
HETATM   23  O   UNL     1      -5.960  -0.651 -31.807  1.00  0.00    -0.247 OA
HETATM   24  H   UNL     1      -5.250  -0.216 -34.850  1.00  0.00     0.170 HD
HETATM   25  H   UNL     1      -5.949   1.606 -33.967  1.00  0.00     0.164 HD
BRANCH  22  26
HETATM   26  C   UNL     1      -5.548  -2.171 -34.261  1.00  0.00     0.036 A 
HETATM   27  C   UNL     1      -4.386  -2.915 -34.040  1.00  0.00     0.029 A 
HETATM   28  C   UNL     1      -4.372  -4.294 -34.266  1.00  0.00     0.002 A 
HETATM   29  C   UNL     1      -5.521  -4.942 -34.713  1.00  0.00     0.000 A 
HETATM   30  C   UNL     1      -6.690  -4.212 -34.916  1.00  0.00     0.002 A 
HETATM   31  C   UNL     1      -6.707  -2.834 -34.681  1.00  0.00     0.029 A 
ENDBRANCH  22  26
ENDBRANCH   5  20
TORSDOF 6
ENDMDL
MODEL 2
REMARK VINA RESULT:      -7.9      3.220      9.817
REMARK  6 active torsions:
REMARK  status: ('A' for Active; 'I' for Inactive)
REMARK    1  A    between atoms: C_2  and  N_3 
REMARK    2  A    between atoms: C_2  and  C_24 
REMARK       I    between atoms: N_3  and  C_4 
REMARK    3  A    between atoms: C_4  and  C_5 
REMARK    4  A    between atoms: C_5  and  N_6 
REMARK    5  A    between atoms: C_10  and  N_11 
REMARK       I    between atoms: N_11  and  C_12 
REMARK       I    between atoms: C_12  and  N_13 
REMARK    6  A    between atoms: N_13  and  C_14 
ROOT
HETATM    1  N   UNL     1      -4.599   4.565 -33.240  1.00  0.00    -0.063 N 
HETATM    2  H   UNL     1      -4.807   3.785 -33.881  1.00  0.00     0.280 HD
HETATM    3  C   UNL     1      -3.557   5.413 -33.931  1.00  0.00     0.237 C 
HETATM    4  C   UNL     1      -2.166   4.829 -33.805  1.00  0.00     0.053 C 
HETATM    5  C   UNL     1      -1.769   4.515 -32.368  1.00  0.00     0.089 C 
HETATM    6  C   UNL     1      -2.799   3.591 -31.727  1.00  0.00     0.053 C 
HETATM    7  C   UNL     1      -4.251   4.008 -31.882  1.00  0.00     0.237 C 
ENDROOT
BRANCH   1   8
HETATM    8  C   UNL     1      -5.922   5.352 -33.116  1.00  0.00     0.337 C 
BRANCH   8   9
HETATM    9  C   UNL     1      -7.108   4.629 -33.755  1.00  0.00     0.244 C 
HETATM   10  N   UNL     1      -7.221   3.302 -33.424  1.00  0.00    -0.351 N 
HETATM   11  H   UNL     1      -6.567   2.865 -32.782  1.00  0.00     0.163 HD
HETATM   12  O   UNL     1      -7.916   5.246 -34.442  1.00  0.00    -0.272 OA
BRANCH  10  13
HETATM   13  C   UNL     1      -8.321   2.462 -33.876  1.00  0.00     0.120 C 
HETATM   14  C   UNL     1      -9.527   2.545 -32.941  1.00  0.00     0.038 C 
BRANCH  13  15
HETATM   15  C   UNL     1      -7.802   1.049 -33.998  1.00  0.00     0.005 A 
HETATM   16  S   UNL     1      -7.221   0.186 -32.626  1.00  0.00    -0.104 SA
HETATM   17  C   UNL     1      -6.862  -1.197 -33.561  1.00  0.00     0.050 A 
HETATM   18  C   UNL     1      -7.168  -1.016 -34.890  1.00  0.00     0.008 A 
HETATM   19  C   UNL     1      -7.711   0.278 -35.142  1.00  0.00     0.017 A 
ENDBRANCH  13  15
ENDBRANCH  10  13
ENDBRANCH   8   9
ENDBRANCH   1   8
BRANCH   5  20
HETATM   20  N   UNL     1      -1.384   5.704 -31.601  1.00  0.00    -0.338 N 
HETATM   21  C   UNL     1      -0.522   5.754 -30.533  1.00  0.00     0.321 C 
HETATM   22  N   UNL     1      -0.641   6.926 -29.828  1.00  0.00    -0.309 N 
HETATM   23  O   UNL     1       0.181   4.801 -30.223  1.00  0.00    -0.247 OA
HETATM   24  H   UNL     1      -1.450   7.494 -30.033  1.00  0.00     0.170 HD
HETATM   25  H   UNL     1      -1.688   6.599 -31.964  1.00  0.00     0.164 HD
BRANCH  22  26
HETATM   26  C   UNL     1       0.043   7.241 -28.632  1.00  0.00     0.036 A 
HETATM   27  C   UNL     1      -0.237   6.642 -27.402  1.00  0.00     0.029 A 
HETATM   28  C   UNL     1       0.451   7.029 -26.249  1.00  0.00     0.002 A 
HETATM   29  C   UNL     1       1.428   8.019 -26.318  1.00  0.00     0.000 A 
HETATM   30  C   UNL     1       1.730   8.608 -27.544  1.00  0.00     0.002 A 
HETATM   31  C   UNL     1       1.048   8.213 -28.698  1.00  0.00     0.029 A 
ENDBRANCH  22  26
ENDBRANCH   5  20
TORSDOF 6
ENDMDL
MODEL 3
REMARK VINA RESULT:      -7.9      2.903     10.456
REMARK  6 active torsions:
REMARK  status: ('A' for Active; 'I' for Inactive)
REMARK    1  A    between atoms: C_2  and  N_3 
REMARK    2  A    between atoms: C_2  and  C_24 
REMARK       I    between atoms: N_3  and  C_4 
REMARK    3  A    between atoms: C_4  and  C_5 
REMARK    4  A    between atoms: C_5  and  N_6 
REMARK    5  A    between atoms: C_10  and  N_11 
REMARK       I    between atoms: N_11  and  C_12 
REMARK       I    between atoms: C_12  and  N_13 
REMARK    6  A    between atoms: N_13  and  C_14 
ROOT
HETATM    1  N   UNL     1      -4.378   4.022 -32.541  1.00  0.00    -0.063 N 
HETATM    2  H   UNL     1      -4.603   4.127 -33.541  1.00  0.00     0.280 HD
HETATM    3  C   UNL     1      -4.667   5.358 -31.898  1.00  0.00     0.237 C 
HETATM    4  C   UNL     1      -3.554   6.359 -32.128  1.00  0.00     0.053 C 
HETATM    5  C   UNL     1      -2.179   5.835 -31.734  1.00  0.00     0.089 C 
HETATM    6  C   UNL     1      -1.884   4.527 -32.462  1.00  0.00     0.053 C 
HETATM    7  C   UNL     1      -2.978   3.475 -32.404  1.00  0.00     0.237 C 
ENDROOT
BRANCH   1   8
HETATM    8  C   UNL     1      -5.366   2.958 -32.013  1.00  0.00     0.337 C 
BRANCH   8   9
HETATM    9  C   UNL     1      -6.107   2.227 -33.132  1.00  0.00     0.244 C 
HETATM   10  N   UNL     1      -6.413   0.917 -32.861  1.00  0.00    -0.351 N 
HETATM   11  H   UNL     1      -6.175   0.498 -31.968  1.00  0.00     0.163 HD
HETATM   12  O   UNL     1      -6.452   2.827 -34.146  1.00  0.00    -0.272 OA
BRANCH  10  13
HETATM   13  C   UNL     1      -7.176   0.076 -33.771  1.00  0.00     0.120 C 
HETATM   14  C   UNL     1      -8.557  -0.268 -33.214  1.00  0.00     0.038 C 
BRANCH  13  15
HETATM   15  C   UNL     1      -6.359  -1.164 -34.049  1.00  0.00     0.005 A 
HETATM   16  S   UNL     1      -4.709  -1.275 -33.567  1.00  0.00    -0.104 SA
HETATM   17  C   UNL     1      -4.557  -2.851 -34.205  1.00  0.00     0.050 A 
HETATM   18  C   UNL     1      -5.727  -3.292 -34.779  1.00  0.00     0.008 A 
HETATM   19  C   UNL     1      -6.766  -2.320 -34.689  1.00  0.00     0.017 A 
ENDBRANCH  13  15
ENDBRANCH  10  13
ENDBRANCH   8   9
ENDBRANCH   1   8
BRANCH   5  20
HETATM   20  N   UNL     1      -1.948   5.848 -30.287  1.00  0.00    -0.338 N 
HETATM   21  C   UNL     1      -1.399   6.867 -29.547  1.00  0.00     0.321 C 
HETATM   22  N   UNL     1      -1.000   6.446 -28.303  1.00  0.00    -0.309 N 
HETATM   23  O   UNL     1      -1.215   7.982 -30.017  1.00  0.00    -0.247 OA
HETATM   24  H   UNL     1      -0.959   5.447 -28.158  1.00  0.00     0.170 HD
HETATM   25  H   UNL     1      -2.337   5.079 -29.755  1.00  0.00     0.164 HD
BRANCH  22  26
HETATM   26  C   UNL     1      -0.325   7.233 -27.344  1.00  0.00     0.036 A 
HETATM   27  C   UNL     1      -0.975   8.095 -26.456  1.00  0.00     0.029 A 
HETATM   28  C   UNL     1      -0.242   8.877 -25.559  1.00  0.00     0.002 A 
HETATM   29  C   UNL     1       1.148   8.801 -25.539  1.00  0.00     0.000 A 
HETATM   30  C   UNL     1       1.805   7.929 -26.406  1.00  0.00     0.002 A 
HETATM   31  C   UNL     1       1.071   7.141 -27.297  1.00  0.00     0.029 A 
ENDBRANCH  22  26
ENDBRANCH   5  20
TORSDOF 6
ENDMDL
MODEL 4
REMARK VINA RESULT:      -7.8      1.968      2.532
REMARK  6 active torsions:
REMARK  status: ('A' for Active; 'I' for Inactive)
REMARK    1  A    between atoms: C_2  and  N_3 
REMARK    2  A    between atoms: C_2  and  C_24 
REMARK       I    between atoms: N_3  and  C_4 
REMARK    3  A    between atoms: C_4  and  C_5 
REMARK    4  A    between atoms: C_5  and  N_6 
REMARK    5  A    between atoms: C_10  and  N_11 
REMARK       I    between atoms: N_11  and  C_12 
REMARK       I    between atoms: C_12  and  N_13 
REMARK    6  A    between atoms: N_13  and  C_14 
ROOT
HETATM    1  N   UNL     1      -6.057   4.787 -31.790  1.00  0.00    -0.063 N 
HETATM    2  H   UNL     1      -6.505   5.687 -32.017  1.00  0.00     0.280 HD
HETATM    3  C   UNL     1      -5.168   4.450 -32.965  1.00  0.00     0.237 C 
HETATM    4  C   UNL     1      -5.946   3.865 -34.124  1.00  0.00     0.053 C 
HETATM    5  C   UNL     1      -6.823   2.683 -33.729  1.00  0.00     0.089 C 
HETATM    6  C   UNL     1      -7.764   3.081 -32.597  1.00  0.00     0.053 C 
HETATM    7  C   UNL     1      -7.120   3.785 -31.415  1.00  0.00     0.237 C 
ENDROOT
BRANCH   1   8
HETATM    8  C   UNL     1      -5.195   5.068 -30.540  1.00  0.00     0.337 C 
BRANCH   8   9
HETATM    9  C   UNL     1      -4.038   6.027 -30.817  1.00  0.00     0.244 C 
HETATM   10  N   UNL     1      -2.788   5.472 -30.706  1.00  0.00    -0.351 N 
HETATM   11  H   UNL     1      -2.671   4.489 -30.480  1.00  0.00     0.163 HD
HETATM   12  O   UNL     1      -4.257   7.178 -31.184  1.00  0.00    -0.272 OA
BRANCH  10  13
HETATM   13  C   UNL     1      -1.565   6.205 -30.998  1.00  0.00     0.120 C 
HETATM   14  C   UNL     1      -0.673   5.460 -31.992  1.00  0.00     0.038 C 
BRANCH  13  15
HETATM   15  C   UNL     1      -0.856   6.459 -29.689  1.00  0.00     0.005 A 
HETATM   16  S   UNL     1      -1.357   7.721 -28.630  1.00  0.00    -0.104 SA
HETATM   17  C   UNL     1      -0.137   7.347 -27.495  1.00  0.00     0.050 A 
HETATM   18  C   UNL     1       0.644   6.292 -27.905  1.00  0.00     0.008 A 
HETATM   19  C   UNL     1       0.230   5.779 -29.169  1.00  0.00     0.017 A 
ENDBRANCH  13  15
ENDBRANCH  10  13
ENDBRANCH   8   9
ENDBRANCH   1   8
BRANCH   5  20
HETATM   20  N   UNL     1      -6.070   1.438 -33.552  1.00  0.00    -0.338 N 
HETATM   21  C   UNL     1      -6.215   0.276 -34.269  1.00  0.00     0.321 C 
HETATM   22  N   UNL     1      -5.626  -0.794 -33.643  1.00  0.00    -0.309 N 
HETATM   23  O   UNL     1      -6.886   0.226 -35.292  1.00  0.00    -0.247 OA
HETATM   24  H   UNL     1      -5.355  -0.660 -32.680  1.00  0.00     0.170 HD
HETATM   25  H   UNL     1      -5.281   1.468 -32.917  1.00  0.00     0.164 HD
BRANCH  22  26
HETATM   26  C   UNL     1      -5.677  -2.137 -34.084  1.00  0.00     0.036 A 
HETATM   27  C   UNL     1      -6.837  -2.747 -34.567  1.00  0.00     0.029 A 
HETATM   28  C   UNL     1      -6.827  -4.091 -34.949  1.00  0.00     0.002 A 
HETATM   29  C   UNL     1      -5.654  -4.836 -34.854  1.00  0.00     0.000 A 
HETATM   30  C   UNL     1      -4.486  -4.231 -34.394  1.00  0.00     0.002 A 
HETATM   31  C   UNL     1      -4.495  -2.884 -34.020  1.00  0.00     0.029 A 
ENDBRANCH  22  26
ENDBRANCH   5  20
TORSDOF 6
ENDMDL
MODEL 5
REMARK VINA RESULT:      -7.6      5.219     10.128
REMARK  6 active torsions:
REMARK  status: ('A' for Active; 'I' for Inactive)
REMARK    1  A    between atoms: C_2  and  N_3 
REMARK    2  A    between atoms: C_2  and  C_24 
REMARK       I    between atoms: N_3  and  C_4 
REMARK    3  A    between atoms: C_4  and  C_5 
REMARK    4  A    between atoms: C_5  and  N_6 
REMARK    5  A    between atoms: C_10  and  N_11 
REMARK       I    between atoms: N_11  and  C_12 
REMARK       I    between atoms: C_12  and  N_13 
REMARK    6  A    between atoms: N_13  and  C_14 
ROOT
HETATM    1  N   UNL     1      -7.725   0.862 -32.081  1.00  0.00    -0.063 N 
HETATM    2  H   UNL     1      -7.948  -0.069 -32.463  1.00  0.00     0.280 HD
HETATM    3  C   UNL     1      -6.953   1.586 -33.159  1.00  0.00     0.237 C 
HETATM    4  C   UNL     1      -5.499   1.165 -33.205  1.00  0.00     0.053 C 
HETATM    5  C   UNL     1      -4.798   1.259 -31.856  1.00  0.00     0.089 C 
HETATM    6  C   UNL     1      -5.558   0.450 -30.810  1.00  0.00     0.053 C 
HETATM    7  C   UNL     1      -7.055   0.698 -30.739  1.00  0.00     0.237 C 
ENDROOT
BRANCH   1   8
HETATM    8  C   UNL     1      -9.091   1.547 -31.859  1.00  0.00     0.337 C 
BRANCH   8   9
HETATM    9  C   UNL     1     -10.219   0.901 -32.663  1.00  0.00     0.244 C 
HETATM   10  N   UNL     1     -11.127   1.782 -33.194  1.00  0.00    -0.351 N 
HETATM   11  H   UNL     1     -11.020   2.784 -33.068  1.00  0.00     0.163 HD
HETATM   12  O   UNL     1     -10.229  -0.311 -32.858  1.00  0.00    -0.272 OA
BRANCH  10  13
HETATM   13  C   UNL     1     -12.232   1.367 -34.046  1.00  0.00     0.120 C 
HETATM   14  C   UNL     1     -12.118   1.944 -35.456  1.00  0.00     0.038 C 
BRANCH  13  15
HETATM   15  C   UNL     1     -13.517   1.783 -33.371  1.00  0.00     0.005 A 
HETATM   16  S   UNL     1     -15.015   1.022 -33.749  1.00  0.00    -0.104 SA
HETATM   17  C   UNL     1     -15.872   2.002 -32.644  1.00  0.00     0.050 A 
HETATM   18  C   UNL     1     -15.048   2.895 -31.999  1.00  0.00     0.008 A 
HETATM   19  C   UNL     1     -13.691   2.769 -32.417  1.00  0.00     0.017 A 
ENDBRANCH  13  15
ENDBRANCH  10  13
ENDBRANCH   8   9
ENDBRANCH   1   8
BRANCH   5  20
HETATM   20  N   UNL     1      -4.432   2.630 -31.488  1.00  0.00    -0.338 N 
HETATM   21  C   UNL     1      -3.318   3.324 -31.893  1.00  0.00     0.321 C 
HETATM   22  N   UNL     1      -3.087   4.430 -31.114  1.00  0.00    -0.309 N 
HETATM   23  O   UNL     1      -2.588   2.914 -32.787  1.00  0.00    -0.247 OA
HETATM   24  H   UNL     1      -3.605   4.487 -30.248  1.00  0.00     0.170 HD
HETATM   25  H   UNL     1      -5.125   3.166 -30.980  1.00  0.00     0.164 HD
BRANCH  22  26
HETATM   26  C   UNL     1      -1.975   5.296 -31.221  1.00  0.00     0.036 A 
HETATM   27  C   UNL     1      -2.027   6.543 -31.851  1.00  0.00     0.029 A 
HETATM   28  C   UNL     1      -0.879   7.333 -31.958  1.00  0.00     0.002 A 
HETATM   29  C   UNL     1       0.330   6.884 -31.433  1.00  0.00     0.000 A 
HETATM   30  C   UNL     1       0.387   5.653 -30.784  1.00  0.00     0.002 A 
HETATM   31  C   UNL     1      -0.763   4.867 -30.669  1.00  0.00     0.029 A 
ENDBRANCH  22  26
ENDBRANCH   5  20
TORSDOF 6
ENDMDL
MODEL 6
REMARK VINA RESULT:      -7.5      6.366      9.695
REMARK  6 active torsions:
REMARK  status: ('A' for Active; 'I' for Inactive)
REMARK    1  A    between atoms: C_2  and  N_3 
REMARK    2  A    between atoms: C_2  and  C_24 
REMARK       I    between atoms: N_3  and  C_4 
REMARK    3  A    between atoms: C_4  and  C_5 
REMARK    4  A    between atoms: C_5  and  N_6 
REMARK    5  A    between atoms: C_10  and  N_11 
REMARK       I    between atoms: N_11  and  C_12 
REMARK       I    between atoms: C_12  and  N_13 
REMARK    6  A    between atoms: N_13  and  C_14 
ROOT
HETATM    1  N   UNL     1      -7.930   1.547 -32.598  1.00  0.00    -0.063 N 
HETATM    2  H   UNL     1      -7.249   1.101 -33.228  1.00  0.00     0.280 HD
HETATM    3  C   UNL     1      -8.888   0.459 -32.170  1.00  0.00     0.237 C 
HETATM    4  C   UNL     1      -9.933   0.167 -33.227  1.00  0.00     0.053 C 
HETATM    5  C   UNL     1     -10.674   1.409 -33.704  1.00  0.00     0.089 C 
HETATM    6  C   UNL     1      -9.683   2.455 -34.204  1.00  0.00     0.053 C 
HETATM    7  C   UNL     1      -8.517   2.758 -33.280  1.00  0.00     0.237 C 
ENDROOT
BRANCH   1   8
HETATM    8  C   UNL     1      -7.104   2.028 -31.384  1.00  0.00     0.337 C 
BRANCH   8   9
HETATM    9  C   UNL     1      -6.165   0.953 -30.839  1.00  0.00     0.244 C 
HETATM   10  N   UNL     1      -5.283   0.438 -31.754  1.00  0.00    -0.351 N 
HETATM   11  H   UNL     1      -5.261   0.780 -32.710  1.00  0.00     0.163 HD
HETATM   12  O   UNL     1      -6.181   0.660 -29.647  1.00  0.00    -0.272 OA
BRANCH  10  13
HETATM   13  C   UNL     1      -4.265  -0.544 -31.411  1.00  0.00     0.120 C 
HETATM   14  C   UNL     1      -2.883   0.090 -31.262  1.00  0.00     0.038 C 
BRANCH  13  15
HETATM   15  C   UNL     1      -4.279  -1.616 -32.475  1.00  0.00     0.005 A 
HETATM   16  S   UNL     1      -3.376  -3.070 -32.294  1.00  0.00    -0.104 SA
HETATM   17  C   UNL     1      -3.903  -3.668 -33.804  1.00  0.00     0.050 A 
HETATM   18  C   UNL     1      -4.744  -2.787 -34.443  1.00  0.00     0.008 A 
HETATM   19  C   UNL     1      -4.962  -1.605 -33.677  1.00  0.00     0.017 A 
ENDBRANCH  13  15
ENDBRANCH  10  13
ENDBRANCH   8   9
ENDBRANCH   1   8
BRANCH   5  20
HETATM   20  N   UNL     1     -11.697   1.871 -32.761  1.00  0.00    -0.338 N 
HETATM   21  C   UNL     1     -13.029   2.081 -33.024  1.00  0.00     0.321 C 
HETATM   22  N   UNL     1     -13.635   2.832 -32.049  1.00  0.00    -0.309 N 
HETATM   23  O   UNL     1     -13.549   1.709 -34.068  1.00  0.00    -0.247 OA
HETATM   24  H   UNL     1     -13.024   3.301 -31.395  1.00  0.00     0.170 HD
HETATM   25  H   UNL     1     -11.426   1.929 -31.786  1.00  0.00     0.164 HD
BRANCH  22  26
HETATM   26  C   UNL     1     -14.973   3.290 -32.073  1.00  0.00     0.036 A 
HETATM   27  C   UNL     1     -15.325   4.642 -32.093  1.00  0.00     0.029 A 
HETATM   28  C   UNL     1     -16.668   5.027 -32.076  1.00  0.00     0.002 A 
HETATM   29  C   UNL     1     -17.672   4.061 -32.042  1.00  0.00     0.000 A 
HETATM   30  C   UNL     1     -17.331   2.711 -32.044  1.00  0.00     0.002 A 
HETATM   31  C   UNL     1     -15.987   2.326 -32.071  1.00  0.00     0.029 A 
ENDBRANCH  22  26
ENDBRANCH   5  20
TORSDOF 6
ENDMDL
MODEL 7
REMARK VINA RESULT:      -7.3      3.306     10.172
REMARK  6 active torsions:
REMARK  status: ('A' for Active; 'I' for Inactive)
REMARK    1  A    between atoms: C_2  and  N_3 
REMARK    2  A    between atoms: C_2  and  C_24 
REMARK       I    between atoms: N_3  and  C_4 
REMARK    3  A    between atoms: C_4  and  C_5 
REMARK    4  A    between atoms: C_5  and  N_6 
REMARK    5  A    between atoms: C_10  and  N_11 
REMARK       I    between atoms: N_11  and  C_12 
REMARK       I    between atoms: C_12  and  N_13 
REMARK    6  A    between atoms: N_13  and  C_14 
ROOT
HETATM    1  N   UNL     1      -4.799   2.929 -31.608  1.00  0.00    -0.063 N 
HETATM    2  H   UNL     1      -5.085   2.634 -32.553  1.00  0.00     0.280 HD
HETATM    3  C   UNL     1      -5.350   4.323 -31.416  1.00  0.00     0.237 C 
HETATM    4  C   UNL     1      -4.496   5.375 -32.092  1.00  0.00     0.053 C 
HETATM    5  C   UNL     1      -3.023   5.297 -31.709  1.00  0.00     0.089 C 
HETATM    6  C   UNL     1      -2.478   3.900 -31.992  1.00  0.00     0.053 C 
HETATM    7  C   UNL     1      -3.309   2.745 -31.462  1.00  0.00     0.237 C 
ENDROOT
BRANCH   1   8
HETATM    8  C   UNL     1      -5.505   1.946 -30.648  1.00  0.00     0.337 C 
BRANCH   8   9
HETATM    9  C   UNL     1      -6.365   0.914 -31.376  1.00  0.00     0.244 C 
HETATM   10  N   UNL     1      -6.613   1.197 -32.695  1.00  0.00    -0.351 N 
HETATM   11  H   UNL     1      -6.222   2.024 -33.136  1.00  0.00     0.163 HD
HETATM   12  O   UNL     1      -6.720  -0.114 -30.806  1.00  0.00    -0.272 OA
BRANCH  10  13
HETATM   13  C   UNL     1      -7.353   0.303 -33.574  1.00  0.00     0.120 C 
HETATM   14  C   UNL     1      -6.707   0.190 -34.954  1.00  0.00     0.038 C 
BRANCH  13  15
HETATM   15  C   UNL     1      -8.773   0.810 -33.658  1.00  0.00     0.005 A 
HETATM   16  S   UNL     1     -10.067  -0.015 -32.877  1.00  0.00    -0.104 SA
HETATM   17  C   UNL     1     -11.217   1.121 -33.429  1.00  0.00     0.050 A 
HETATM   18  C   UNL     1     -10.642   2.107 -34.195  1.00  0.00     0.008 A 
HETATM   19  C   UNL     1      -9.233   1.930 -34.327  1.00  0.00     0.017 A 
ENDBRANCH  13  15
ENDBRANCH  10  13
ENDBRANCH   8   9
ENDBRANCH   1   8
BRANCH   5  20
HETATM   20  N   UNL     1      -2.739   5.858 -30.385  1.00  0.00    -0.338 N 
HETATM   21  C   UNL     1      -1.682   6.663 -30.038  1.00  0.00     0.321 C 
HETATM   22  N   UNL     1      -1.507   6.729 -28.679  1.00  0.00    -0.309 N 
HETATM   23  O   UNL     1      -0.947   7.164 -30.879  1.00  0.00    -0.247 OA
HETATM   24  H   UNL     1      -2.008   6.048 -28.126  1.00  0.00     0.170 HD
HETATM   25  H   UNL     1      -3.454   5.740 -29.676  1.00  0.00     0.164 HD
BRANCH  22  26
HETATM   26  C   UNL     1      -0.456   7.403 -28.015  1.00  0.00     0.036 A 
HETATM   27  C   UNL     1       0.648   6.753 -27.457  1.00  0.00     0.029 A 
HETATM   28  C   UNL     1       1.631   7.477 -26.779  1.00  0.00     0.002 A 
HETATM   29  C   UNL     1       1.521   8.860 -26.655  1.00  0.00     0.000 A 
HETATM   30  C   UNL     1       0.435   9.520 -27.225  1.00  0.00     0.002 A 
HETATM   31  C   UNL     1      -0.544   8.796 -27.912  1.00  0.00     0.029 A 
ENDBRANCH  22  26
ENDBRANCH   5  20
TORSDOF 6
ENDMDL
MODEL 8
REMARK VINA RESULT:      -7.3      2.029      3.387
REMARK  6 active torsions:
REMARK  status: ('A' for Active; 'I' for Inactive)
REMARK    1  A    between atoms: C_2  and  N_3 
REMARK    2  A    between atoms: C_2  and  C_24 
REMARK       I    between atoms: N_3  and  C_4 
REMARK    3  A    between atoms: C_4  and  C_5 
REMARK    4  A    between atoms: C_5  and  N_6 
REMARK    5  A    between atoms: C_10  and  N_11 
REMARK       I    between atoms: N_11  and  C_12 
REMARK       I    between atoms: C_12  and  N_13 
REMARK    6  A    between atoms: N_13  and  C_14 
ROOT
HETATM    1  N   UNL     1      -6.645   4.866 -31.616  1.00  0.00    -0.063 N 
HETATM    2  H   UNL     1      -7.138   5.740 -31.849  1.00  0.00     0.280 HD
HETATM    3  C   UNL     1      -5.708   4.590 -32.769  1.00  0.00     0.237 C 
HETATM    4  C   UNL     1      -6.421   3.969 -33.952  1.00  0.00     0.053 C 
HETATM    5  C   UNL     1      -7.237   2.736 -33.587  1.00  0.00     0.089 C 
HETATM    6  C   UNL     1      -8.229   3.070 -32.477  1.00  0.00     0.053 C 
HETATM    7  C   UNL     1      -7.657   3.801 -31.275  1.00  0.00     0.237 C 
ENDROOT
BRANCH   1   8
HETATM    8  C   UNL     1      -5.832   5.187 -30.342  1.00  0.00     0.337 C 
BRANCH   8   9
HETATM    9  C   UNL     1      -4.604   6.053 -30.621  1.00  0.00     0.244 C 
HETATM   10  N   UNL     1      -3.408   5.494 -30.249  1.00  0.00    -0.351 N 
HETATM   11  H   UNL     1      -3.368   4.564 -29.844  1.00  0.00     0.163 HD
HETATM   12  O   UNL     1      -4.719   7.126 -31.205  1.00  0.00    -0.272 OA
BRANCH  10  13
HETATM   13  C   UNL     1      -2.123   6.134 -30.494  1.00  0.00     0.120 C 
HETATM   14  C   UNL     1      -2.106   7.587 -30.023  1.00  0.00     0.038 C 
BRANCH  13  15
HETATM   15  C   UNL     1      -1.824   6.018 -31.969  1.00  0.00     0.005 A 
HETATM   16  S   UNL     1      -1.489   7.410 -32.927  1.00  0.00    -0.104 SA
HETATM   17  C   UNL     1      -1.283   6.474 -34.340  1.00  0.00     0.050 A 
HETATM   18  C   UNL     1      -1.467   5.132 -34.102  1.00  0.00     0.008 A 
HETATM   19  C   UNL     1      -1.778   4.868 -32.736  1.00  0.00     0.017 A 
ENDBRANCH  13  15
ENDBRANCH  10  13
ENDBRANCH   8   9
ENDBRANCH   1   8
BRANCH   5  20
HETATM   20  N   UNL     1      -6.419   1.535 -33.398  1.00  0.00    -0.338 N 
HETATM   21  C   UNL     1      -6.441   0.391 -34.158  1.00  0.00     0.321 C 
HETATM   22  N   UNL     1      -5.826  -0.661 -33.527  1.00  0.00    -0.309 N 
HETATM   23  O   UNL     1      -7.040   0.334 -35.225  1.00  0.00    -0.247 OA
HETATM   24  H   UNL     1      -5.627  -0.542 -32.544  1.00  0.00     0.170 HD
HETATM   25  H   UNL     1      -5.676   1.593 -32.711  1.00  0.00     0.164 HD
BRANCH  22  26
HETATM   26  C   UNL     1      -5.760  -1.987 -34.011  1.00  0.00     0.036 A 
HETATM   27  C   UNL     1      -6.864  -2.680 -34.517  1.00  0.00     0.029 A 
HETATM   28  C   UNL     1      -6.738  -4.005 -34.941  1.00  0.00     0.002 A 
HETATM   29  C   UNL     1      -5.505  -4.649 -34.866  1.00  0.00     0.000 A 
HETATM   30  C   UNL     1      -4.395  -3.961 -34.383  1.00  0.00     0.002 A 
HETATM   31  C   UNL     1      -4.519  -2.632 -33.967  1.00  0.00     0.029 A 
ENDBRANCH  22  26
ENDBRANCH   5  20
TORSDOF 6
ENDMDL
MODEL 9
REMARK VINA RESULT:      -7.2      3.650      5.938
REMARK  6 active torsions:
REMARK  status: ('A' for Active; 'I' for Inactive)
REMARK    1  A    between atoms: C_2  and  N_3 
REMARK    2  A    between atoms: C_2  and  C_24 
REMARK       I    between atoms: N_3  and  C_4 
REMARK    3  A    between atoms: C_4  and  C_5 
REMARK    4  A    between atoms: C_5  and  N_6 
REMARK    5  A    between atoms: C_10  and  N_11 
REMARK       I    between atoms: N_11  and  C_12 
REMARK       I    between atoms: C_12  and  N_13 
REMARK    6  A    between atoms: N_13  and  C_14 
ROOT
HETATM    1  N   UNL     1      -5.180   4.818 -31.742  1.00  0.00    -0.063 N 
HETATM    2  H   UNL     1      -4.855   5.344 -30.918  1.00  0.00     0.280 HD
HETATM    3  C   UNL     1      -6.092   3.733 -31.218  1.00  0.00     0.237 C 
HETATM    4  C   UNL     1      -5.320   2.553 -30.666  1.00  0.00     0.053 C 
HETATM    5  C   UNL     1      -4.288   1.996 -31.639  1.00  0.00     0.089 C 
HETATM    6  C   UNL     1      -3.334   3.100 -32.084  1.00  0.00     0.053 C 
HETATM    7  C   UNL     1      -3.986   4.388 -32.557  1.00  0.00     0.237 C 
ENDROOT
BRANCH   1   8
HETATM    8  C   UNL     1      -5.994   5.833 -32.575  1.00  0.00     0.337 C 
BRANCH   8   9
HETATM    9  C   UNL     1      -7.031   5.167 -33.478  1.00  0.00     0.244 C 
HETATM   10  N   UNL     1      -8.334   5.500 -33.205  1.00  0.00    -0.351 N 
HETATM   11  H   UNL     1      -8.562   6.160 -32.468  1.00  0.00     0.163 HD
HETATM   12  O   UNL     1      -6.677   4.457 -34.415  1.00  0.00    -0.272 OA
BRANCH  10  13
HETATM   13  C   UNL     1      -9.458   5.023 -33.997  1.00  0.00     0.120 C 
HETATM   14  C   UNL     1      -9.929   6.066 -35.010  1.00  0.00     0.038 C 
BRANCH  13  15
HETATM   15  C   UNL     1     -10.561   4.630 -33.043  1.00  0.00     0.005 A 
HETATM   16  S   UNL     1     -12.144   4.257 -33.609  1.00  0.00    -0.104 SA
HETATM   17  C   UNL     1     -12.712   3.947 -32.029  1.00  0.00     0.050 A 
HETATM   18  C   UNL     1     -11.729   4.124 -31.083  1.00  0.00     0.008 A 
HETATM   19  C   UNL     1     -10.489   4.517 -31.667  1.00  0.00     0.017 A 
ENDBRANCH  13  15
ENDBRANCH  10  13
ENDBRANCH   8   9
ENDBRANCH   1   8
BRANCH   5  20
HETATM   20  N   UNL     1      -4.877   1.169 -32.696  1.00  0.00    -0.338 N 
HETATM   21  C   UNL     1      -5.086  -0.188 -32.664  1.00  0.00     0.321 C 
HETATM   22  N   UNL     1      -5.321  -0.705 -33.913  1.00  0.00    -0.309 N 
HETATM   23  O   UNL     1      -4.967  -0.837 -31.632  1.00  0.00    -0.247 OA
HETATM   24  H   UNL     1      -5.113  -0.102 -34.697  1.00  0.00     0.170 HD
HETATM   25  H   UNL     1      -5.280   1.658 -33.486  1.00  0.00     0.164 HD
BRANCH  22  26
HETATM   26  C   UNL     1      -5.486  -2.074 -34.221  1.00  0.00     0.036 A 
HETATM   27  C   UNL     1      -6.699  -2.632 -34.633  1.00  0.00     0.029 A 
HETATM   28  C   UNL     1      -6.803  -4.003 -34.883  1.00  0.00     0.002 A 
HETATM   29  C   UNL     1      -5.692  -4.828 -34.726  1.00  0.00     0.000 A 
HETATM   30  C   UNL     1      -4.473  -4.279 -34.335  1.00  0.00     0.002 A 
HETATM   31  C   UNL     1      -4.367  -2.906 -34.095  1.00  0.00     0.029 A 
ENDBRANCH  22  26
ENDBRANCH   5  20
TORSDOF 6
ENDMDL
MODEL 10
REMARK VINA RESULT:      -7.2      6.023     12.624
REMARK  6 active torsions:
REMARK  status: ('A' for Active; 'I' for Inactive)
REMARK    1  A    between atoms: C_2  and  N_3 
REMARK    2  A    between atoms: C_2  and  C_24 
REMARK       I    between atoms: N_3  and  C_4 
REMARK    3  A    between atoms: C_4  and  C_5 
REMARK    4  A    between atoms: C_5  and  N_6 
REMARK    5  A    between atoms: C_10  and  N_11 
REMARK       I    between atoms: N_11  and  C_12 
REMARK       I    between atoms: C_12  and  N_13 
REMARK    6  A    between atoms: N_13  and  C_14 
ROOT
HETATM    1  N   UNL     1       0.122   6.634 -28.222  1.00  0.00    -0.063 N 
HETATM    2  H   UNL     1      -0.758   6.875 -28.700  1.00  0.00     0.280 HD
HETATM    3  C   UNL     1      -0.241   6.364 -26.780  1.00  0.00     0.237 C 
HETATM    4  C   UNL     1      -0.419   7.640 -25.985  1.00  0.00     0.053 C 
HETATM    5  C   UNL     1       0.765   8.592 -26.095  1.00  0.00     0.089 C 
HETATM    6  C   UNL     1       1.053   8.908 -27.559  1.00  0.00     0.053 C 
HETATM    7  C   UNL     1       1.143   7.711 -28.490  1.00  0.00     0.237 C 
ENDROOT
BRANCH   1   8
HETATM    8  C   UNL     1       0.605   5.331 -28.896  1.00  0.00     0.337 C 
BRANCH   8   9
HETATM    9  C   UNL     1      -0.010   5.112 -30.278  1.00  0.00     0.244 C 
HETATM   10  N   UNL     1      -1.354   5.373 -30.360  1.00  0.00    -0.351 N 
HETATM   11  H   UNL     1      -1.872   5.709 -29.554  1.00  0.00     0.163 HD
HETATM   12  O   UNL     1       0.698   4.801 -31.232  1.00  0.00    -0.272 OA
BRANCH  10  13
HETATM   13  C   UNL     1      -2.104   5.290 -31.605  1.00  0.00     0.120 C 
HETATM   14  C   UNL     1      -2.648   6.650 -32.039  1.00  0.00     0.038 C 
BRANCH  13  15
HETATM   15  C   UNL     1      -3.210   4.280 -31.410  1.00  0.00     0.005 A 
HETATM   16  S   UNL     1      -4.770   4.755 -30.857  1.00  0.00    -0.104 SA
HETATM   17  C   UNL     1      -5.355   3.151 -30.911  1.00  0.00     0.050 A 
HETATM   18  C   UNL     1      -4.392   2.265 -31.334  1.00  0.00     0.008 A 
HETATM   19  C   UNL     1      -3.156   2.914 -31.623  1.00  0.00     0.017 A 
ENDBRANCH  13  15
ENDBRANCH  10  13
ENDBRANCH   8   9
ENDBRANCH   1   8
BRANCH   5  20
HETATM   20  N   UNL     1       1.909   8.191 -25.272  1.00  0.00    -0.338 N 
HETATM   21  C   UNL     1       2.336   8.779 -24.107  1.00  0.00     0.321 C 
HETATM   22  N   UNL     1       3.612   8.400 -23.774  1.00  0.00    -0.309 N 
HETATM   23  O   UNL     1       1.662   9.616 -23.519  1.00  0.00    -0.247 OA
HETATM   24  H   UNL     1       4.144   7.928 -24.491  1.00  0.00     0.170 HD
HETATM   25  H   UNL     1       2.365   7.320 -25.518  1.00  0.00     0.164 HD
BRANCH  22  26
HETATM   26  C   UNL     1       4.361   8.898 -22.683  1.00  0.00     0.036 A 
HETATM   27  C   UNL     1       4.990  10.146 -22.684  1.00  0.00     0.029 A 
HETATM   28  C   UNL     1       5.750  10.560 -21.587  1.00  0.00     0.002 A 
HETATM   29  C   UNL     1       5.885   9.729 -20.477  1.00  0.00     0.000 A 
HETATM   30  C   UNL     1       5.245   8.492 -20.458  1.00  0.00     0.002 A 
HETATM   31  C   UNL     1       4.477   8.082 -21.552  1.00  0.00     0.029 A 
ENDBRANCH  22  26
ENDBRANCH   5  20
TORSDOF 6
ENDMDL
