MODEL 1
REMARK VINA RESULT:      -8.9      0.000      0.000
REMARK  5 active torsions:
REMARK  status: ('A' for Active; 'I' for Inactive)
REMARK    1  A    between atoms: C_4  and  C_5 
REMARK    2  A    between atoms: C_5  and  N_6 
REMARK    3  A    between atoms: C_9  and  N_10 
REMARK       I    between atoms: N_10  and  C_11 
REMARK       I    between atoms: C_11  and  N_12 
REMARK    4  A    between atoms: N_12  and  N_13 
REMARK       I    between atoms: N_13  and  C_14 
REMARK    5  A    between atoms: C_14  and  C_15 
ROOT
HETATM    1  N   UNL     1      -5.146   2.783 -32.132  1.00  0.00    -0.336 N 
HETATM    2  C   UNL     1      -4.648   3.675 -31.224  1.00  0.00     0.335 C 
HETATM    3  N   UNL     1      -3.352   4.039 -31.490  1.00  0.00    -0.249 N 
HETATM    4  O   UNL     1      -5.283   4.050 -30.240  1.00  0.00    -0.246 OA
HETATM    5  H   UNL     1      -4.537   2.560 -32.912  1.00  0.00     0.164 HD
HETATM    6  H   UNL     1      -3.043   4.078 -32.463  1.00  0.00     0.192 HD
ENDROOT
BRANCH   1   7
HETATM    7  C   UNL     1      -6.507   2.233 -32.185  1.00  0.00     0.112 C 
HETATM    8  C   UNL     1      -6.844   1.411 -33.454  1.00  0.00     0.260 C 
HETATM    9  N   UNL     1      -6.256   0.024 -33.379  1.00  0.00    -0.065 N 
HETATM   10  H   UNL     1      -5.234   0.186 -33.247  1.00  0.00     0.280 HD
HETATM   11  C   UNL     1      -6.708  -0.739 -32.172  1.00  0.00     0.235 C 
HETATM   12  C   UNL     1      -6.312   0.021 -30.912  1.00  0.00     0.030 C 
HETATM   13  C   UNL     1      -6.850   1.450 -30.910  1.00  0.00     0.028 C 
BRANCH   9  14
HETATM   14  C   UNL     1      -6.321  -0.748 -34.671  1.00  0.00     0.273 C 
BRANCH  14  15
HETATM   15  C   UNL     1      -5.867  -2.180 -34.591  1.00  0.00    -0.033 A 
HETATM   16  C   UNL     1      -6.753  -3.227 -34.894  1.00  0.00     0.009 A 
HETATM   17  C   UNL     1      -6.338  -4.557 -34.800  1.00  0.00     0.001 A 
HETATM   18  C   UNL     1      -5.035  -4.855 -34.410  1.00  0.00     0.000 A 
HETATM   19  C   UNL     1      -4.144  -3.827 -34.117  1.00  0.00     0.001 A 
HETATM   20  C   UNL     1      -4.554  -2.496 -34.210  1.00  0.00     0.009 A 
ENDBRANCH  14  15
ENDBRANCH   9  14
ENDBRANCH   1   7
BRANCH   3  21
HETATM   21  N   UNL     1      -2.787   5.056 -30.700  1.00  0.00    -0.261 N 
HETATM   22  C   UNL     1      -1.420   5.271 -30.778  1.00  0.00     0.277 C 
HETATM   23  O   UNL     1      -0.728   4.556 -31.506  1.00  0.00    -0.265 OA
HETATM   24  H   UNL     1      -3.403   5.672 -30.178  1.00  0.00     0.190 HD
BRANCH  22  25
HETATM   25  C   UNL     1      -0.887   6.357 -29.972  1.00  0.00     0.075 A 
HETATM   26  S   UNL     1      -1.901   7.440 -29.107  1.00  0.00    -0.077 SA
HETATM   27  C   UNL     1      -0.572   8.290 -28.494  1.00  0.00     0.052 A 
HETATM   28 BR   UNL     1      -0.741   9.761 -27.347  1.00  0.00    -0.043 Br
HETATM   29  C   UNL     1       0.632   7.795 -28.920  1.00  0.00     0.028 A 
HETATM   30  C   UNL     1       0.449   6.672 -29.782  1.00  0.00     0.026 A 
ENDBRANCH  22  25
ENDBRANCH   3  21
TORSDOF 5
ENDMDL
MODEL 2
REMARK VINA RESULT:      -8.9      4.551     10.930
REMARK  5 active torsions:
REMARK  status: ('A' for Active; 'I' for Inactive)
REMARK    1  A    between atoms: C_4  and  C_5 
REMARK    2  A    between atoms: C_5  and  N_6 
REMARK    3  A    between atoms: C_9  and  N_10 
REMARK       I    between atoms: N_10  and  C_11 
REMARK       I    between atoms: C_11  and  N_12 
REMARK    4  A    between atoms: N_12  and  N_13 
REMARK       I    between atoms: N_13  and  C_14 
REMARK    5  A    between atoms: C_14  and  C_15 
ROOT
HETATM    1  N   UNL     1      -2.393   4.116 -31.230  1.00  0.00    -0.336 N 
HETATM    2  C   UNL     1      -3.102   3.326 -32.092  1.00  0.00     0.335 C 
HETATM    3  N   UNL     1      -3.403   2.097 -31.561  1.00  0.00    -0.249 N 
HETATM    4  O   UNL     1      -3.373   3.668 -33.241  1.00  0.00    -0.246 OA
HETATM    5  H   UNL     1      -2.243   3.736 -30.302  1.00  0.00     0.164 HD
HETATM    6  H   UNL     1      -3.562   2.022 -30.555  1.00  0.00     0.192 HD
ENDROOT
BRANCH   1   7
HETATM    7  C   UNL     1      -1.960   5.504 -31.447  1.00  0.00     0.112 C 
HETATM    8  C   UNL     1      -2.179   6.464 -30.252  1.00  0.00     0.260 C 
HETATM    9  N   UNL     1      -1.122   6.269 -29.194  1.00  0.00    -0.065 N 
HETATM   10  H   UNL     1      -1.199   5.261 -28.937  1.00  0.00     0.280 HD
HETATM   11  C   UNL     1       0.270   6.454 -29.716  1.00  0.00     0.235 C 
HETATM   12  C   UNL     1       0.526   5.460 -30.842  1.00  0.00     0.030 C 
HETATM   13  C   UNL     1      -0.513   5.571 -31.955  1.00  0.00     0.028 C 
BRANCH   9  14
HETATM   14  C   UNL     1      -1.405   6.980 -27.896  1.00  0.00     0.273 C 
BRANCH  14  15
HETATM   15  C   UNL     1      -0.253   7.761 -27.323  1.00  0.00    -0.033 A 
HETATM   16  C   UNL     1      -0.172   9.151 -27.508  1.00  0.00     0.009 A 
HETATM   17  C   UNL     1       0.906   9.874 -26.995  1.00  0.00     0.001 A 
HETATM   18  C   UNL     1       1.911   9.219 -26.287  1.00  0.00     0.000 A 
HETATM   19  C   UNL     1       1.838   7.843 -26.088  1.00  0.00     0.001 A 
HETATM   20  C   UNL     1       0.761   7.116 -26.599  1.00  0.00     0.009 A 
ENDBRANCH  14  15
ENDBRANCH   9  14
ENDBRANCH   1   7
BRANCH   3  21
HETATM   21  N   UNL     1      -4.247   1.255 -32.308  1.00  0.00    -0.261 N 
HETATM   22  C   UNL     1      -3.813  -0.028 -32.597  1.00  0.00     0.277 C 
HETATM   23  O   UNL     1      -2.695  -0.395 -32.225  1.00  0.00    -0.265 OA
HETATM   24  H   UNL     1      -5.188   1.570 -32.524  1.00  0.00     0.190 HD
BRANCH  22  25
HETATM   25  C   UNL     1      -4.734  -0.873 -33.339  1.00  0.00     0.075 A 
HETATM   26  S   UNL     1      -4.390  -2.518 -33.692  1.00  0.00    -0.077 SA
HETATM   27  C   UNL     1      -5.868  -2.718 -34.493  1.00  0.00     0.052 A 
HETATM   28 BR   UNL     1      -6.399  -4.339 -35.266  1.00  0.00    -0.043 Br
HETATM   29  C   UNL     1      -6.630  -1.580 -34.517  1.00  0.00     0.028 A 
HETATM   30  C   UNL     1      -5.970  -0.506 -33.848  1.00  0.00     0.026 A 
ENDBRANCH  22  25
ENDBRANCH   3  21
TORSDOF 5
ENDMDL
MODEL 3
REMARK VINA RESULT:      -8.8      6.152      9.042
REMARK  5 active torsions:
REMARK  status: ('A' for Active; 'I' for Inactive)
REMARK    1  A    between atoms: C_4  and  C_5 
REMARK    2  A    between atoms: C_5  and  N_6 
REMARK    3  A    between atoms: C_9  and  N_10 
REMARK       I    between atoms: N_10  and  C_11 
REMARK       I    between atoms: C_11  and  N_12 
REMARK    4  A    between atoms: N_12  and  N_13 
REMARK       I    between atoms: N_13  and  C_14 
REMARK    5  A    between atoms: C_14  and  C_15 
ROOT
HETATM    1  N   UNL     1      -7.563   0.549 -32.415  1.00  0.00    -0.336 N 
HETATM    2  C   UNL     1      -8.890   0.770 -32.173  1.00  0.00     0.335 C 
HETATM    3  N   UNL     1      -9.675   0.568 -33.280  1.00  0.00    -0.249 N 
HETATM    4  O   UNL     1      -9.312   1.173 -31.091  1.00  0.00    -0.246 OA
HETATM    5  H   UNL     1      -7.334   0.202 -33.340  1.00  0.00     0.164 HD
HETATM    6  H   UNL     1      -9.393  -0.142 -33.958  1.00  0.00     0.192 HD
ENDROOT
BRANCH   1   7
HETATM    7  C   UNL     1      -6.459   0.614 -31.447  1.00  0.00     0.112 C 
HETATM    8  C   UNL     1      -5.397  -0.506 -31.574  1.00  0.00     0.260 C 
HETATM    9  N   UNL     1      -4.450  -0.234 -32.716  1.00  0.00    -0.065 N 
HETATM   10  H   UNL     1      -5.071  -0.153 -33.550  1.00  0.00     0.280 HD
HETATM   11  C   UNL     1      -3.752   1.086 -32.596  1.00  0.00     0.235 C 
HETATM   12  C   UNL     1      -4.785   2.205 -32.549  1.00  0.00     0.030 C 
HETATM   13  C   UNL     1      -5.803   2.002 -31.431  1.00  0.00     0.028 C 
BRANCH   9  14
HETATM   14  C   UNL     1      -3.550  -1.391 -33.064  1.00  0.00     0.273 C 
BRANCH  14  15
HETATM   15  C   UNL     1      -4.237  -2.585 -33.669  1.00  0.00    -0.033 A 
HETATM   16  C   UNL     1      -3.753  -3.882 -33.434  1.00  0.00     0.009 A 
HETATM   17  C   UNL     1      -4.377  -4.989 -34.011  1.00  0.00     0.001 A 
HETATM   18  C   UNL     1      -5.494  -4.814 -34.824  1.00  0.00     0.000 A 
HETATM   19  C   UNL     1      -5.991  -3.535 -35.058  1.00  0.00     0.001 A 
HETATM   20  C   UNL     1      -5.370  -2.425 -34.482  1.00  0.00     0.009 A 
ENDBRANCH  14  15
ENDBRANCH   9  14
ENDBRANCH   1   7
BRANCH   3  21
HETATM   21  N   UNL     1     -11.069   0.633 -33.110  1.00  0.00    -0.261 N 
HETATM   22  C   UNL     1     -11.770   1.631 -33.769  1.00  0.00     0.277 C 
HETATM   23  O   UNL     1     -11.162   2.452 -34.459  1.00  0.00    -0.265 OA
HETATM   24  H   UNL     1     -11.537  -0.110 -32.599  1.00  0.00     0.190 HD
BRANCH  22  25
HETATM   25  C   UNL     1     -13.213   1.635 -33.592  1.00  0.00     0.075 A 
HETATM   26  S   UNL     1     -14.004   2.723 -32.526  1.00  0.00    -0.077 SA
HETATM   27  C   UNL     1     -15.527   2.098 -32.921  1.00  0.00     0.052 A 
HETATM   28 BR   UNL     1     -17.120   2.743 -32.176  1.00  0.00    -0.043 Br
HETATM   29  C   UNL     1     -15.474   1.080 -33.835  1.00  0.00     0.028 A 
HETATM   30  C   UNL     1     -14.128   0.808 -34.224  1.00  0.00     0.026 A 
ENDBRANCH  22  25
ENDBRANCH   3  21
TORSDOF 5
ENDMDL
MODEL 4
REMARK VINA RESULT:      -8.2      5.652      8.545
REMARK  5 active torsions:
REMARK  status: ('A' for Active; 'I' for Inactive)
REMARK    1  A    between atoms: C_4  and  C_5 
REMARK    2  A    between atoms: C_5  and  N_6 
REMARK    3  A    between atoms: C_9  and  N_10 
REMARK       I    between atoms: N_10  and  C_11 
REMARK       I    between atoms: C_11  and  N_12 
REMARK    4  A    between atoms: N_12  and  N_13 
REMARK       I    between atoms: N_13  and  C_14 
REMARK    5  A    between atoms: C_14  and  C_15 
ROOT
HETATM    1  N   UNL     1      -6.919   3.627 -32.133  1.00  0.00    -0.336 N 
HETATM    2  C   UNL     1      -8.253   3.451 -31.894  1.00  0.00     0.335 C 
HETATM    3  N   UNL     1      -9.021   3.603 -33.021  1.00  0.00    -0.249 N 
HETATM    4  O   UNL     1      -8.708   3.246 -30.770  1.00  0.00    -0.246 OA
HETATM    5  H   UNL     1      -6.658   3.773 -33.103  1.00  0.00     0.164 HD
HETATM    6  H   UNL     1      -8.626   3.333 -33.924  1.00  0.00     0.192 HD
ENDROOT
BRANCH   1   7
HETATM    7  C   UNL     1      -5.816   3.479 -31.174  1.00  0.00     0.112 C 
HETATM    8  C   UNL     1      -5.451   2.022 -30.798  1.00  0.00     0.260 C 
HETATM    9  N   UNL     1      -4.633   1.367 -31.884  1.00  0.00    -0.065 N 
HETATM   10  H   UNL     1      -5.231   1.440 -32.735  1.00  0.00     0.280 HD
HETATM   11  C   UNL     1      -3.375   2.115 -32.201  1.00  0.00     0.235 C 
HETATM   12  C   UNL     1      -3.725   3.530 -32.648  1.00  0.00     0.030 C 
HETATM   13  C   UNL     1      -4.574   4.266 -31.615  1.00  0.00     0.028 C 
BRANCH   9  14
HETATM   14  C   UNL     1      -4.452  -0.119 -31.713  1.00  0.00     0.273 C 
BRANCH  14  15
HETATM   15  C   UNL     1      -5.100  -0.974 -32.768  1.00  0.00    -0.033 A 
HETATM   16  C   UNL     1      -6.460  -0.814 -33.080  1.00  0.00     0.009 A 
HETATM   17  C   UNL     1      -7.066  -1.621 -34.045  1.00  0.00     0.001 A 
HETATM   18  C   UNL     1      -6.322  -2.590 -34.711  1.00  0.00     0.000 A 
HETATM   19  C   UNL     1      -4.970  -2.753 -34.419  1.00  0.00     0.001 A 
HETATM   20  C   UNL     1      -4.360  -1.948 -33.456  1.00  0.00     0.009 A 
ENDBRANCH  14  15
ENDBRANCH   9  14
ENDBRANCH   1   7
BRANCH   3  21
HETATM   21  N   UNL     1     -10.392   3.308 -32.919  1.00  0.00    -0.261 N 
HETATM   22  C   UNL     1     -10.879   2.190 -33.577  1.00  0.00     0.277 C 
HETATM   23  O   UNL     1     -10.116   1.499 -34.257  1.00  0.00    -0.265 OA
HETATM   24  H   UNL     1     -10.966   3.855 -32.284  1.00  0.00     0.190 HD
BRANCH  22  25
HETATM   25  C   UNL     1     -12.294   1.904 -33.411  1.00  0.00     0.075 A 
HETATM   26  S   UNL     1     -13.375   3.020 -32.679  1.00  0.00    -0.077 SA
HETATM   27  C   UNL     1     -14.692   1.977 -32.894  1.00  0.00     0.052 A 
HETATM   28 BR   UNL     1     -16.433   2.407 -32.353  1.00  0.00    -0.043 Br
HETATM   29  C   UNL     1     -14.355   0.795 -33.498  1.00  0.00     0.028 A 
HETATM   30  C   UNL     1     -12.960   0.752 -33.797  1.00  0.00     0.026 A 
ENDBRANCH  22  25
ENDBRANCH   3  21
TORSDOF 5
ENDMDL
MODEL 5
REMARK VINA RESULT:      -8.2      2.081      3.366
REMARK  5 active torsions:
REMARK  status: ('A' for Active; 'I' for Inactive)
REMARK    1  A    between atoms: C_4  and  C_5 
REMARK    2  A    between atoms: C_5  and  N_6 
REMARK    3  A    between atoms: C_9  and  N_10 
REMARK       I    between atoms: N_10  and  C_11 
REMARK       I    between atoms: C_11  and  N_12 
REMARK    4  A    between atoms: N_12  and  N_13 
REMARK       I    between atoms: N_13  and  C_14 
REMARK    5  A    between atoms: C_14  and  C_15 
ROOT
HETATM    1  N   UNL     1      -3.386   4.624 -31.700  1.00  0.00    -0.336 N 
HETATM    2  C   UNL     1      -2.254   5.216 -31.214  1.00  0.00     0.335 C 
HETATM    3  N   UNL     1      -2.478   5.926 -30.061  1.00  0.00    -0.249 N 
HETATM    4  O   UNL     1      -1.172   5.165 -31.795  1.00  0.00    -0.246 OA
HETATM    5  H   UNL     1      -4.217   4.720 -31.127  1.00  0.00     0.164 HD
HETATM    6  H   UNL     1      -3.199   5.600 -29.416  1.00  0.00     0.192 HD
ENDROOT
BRANCH   1   7
HETATM    7  C   UNL     1      -3.497   3.747 -32.874  1.00  0.00     0.112 C 
HETATM    8  C   UNL     1      -3.828   2.265 -32.568  1.00  0.00     0.260 C 
HETATM    9  N   UNL     1      -5.293   2.085 -32.258  1.00  0.00    -0.065 N 
HETATM   10  H   UNL     1      -5.465   2.724 -31.453  1.00  0.00     0.280 HD
HETATM   11  C   UNL     1      -6.187   2.564 -33.360  1.00  0.00     0.235 C 
HETATM   12  C   UNL     1      -5.928   4.043 -33.619  1.00  0.00     0.030 C 
HETATM   13  C   UNL     1      -4.458   4.324 -33.922  1.00  0.00     0.028 C 
BRANCH   9  14
HETATM   14  C   UNL     1      -5.648   0.729 -31.707  1.00  0.00     0.273 C 
BRANCH  14  15
HETATM   15  C   UNL     1      -5.701  -0.386 -32.716  1.00  0.00    -0.033 A 
HETATM   16  C   UNL     1      -4.531  -1.068 -33.087  1.00  0.00     0.009 A 
HETATM   17  C   UNL     1      -4.575  -2.088 -34.039  1.00  0.00     0.001 A 
HETATM   18  C   UNL     1      -5.787  -2.442 -34.626  1.00  0.00     0.000 A 
HETATM   19  C   UNL     1      -6.956  -1.780 -34.261  1.00  0.00     0.001 A 
HETATM   20  C   UNL     1      -6.916  -0.760 -33.309  1.00  0.00     0.009 A 
ENDBRANCH  14  15
ENDBRANCH   9  14
ENDBRANCH   1   7
BRANCH   3  21
HETATM   21  N   UNL     1      -1.358   6.461 -29.399  1.00  0.00    -0.261 N 
HETATM   22  C   UNL     1      -1.563   7.434 -28.434  1.00  0.00     0.277 C 
HETATM   23  O   UNL     1      -2.707   7.831 -28.197  1.00  0.00    -0.265 OA
HETATM   24  H   UNL     1      -0.445   6.049 -29.567  1.00  0.00     0.190 HD
BRANCH  22  25
HETATM   25  C   UNL     1      -0.380   7.929 -27.751  1.00  0.00     0.075 A 
HETATM   26  S   UNL     1      -0.381   8.317 -26.078  1.00  0.00    -0.077 SA
HETATM   27  C   UNL     1       1.253   8.757 -26.117  1.00  0.00     0.052 A 
HETATM   28 BR   UNL     1       2.186   9.356 -24.607  1.00  0.00    -0.043 Br
HETATM   29  C   UNL     1       1.819   8.632 -27.359  1.00  0.00     0.028 A 
HETATM   30  C   UNL     1       0.868   8.153 -28.309  1.00  0.00     0.026 A 
ENDBRANCH  22  25
ENDBRANCH   3  21
TORSDOF 5
ENDMDL
MODEL 6
REMARK VINA RESULT:      -7.7      1.580      1.699
REMARK  5 active torsions:
REMARK  status: ('A' for Active; 'I' for Inactive)
REMARK    1  A    between atoms: C_4  and  C_5 
REMARK    2  A    between atoms: C_5  and  N_6 
REMARK    3  A    between atoms: C_9  and  N_10 
REMARK       I    between atoms: N_10  and  C_11 
REMARK       I    between atoms: C_11  and  N_12 
REMARK    4  A    between atoms: N_12  and  N_13 
REMARK       I    between atoms: N_13  and  C_14 
REMARK    5  A    between atoms: C_14  and  C_15 
ROOT
HETATM    1  N   UNL     1      -6.248   2.680 -32.360  1.00  0.00    -0.336 N 
HETATM    2  C   UNL     1      -5.832   3.782 -31.667  1.00  0.00     0.335 C 
HETATM    3  N   UNL     1      -4.570   3.638 -31.145  1.00  0.00    -0.249 N 
HETATM    4  O   UNL     1      -6.549   4.763 -31.481  1.00  0.00    -0.246 OA
HETATM    5  H   UNL     1      -5.564   1.938 -32.463  1.00  0.00     0.164 HD
HETATM    6  H   UNL     1      -3.891   3.071 -31.654  1.00  0.00     0.192 HD
ENDROOT
BRANCH   1   7
HETATM    7  C   UNL     1      -7.510   2.515 -33.094  1.00  0.00     0.112 C 
HETATM    8  C   UNL     1      -7.450   1.564 -34.316  1.00  0.00     0.260 C 
HETATM    9  N   UNL     1      -7.478   0.119 -33.885  1.00  0.00    -0.065 N 
HETATM   10  H   UNL     1      -6.660   0.026 -33.245  1.00  0.00     0.280 HD
HETATM   11  C   UNL     1      -8.682  -0.223 -33.063  1.00  0.00     0.235 C 
HETATM   12  C   UNL     1      -8.711   0.652 -31.816  1.00  0.00     0.030 C 
HETATM   13  C   UNL     1      -8.665   2.139 -32.155  1.00  0.00     0.028 C 
BRANCH   9  14
HETATM   14  C   UNL     1      -7.170  -0.862 -34.986  1.00  0.00     0.273 C 
BRANCH  14  15
HETATM   15  C   UNL     1      -6.154  -1.918 -34.645  1.00  0.00    -0.033 A 
HETATM   16  C   UNL     1      -6.337  -3.246 -35.065  1.00  0.00     0.009 A 
HETATM   17  C   UNL     1      -5.406  -4.231 -34.731  1.00  0.00     0.001 A 
HETATM   18  C   UNL     1      -4.280  -3.901 -33.981  1.00  0.00     0.000 A 
HETATM   19  C   UNL     1      -4.081  -2.587 -33.567  1.00  0.00     0.001 A 
HETATM   20  C   UNL     1      -5.010  -1.598 -33.899  1.00  0.00     0.009 A 
ENDBRANCH  14  15
ENDBRANCH   9  14
ENDBRANCH   1   7
BRANCH   3  21
HETATM   21  N   UNL     1      -3.989   4.761 -30.531  1.00  0.00    -0.261 N 
HETATM   22  C   UNL     1      -3.140   5.560 -31.281  1.00  0.00     0.277 C 
HETATM   23  O   UNL     1      -2.889   5.258 -32.450  1.00  0.00    -0.265 OA
HETATM   24  H   UNL     1      -4.286   5.018 -29.593  1.00  0.00     0.190 HD
BRANCH  22  25
HETATM   25  C   UNL     1      -2.593   6.730 -30.614  1.00  0.00     0.075 A 
HETATM   26  S   UNL     1      -3.354   8.267 -30.688  1.00  0.00    -0.077 SA
HETATM   27  C   UNL     1      -2.161   8.972 -29.715  1.00  0.00     0.052 A 
HETATM   28 BR   UNL     1      -2.181  10.779 -29.222  1.00  0.00    -0.043 Br
HETATM   29  C   UNL     1      -1.186   8.090 -29.329  1.00  0.00     0.028 A 
HETATM   30  C   UNL     1      -1.436   6.787 -29.854  1.00  0.00     0.026 A 
ENDBRANCH  22  25
ENDBRANCH   3  21
TORSDOF 5
ENDMDL
MODEL 7
REMARK VINA RESULT:      -7.6      4.341     10.772
REMARK  5 active torsions:
REMARK  status: ('A' for Active; 'I' for Inactive)
REMARK    1  A    between atoms: C_4  and  C_5 
REMARK    2  A    between atoms: C_5  and  N_6 
REMARK    3  A    between atoms: C_9  and  N_10 
REMARK       I    between atoms: N_10  and  C_11 
REMARK       I    between atoms: C_11  and  N_12 
REMARK    4  A    between atoms: N_12  and  N_13 
REMARK       I    between atoms: N_13  and  C_14 
REMARK    5  A    between atoms: C_14  and  C_15 
ROOT
HETATM    1  N   UNL     1      -2.062   5.117 -30.872  1.00  0.00    -0.336 N 
HETATM    2  C   UNL     1      -2.471   4.150 -31.747  1.00  0.00     0.335 C 
HETATM    3  N   UNL     1      -3.139   3.122 -31.130  1.00  0.00    -0.249 N 
HETATM    4  O   UNL     1      -2.202   4.179 -32.946  1.00  0.00    -0.246 OA
HETATM    5  H   UNL     1      -2.357   4.997 -29.909  1.00  0.00     0.164 HD
HETATM    6  H   UNL     1      -3.699   3.328 -30.301  1.00  0.00     0.192 HD
ENDROOT
BRANCH   1   7
HETATM    7  C   UNL     1      -1.379   6.378 -31.194  1.00  0.00     0.112 C 
HETATM    8  C   UNL     1      -2.051   7.660 -30.643  1.00  0.00     0.260 C 
HETATM    9  N   UNL     1      -1.758   7.842 -29.175  1.00  0.00    -0.065 N 
HETATM   10  H   UNL     1      -2.108   6.966 -28.732  1.00  0.00     0.280 HD
HETATM   11  C   UNL     1      -0.291   7.896 -28.874  1.00  0.00     0.235 C 
HETATM   12  C   UNL     1       0.371   6.606 -29.341  1.00  0.00     0.030 C 
HETATM   13  C   UNL     1       0.109   6.326 -30.818  1.00  0.00     0.028 C 
BRANCH   9  14
HETATM   14  C   UNL     1      -2.575   8.918 -28.509  1.00  0.00     0.273 C 
BRANCH  14  15
HETATM   15  C   UNL     1      -2.448   8.992 -27.011  1.00  0.00    -0.033 A 
HETATM   16  C   UNL     1      -3.009   7.994 -26.198  1.00  0.00     0.009 A 
HETATM   17  C   UNL     1      -2.910   8.072 -24.808  1.00  0.00     0.001 A 
HETATM   18  C   UNL     1      -2.245   9.142 -24.215  1.00  0.00     0.000 A 
HETATM   19  C   UNL     1      -1.675  10.133 -25.009  1.00  0.00     0.001 A 
HETATM   20  C   UNL     1      -1.771  10.059 -26.400  1.00  0.00     0.009 A 
ENDBRANCH  14  15
ENDBRANCH   9  14
ENDBRANCH   1   7
BRANCH   3  21
HETATM   21  N   UNL     1      -3.724   2.141 -31.951  1.00  0.00    -0.261 N 
HETATM   22  C   UNL     1      -3.412   0.811 -31.717  1.00  0.00     0.277 C 
HETATM   23  O   UNL     1      -2.614   0.517 -30.824  1.00  0.00    -0.265 OA
HETATM   24  H   UNL     1      -4.436   2.421 -32.619  1.00  0.00     0.190 HD
BRANCH  22  25
HETATM   25  C   UNL     1      -4.070  -0.168 -32.566  1.00  0.00     0.075 A 
HETATM   26  S   UNL     1      -5.776  -0.358 -32.595  1.00  0.00    -0.077 SA
HETATM   27  C   UNL     1      -5.680  -1.585 -33.758  1.00  0.00     0.052 A 
HETATM   28 BR   UNL     1      -7.187  -2.453 -34.454  1.00  0.00    -0.043 Br
HETATM   29  C   UNL     1      -4.395  -1.875 -34.135  1.00  0.00     0.028 A 
HETATM   30  C   UNL     1      -3.459  -1.052 -33.440  1.00  0.00     0.026 A 
ENDBRANCH  22  25
ENDBRANCH   3  21
TORSDOF 5
ENDMDL
MODEL 8
REMARK VINA RESULT:      -7.5      4.881     10.434
REMARK  5 active torsions:
REMARK  status: ('A' for Active; 'I' for Inactive)
REMARK    1  A    between atoms: C_4  and  C_5 
REMARK    2  A    between atoms: C_5  and  N_6 
REMARK    3  A    between atoms: C_9  and  N_10 
REMARK       I    between atoms: N_10  and  C_11 
REMARK       I    between atoms: C_11  and  N_12 
REMARK    4  A    between atoms: N_12  and  N_13 
REMARK       I    between atoms: N_13  and  C_14 
REMARK    5  A    between atoms: C_14  and  C_15 
ROOT
HETATM    1  N   UNL     1      -3.698   5.095 -31.578  1.00  0.00    -0.336 N 
HETATM    2  C   UNL     1      -5.004   4.789 -31.840  1.00  0.00     0.335 C 
HETATM    3  N   UNL     1      -5.194   3.460 -32.124  1.00  0.00    -0.249 N 
HETATM    4  O   UNL     1      -5.892   5.638 -31.880  1.00  0.00    -0.246 OA
HETATM    5  H   UNL     1      -3.056   4.310 -31.556  1.00  0.00     0.164 HD
HETATM    6  H   UNL     1      -4.591   2.771 -31.672  1.00  0.00     0.192 HD
ENDROOT
BRANCH   1   7
HETATM    7  C   UNL     1      -3.151   6.400 -31.181  1.00  0.00     0.112 C 
HETATM    8  C   UNL     1      -2.002   6.353 -30.144  1.00  0.00     0.260 C 
HETATM    9  N   UNL     1      -0.696   5.971 -30.793  1.00  0.00    -0.065 N 
HETATM   10  H   UNL     1      -0.891   5.049 -31.239  1.00  0.00     0.280 HD
HETATM   11  C   UNL     1      -0.305   6.891 -31.908  1.00  0.00     0.235 C 
HETATM   12  C   UNL     1      -1.392   6.887 -32.975  1.00  0.00     0.030 C 
HETATM   13  C   UNL     1      -2.762   7.244 -32.403  1.00  0.00     0.028 C 
BRANCH   9  14
HETATM   14  C   UNL     1       0.412   5.657 -29.821  1.00  0.00     0.273 C 
BRANCH  14  15
HETATM   15  C   UNL     1       0.506   6.576 -28.632  1.00  0.00    -0.033 A 
HETATM   16  C   UNL     1       1.018   7.876 -28.775  1.00  0.00     0.009 A 
HETATM   17  C   UNL     1       1.125   8.722 -27.669  1.00  0.00     0.001 A 
HETATM   18  C   UNL     1       0.719   8.281 -26.412  1.00  0.00     0.000 A 
HETATM   19  C   UNL     1       0.201   6.998 -26.258  1.00  0.00     0.001 A 
HETATM   20  C   UNL     1       0.091   6.149 -27.361  1.00  0.00     0.009 A 
ENDBRANCH  14  15
ENDBRANCH   9  14
ENDBRANCH   1   7
BRANCH   3  21
HETATM   21  N   UNL     1      -6.517   3.009 -32.273  1.00  0.00    -0.261 N 
HETATM   22  C   UNL     1      -6.747   1.868 -33.025  1.00  0.00     0.277 C 
HETATM   23  O   UNL     1      -5.801   1.293 -33.568  1.00  0.00    -0.265 OA
HETATM   24  H   UNL     1      -7.254   3.465 -31.743  1.00  0.00     0.190 HD
BRANCH  22  25
HETATM   25  C   UNL     1      -8.126   1.420 -33.119  1.00  0.00     0.075 A 
HETATM   26  S   UNL     1      -9.333   2.329 -33.934  1.00  0.00    -0.077 SA
HETATM   27  C   UNL     1     -10.520   1.170 -33.597  1.00  0.00     0.052 A 
HETATM   28 BR   UNL     1     -12.299   1.337 -34.158  1.00  0.00    -0.043 Br
HETATM   29  C   UNL     1     -10.048   0.104 -32.877  1.00  0.00     0.028 A 
HETATM   30  C   UNL     1      -8.656   0.251 -32.597  1.00  0.00     0.026 A 
ENDBRANCH  22  25
ENDBRANCH   3  21
TORSDOF 5
ENDMDL
MODEL 9
REMARK VINA RESULT:      -7.5      6.819      8.174
REMARK  5 active torsions:
REMARK  status: ('A' for Active; 'I' for Inactive)
REMARK    1  A    between atoms: C_4  and  C_5 
REMARK    2  A    between atoms: C_5  and  N_6 
REMARK    3  A    between atoms: C_9  and  N_10 
REMARK       I    between atoms: N_10  and  C_11 
REMARK       I    between atoms: C_11  and  N_12 
REMARK    4  A    between atoms: N_12  and  N_13 
REMARK       I    between atoms: N_13  and  C_14 
REMARK    5  A    between atoms: C_14  and  C_15 
ROOT
HETATM    1  N   UNL     1      -9.437   2.692 -33.701  1.00  0.00    -0.336 N 
HETATM    2  C   UNL     1     -10.140   3.484 -34.565  1.00  0.00     0.335 C 
HETATM    3  N   UNL     1      -9.763   4.802 -34.506  1.00  0.00    -0.249 N 
HETATM    4  O   UNL     1     -11.056   3.058 -35.265  1.00  0.00    -0.246 OA
HETATM    5  H   UNL     1      -8.693   3.150 -33.186  1.00  0.00     0.164 HD
HETATM    6  H   UNL     1      -8.790   5.025 -34.288  1.00  0.00     0.192 HD
ENDROOT
BRANCH   1   7
HETATM    7  C   UNL     1      -9.540   1.234 -33.547  1.00  0.00     0.112 C 
HETATM    8  C   UNL     1      -8.543   0.403 -34.392  1.00  0.00     0.260 C 
HETATM    9  N   UNL     1      -7.169   0.402 -33.769  1.00  0.00    -0.065 N 
HETATM   10  H   UNL     1      -6.916   1.411 -33.701  1.00  0.00     0.280 HD
HETATM   11  C   UNL     1      -7.163  -0.117 -32.364  1.00  0.00     0.235 C 
HETATM   12  C   UNL     1      -8.081   0.741 -31.502  1.00  0.00     0.030 C 
HETATM   13  C   UNL     1      -9.497   0.818 -32.070  1.00  0.00     0.028 C 
BRANCH   9  14
HETATM   14  C   UNL     1      -6.089  -0.167 -34.652  1.00  0.00     0.273 C 
BRANCH  14  15
HETATM   15  C   UNL     1      -5.910  -1.659 -34.574  1.00  0.00    -0.033 A 
HETATM   16  C   UNL     1      -4.665  -2.212 -34.231  1.00  0.00     0.009 A 
HETATM   17  C   UNL     1      -4.493  -3.596 -34.178  1.00  0.00     0.001 A 
HETATM   18  C   UNL     1      -5.561  -4.443 -34.463  1.00  0.00     0.000 A 
HETATM   19  C   UNL     1      -6.803  -3.909 -34.795  1.00  0.00     0.001 A 
HETATM   20  C   UNL     1      -6.980  -2.525 -34.848  1.00  0.00     0.009 A 
ENDBRANCH  14  15
ENDBRANCH   9  14
ENDBRANCH   1   7
BRANCH   3  21
HETATM   21  N   UNL     1     -10.323   5.682 -35.449  1.00  0.00    -0.261 N 
HETATM   22  C   UNL     1     -10.598   6.983 -35.058  1.00  0.00     0.277 C 
HETATM   23  O   UNL     1     -10.377   7.332 -33.896  1.00  0.00    -0.265 OA
HETATM   24  H   UNL     1     -10.412   5.376 -36.413  1.00  0.00     0.190 HD
BRANCH  22  25
HETATM   25  C   UNL     1     -11.141   7.865 -36.077  1.00  0.00     0.075 A 
HETATM   26  S   UNL     1     -10.197   8.440 -37.391  1.00  0.00    -0.077 SA
HETATM   27  C   UNL     1     -11.504   9.306 -38.030  1.00  0.00     0.052 A 
HETATM   28 BR   UNL     1     -11.388  10.319 -39.601  1.00  0.00    -0.043 Br
HETATM   29  C   UNL     1     -12.648   9.190 -37.284  1.00  0.00     0.028 A 
HETATM   30  C   UNL     1     -12.436   8.354 -36.147  1.00  0.00     0.026 A 
ENDBRANCH  22  25
ENDBRANCH   3  21
TORSDOF 5
ENDMDL
MODEL 10
REMARK VINA RESULT:      -7.4      2.513      3.451
REMARK  5 active torsions:
REMARK  status: ('A' for Active; 'I' for Inactive)
REMARK    1  A    between atoms: C_4  and  C_5 
REMARK    2  A    between atoms: C_5  and  N_6 
REMARK    3  A    between atoms: C_9  and  N_10 
REMARK       I    between atoms: N_10  and  C_11 
REMARK       I    between atoms: C_11  and  N_12 
REMARK    4  A    between atoms: N_12  and  N_13 
REMARK       I    between atoms: N_13  and  C_14 
REMARK    5  A    between atoms: C_14  and  C_15 
ROOT
HETATM    1  N   UNL     1      -6.966   4.890 -31.901  1.00  0.00    -0.336 N 
HETATM    2  C   UNL     1      -5.914   5.657 -31.485  1.00  0.00     0.335 C 
HETATM    3  N   UNL     1      -5.078   4.993 -30.623  1.00  0.00    -0.249 N 
HETATM    4  O   UNL     1      -5.782   6.837 -31.804  1.00  0.00    -0.246 OA
HETATM    5  H   UNL     1      -6.962   3.926 -31.587  1.00  0.00     0.164 HD
HETATM    6  H   UNL     1      -4.960   3.985 -30.734  1.00  0.00     0.192 HD
ENDROOT
BRANCH   1   7
HETATM    7  C   UNL     1      -8.011   5.261 -32.865  1.00  0.00     0.112 C 
HETATM    8  C   UNL     1      -8.368   4.174 -33.910  1.00  0.00     0.260 C 
HETATM    9  N   UNL     1      -9.257   3.112 -33.311  1.00  0.00    -0.065 N 
HETATM   10  H   UNL     1      -8.710   2.747 -32.502  1.00  0.00     0.280 HD
HETATM   11  C   UNL     1     -10.523   3.665 -32.734  1.00  0.00     0.235 C 
HETATM   12  C   UNL     1     -10.186   4.679 -31.648  1.00  0.00     0.030 C 
HETATM   13  C   UNL     1      -9.269   5.787 -32.160  1.00  0.00     0.028 C 
BRANCH   9  14
HETATM   14  C   UNL     1      -9.442   1.896 -34.182  1.00  0.00     0.273 C 
BRANCH  14  15
HETATM   15  C   UNL     1      -8.372   0.845 -34.059  1.00  0.00    -0.033 A 
HETATM   16  C   UNL     1      -7.846   0.227 -35.205  1.00  0.00     0.009 A 
HETATM   17  C   UNL     1      -6.868  -0.763 -35.092  1.00  0.00     0.001 A 
HETATM   18  C   UNL     1      -6.402  -1.142 -33.835  1.00  0.00     0.000 A 
HETATM   19  C   UNL     1      -6.907  -0.530 -32.692  1.00  0.00     0.001 A 
HETATM   20  C   UNL     1      -7.885   0.460 -32.801  1.00  0.00     0.009 A 
ENDBRANCH  14  15
ENDBRANCH   9  14
ENDBRANCH   1   7
BRANCH   3  21
HETATM   21  N   UNL     1      -3.890   5.641 -30.241  1.00  0.00    -0.261 N 
HETATM   22  C   UNL     1      -2.731   5.367 -30.948  1.00  0.00     0.277 C 
HETATM   23  O   UNL     1      -2.755   4.547 -31.869  1.00  0.00    -0.265 OA
HETATM   24  H   UNL     1      -3.933   6.367 -29.531  1.00  0.00     0.190 HD
BRANCH  22  25
HETATM   25  C   UNL     1      -1.536   6.088 -30.541  1.00  0.00     0.075 A 
HETATM   26  S   UNL     1      -1.416   6.880 -29.022  1.00  0.00    -0.077 SA
HETATM   27  C   UNL     1       0.163   7.396 -29.348  1.00  0.00     0.052 A 
HETATM   28 BR   UNL     1       1.177   8.408 -28.141  1.00  0.00    -0.043 Br
HETATM   29  C   UNL     1       0.620   6.999 -30.577  1.00  0.00     0.028 A 
HETATM   30  C   UNL     1      -0.369   6.241 -31.272  1.00  0.00     0.026 A 
ENDBRANCH  22  25
ENDBRANCH   3  21
TORSDOF 5
ENDMDL
