MODEL 1
REMARK VINA RESULT:      -9.4      0.000      0.000
REMARK  3 active torsions:
REMARK  status: ('A' for Active; 'I' for Inactive)
REMARK    1  A    between atoms: C_7  and  C_8 
REMARK    2  A    between atoms: N_9  and  C_11 
REMARK    3  A    between atoms: C_11  and  C_12 
ROOT
HETATM    1  C   UNL     1      -6.745   0.995 -33.707  1.00  0.00     0.238 C 
HETATM    2  N   UNL     1      -7.919   1.247 -32.772  1.00  0.00    -0.056 N 
HETATM    3  H   UNL     1      -8.145   2.240 -32.895  1.00  0.00     0.281 HD
HETATM    4  C   UNL     1      -7.607   1.080 -31.306  1.00  0.00     0.236 C 
HETATM    5  C   UNL     1      -6.424   1.950 -30.916  1.00  0.00     0.028 C 
HETATM    6  C   UNL     1      -5.201   1.663 -31.771  1.00  0.00     0.004 C 
HETATM    7  C   UNL     1      -5.527   1.810 -33.252  1.00  0.00     0.040 C 
ENDROOT
BRANCH   2   8
HETATM    8  C   UNL     1      -9.185   0.500 -33.146  1.00  0.00     0.295 C 
BRANCH   8   9
HETATM    9  C   UNL     1     -10.191   1.364 -33.791  1.00  0.00     0.077 A 
HETATM   10  N   UNL     1     -11.539   1.070 -33.910  1.00  0.00    -0.155 N 
HETATM   11  C   UNL     1     -12.119   2.105 -34.648  1.00  0.00     0.732 A 
HETATM   12  C   UNL     1     -12.291  -0.011 -33.460  1.00  0.00     0.117 A 
HETATM   13  N   UNL     1     -13.439   2.076 -34.984  1.00  0.00    -0.074 NA
HETATM   14  N   UNL     1     -11.221   3.023 -34.930  1.00  0.00    -0.072 NA
HETATM   15  C   UNL     1     -14.126   1.065 -34.550  1.00  0.00     0.138 A 
HETATM   16  C   UNL     1     -13.599  -0.071 -33.745  1.00  0.00     0.038 A 
HETATM   17  C   UNL     1     -10.053   2.610 -34.369  1.00  0.00     0.164 A 
ENDBRANCH   8   9
ENDBRANCH   2   8
BRANCH   1  18
HETATM   18  C   UNL     1      -6.436  -0.451 -33.940  1.00  0.00     0.041 A 
HETATM   19  N   UNL     1      -5.233  -0.990 -33.523  1.00  0.00    -0.357 N 
HETATM   20  C   UNL     1      -5.127  -2.303 -33.914  1.00  0.00     0.042 A 
HETATM   21  H   UNL     1      -4.500  -0.500 -33.021  1.00  0.00     0.166 HD
HETATM   22  C   UNL     1      -6.329  -2.648 -34.525  1.00  0.00    -0.008 A 
HETATM   23  C   UNL     1      -4.074  -3.209 -33.755  1.00  0.00     0.030 A 
HETATM   24  C   UNL     1      -6.499  -3.962 -34.999  1.00  0.00     0.014 A 
HETATM   25  C   UNL     1      -7.151  -1.489 -34.511  1.00  0.00     0.040 A 
HETATM   26  C   UNL     1      -5.454  -4.881 -34.853  1.00  0.00     0.001 A 
HETATM   27  C   UNL     1      -4.260  -4.507 -34.241  1.00  0.00     0.002 A 
ENDBRANCH   1  18
TORSDOF 3
ENDMDL
MODEL 2
REMARK VINA RESULT:      -9.1      1.545      6.872
REMARK  3 active torsions:
REMARK  status: ('A' for Active; 'I' for Inactive)
REMARK    1  A    between atoms: C_7  and  C_8 
REMARK    2  A    between atoms: N_9  and  C_11 
REMARK    3  A    between atoms: C_11  and  C_12 
ROOT
HETATM    1  C   UNL     1      -7.753   1.304 -31.981  1.00  0.00     0.238 C 
HETATM    2  N   UNL     1      -6.518   1.194 -32.863  1.00  0.00    -0.056 N 
HETATM    3  H   UNL     1      -5.776   0.863 -32.237  1.00  0.00     0.281 HD
HETATM    4  C   UNL     1      -6.022   2.503 -33.423  1.00  0.00     0.236 C 
HETATM    5  C   UNL     1      -5.783   3.500 -32.302  1.00  0.00     0.028 C 
HETATM    6  C   UNL     1      -7.025   3.706 -31.451  1.00  0.00     0.004 C 
HETATM    7  C   UNL     1      -7.537   2.378 -30.906  1.00  0.00     0.040 C 
ENDROOT
BRANCH   2   8
HETATM    8  C   UNL     1      -6.620   0.142 -33.952  1.00  0.00     0.295 C 
BRANCH   8   9
HETATM    9  C   UNL     1      -5.562  -0.881 -33.861  1.00  0.00     0.077 A 
HETATM   10  N   UNL     1      -5.699  -2.208 -34.234  1.00  0.00    -0.155 N 
HETATM   11  C   UNL     1      -4.499  -2.848 -33.916  1.00  0.00     0.732 A 
HETATM   12  C   UNL     1      -6.767  -2.903 -34.796  1.00  0.00     0.117 A 
HETATM   13  N   UNL     1      -4.341  -4.187 -34.114  1.00  0.00    -0.074 NA
HETATM   14  N   UNL     1      -3.636  -1.984 -33.430  1.00  0.00    -0.072 NA
HETATM   15  C   UNL     1      -5.342  -4.817 -34.645  1.00  0.00     0.138 A 
HETATM   16  C   UNL     1      -6.649  -4.217 -35.032  1.00  0.00     0.038 A 
HETATM   17  C   UNL     1      -4.253  -0.772 -33.439  1.00  0.00     0.164 A 
ENDBRANCH   8   9
ENDBRANCH   2   8
BRANCH   1  18
HETATM   18  C   UNL     1      -9.038   1.467 -32.731  1.00  0.00     0.041 A 
HETATM   19  N   UNL     1     -10.084   0.584 -32.537  1.00  0.00    -0.357 N 
HETATM   20  C   UNL     1     -11.126   0.871 -33.385  1.00  0.00     0.042 A 
HETATM   21  H   UNL     1     -10.097  -0.194 -31.886  1.00  0.00     0.166 HD
HETATM   22  C   UNL     1     -10.781   2.022 -34.087  1.00  0.00    -0.008 A 
HETATM   23  C   UNL     1     -12.348   0.213 -33.568  1.00  0.00     0.030 A 
HETATM   24  C   UNL     1     -11.695   2.553 -35.014  1.00  0.00     0.014 A 
HETATM   25  C   UNL     1      -9.483   2.402 -33.649  1.00  0.00     0.040 A 
HETATM   26  C   UNL     1     -12.919   1.907 -35.214  1.00  0.00     0.001 A 
HETATM   27  C   UNL     1     -13.238   0.754 -34.500  1.00  0.00     0.002 A 
ENDBRANCH   1  18
TORSDOF 3
ENDMDL
MODEL 3
REMARK VINA RESULT:      -9.0      2.490      5.661
REMARK  3 active torsions:
REMARK  status: ('A' for Active; 'I' for Inactive)
REMARK    1  A    between atoms: C_7  and  C_8 
REMARK    2  A    between atoms: N_9  and  C_11 
REMARK    3  A    between atoms: C_11  and  C_12 
ROOT
HETATM    1  C   UNL     1      -7.574   0.892 -32.443  1.00  0.00     0.238 C 
HETATM    2  N   UNL     1      -7.857   1.994 -33.453  1.00  0.00    -0.056 N 
HETATM    3  H   UNL     1      -8.168   2.794 -32.890  1.00  0.00     0.281 HD
HETATM    4  C   UNL     1      -8.989   1.704 -34.406  1.00  0.00     0.236 C 
HETATM    5  C   UNL     1     -10.252   1.357 -33.636  1.00  0.00     0.028 C 
HETATM    6  C   UNL     1     -10.032   0.197 -32.679  1.00  0.00     0.004 C 
HETATM    7  C   UNL     1      -8.873   0.485 -31.733  1.00  0.00     0.040 C 
ENDROOT
BRANCH   2   8
HETATM    8  C   UNL     1      -6.631   2.485 -34.200  1.00  0.00     0.295 C 
BRANCH   8   9
HETATM    9  C   UNL     1      -6.105   3.755 -33.666  1.00  0.00     0.077 A 
HETATM   10  N   UNL     1      -4.945   3.890 -32.922  1.00  0.00    -0.155 N 
HETATM   11  C   UNL     1      -4.851   5.233 -32.551  1.00  0.00     0.732 A 
HETATM   12  C   UNL     1      -3.989   2.958 -32.527  1.00  0.00     0.117 A 
HETATM   13  N   UNL     1      -3.837   5.675 -31.756  1.00  0.00    -0.074 NA
HETATM   14  N   UNL     1      -5.846   5.920 -33.067  1.00  0.00    -0.072 NA
HETATM   15  C   UNL     1      -2.951   4.796 -31.404  1.00  0.00     0.138 A 
HETATM   16  C   UNL     1      -2.959   3.352 -31.765  1.00  0.00     0.038 A 
HETATM   17  C   UNL     1      -6.589   5.041 -33.792  1.00  0.00     0.164 A 
ENDBRANCH   8   9
ENDBRANCH   2   8
BRANCH   1  18
HETATM   18  C   UNL     1      -6.810  -0.272 -32.992  1.00  0.00     0.041 A 
HETATM   19  N   UNL     1      -7.445  -1.234 -33.755  1.00  0.00    -0.357 N 
HETATM   20  C   UNL     1      -6.577  -2.249 -34.080  1.00  0.00     0.042 A 
HETATM   21  H   UNL     1      -8.422  -1.232 -34.029  1.00  0.00     0.166 HD
HETATM   22  C   UNL     1      -5.325  -1.892 -33.587  1.00  0.00    -0.008 A 
HETATM   23  C   UNL     1      -6.800  -3.436 -34.785  1.00  0.00     0.030 A 
HETATM   24  C   UNL     1      -4.235  -2.754 -33.809  1.00  0.00     0.014 A 
HETATM   25  C   UNL     1      -5.477  -0.640 -32.933  1.00  0.00     0.040 A 
HETATM   26  C   UNL     1      -4.441  -3.948 -34.507  1.00  0.00     0.001 A 
HETATM   27  C   UNL     1      -5.705  -4.282 -34.986  1.00  0.00     0.002 A 
ENDBRANCH   1  18
TORSDOF 3
ENDMDL
MODEL 4
REMARK VINA RESULT:      -8.8      3.550      6.890
REMARK  3 active torsions:
REMARK  status: ('A' for Active; 'I' for Inactive)
REMARK    1  A    between atoms: C_7  and  C_8 
REMARK    2  A    between atoms: N_9  and  C_11 
REMARK    3  A    between atoms: C_11  and  C_12 
ROOT
HETATM    1  C   UNL     1      -6.299   1.961 -31.643  1.00  0.00     0.238 C 
HETATM    2  N   UNL     1      -6.206   3.220 -32.493  1.00  0.00    -0.056 N 
HETATM    3  H   UNL     1      -6.066   3.981 -31.820  1.00  0.00     0.281 HD
HETATM    4  C   UNL     1      -7.465   3.570 -33.246  1.00  0.00     0.236 C 
HETATM    5  C   UNL     1      -8.642   3.663 -32.291  1.00  0.00     0.028 C 
HETATM    6  C   UNL     1      -8.824   2.386 -31.487  1.00  0.00     0.004 C 
HETATM    7  C   UNL     1      -7.542   2.024 -30.746  1.00  0.00     0.040 C 
ENDROOT
BRANCH   2   8
HETATM    8  C   UNL     1      -4.996   3.267 -33.407  1.00  0.00     0.295 C 
BRANCH   8   9
HETATM    9  C   UNL     1      -3.769   3.695 -32.711  1.00  0.00     0.077 A 
HETATM   10  N   UNL     1      -2.994   4.790 -33.057  1.00  0.00    -0.155 N 
HETATM   11  C   UNL     1      -1.890   4.797 -32.201  1.00  0.00     0.732 A 
HETATM   12  C   UNL     1      -3.150   5.754 -34.049  1.00  0.00     0.117 A 
HETATM   13  N   UNL     1      -0.905   5.729 -32.329  1.00  0.00    -0.074 NA
HETATM   14  N   UNL     1      -1.981   3.813 -31.333  1.00  0.00    -0.072 NA
HETATM   15  C   UNL     1      -1.070   6.624 -33.253  1.00  0.00     0.138 A 
HETATM   16  C   UNL     1      -2.218   6.707 -34.197  1.00  0.00     0.038 A 
HETATM   17  C   UNL     1      -3.146   3.166 -31.599  1.00  0.00     0.164 A 
ENDBRANCH   8   9
ENDBRANCH   2   8
BRANCH   1  18
HETATM   18  C   UNL     1      -6.190   0.683 -32.415  1.00  0.00     0.041 A 
HETATM   19  N   UNL     1      -5.017  -0.049 -32.403  1.00  0.00    -0.357 N 
HETATM   20  C   UNL     1      -5.112  -1.133 -33.243  1.00  0.00     0.042 A 
HETATM   21  H   UNL     1      -4.178   0.175 -31.880  1.00  0.00     0.166 HD
HETATM   22  C   UNL     1      -6.410  -1.152 -33.745  1.00  0.00    -0.008 A 
HETATM   23  C   UNL     1      -4.159  -2.102 -33.576  1.00  0.00     0.030 A 
HETATM   24  C   UNL     1      -6.786  -2.188 -34.619  1.00  0.00     0.014 A 
HETATM   25  C   UNL     1      -7.084  -0.027 -33.198  1.00  0.00     0.040 A 
HETATM   26  C   UNL     1      -5.845  -3.163 -34.968  1.00  0.00     0.001 A 
HETATM   27  C   UNL     1      -4.551  -3.117 -34.453  1.00  0.00     0.002 A 
ENDBRANCH   1  18
TORSDOF 3
ENDMDL
MODEL 5
REMARK VINA RESULT:      -8.7      1.755      2.643
REMARK  3 active torsions:
REMARK  status: ('A' for Active; 'I' for Inactive)
REMARK    1  A    between atoms: C_7  and  C_8 
REMARK    2  A    between atoms: N_9  and  C_11 
REMARK    3  A    between atoms: C_11  and  C_12 
ROOT
HETATM    1  C   UNL     1      -5.864   1.093 -33.059  1.00  0.00     0.238 C 
HETATM    2  N   UNL     1      -6.730   1.251 -31.818  1.00  0.00    -0.056 N 
HETATM    3  H   UNL     1      -7.006   2.239 -31.814  1.00  0.00     0.281 HD
HETATM    4  C   UNL     1      -6.012   1.026 -30.512  1.00  0.00     0.236 C 
HETATM    5  C   UNL     1      -4.789   1.923 -30.420  1.00  0.00     0.028 C 
HETATM    6  C   UNL     1      -3.851   1.727 -31.600  1.00  0.00     0.004 C 
HETATM    7  C   UNL     1      -4.587   1.933 -32.918  1.00  0.00     0.040 C 
ENDROOT
BRANCH   2   8
HETATM    8  C   UNL     1      -8.032   0.473 -31.863  1.00  0.00     0.295 C 
BRANCH   8   9
HETATM    9  C   UNL     1      -9.125   1.223 -32.509  1.00  0.00     0.077 A 
HETATM   10  N   UNL     1      -9.764   2.328 -31.970  1.00  0.00    -0.155 N 
HETATM   11  C   UNL     1     -10.781   2.684 -32.858  1.00  0.00     0.732 A 
HETATM   12  C   UNL     1      -9.556   3.025 -30.784  1.00  0.00     0.117 A 
HETATM   13  N   UNL     1     -11.632   3.711 -32.578  1.00  0.00    -0.074 NA
HETATM   14  N   UNL     1     -10.759   1.903 -33.915  1.00  0.00    -0.072 NA
HETATM   15  C   UNL     1     -11.420   4.355 -31.473  1.00  0.00     0.138 A 
HETATM   16  C   UNL     1     -10.353   4.059 -30.477  1.00  0.00     0.038 A 
HETATM   17  C   UNL     1      -9.722   1.041 -33.740  1.00  0.00     0.164 A 
ENDBRANCH   8   9
ENDBRANCH   2   8
BRANCH   1  18
HETATM   18  C   UNL     1      -5.598  -0.326 -33.453  1.00  0.00     0.041 A 
HETATM   19  N   UNL     1      -6.565  -1.070 -34.103  1.00  0.00    -0.357 N 
HETATM   20  C   UNL     1      -6.140  -2.363 -34.291  1.00  0.00     0.042 A 
HETATM   21  H   UNL     1      -7.481  -0.740 -34.388  1.00  0.00     0.166 HD
HETATM   22  C   UNL     1      -4.830  -2.436 -33.827  1.00  0.00    -0.008 A 
HETATM   23  C   UNL     1      -6.806  -3.459 -34.850  1.00  0.00     0.030 A 
HETATM   24  C   UNL     1      -4.140  -3.658 -33.928  1.00  0.00     0.014 A 
HETATM   25  C   UNL     1      -4.491  -1.149 -33.331  1.00  0.00     0.040 A 
HETATM   26  C   UNL     1      -4.791  -4.767 -34.480  1.00  0.00     0.001 A 
HETATM   27  C   UNL     1      -6.105  -4.666 -34.932  1.00  0.00     0.002 A 
ENDBRANCH   1  18
TORSDOF 3
ENDMDL
MODEL 6
REMARK VINA RESULT:      -8.5      2.575      7.069
REMARK  3 active torsions:
REMARK  status: ('A' for Active; 'I' for Inactive)
REMARK    1  A    between atoms: C_7  and  C_8 
REMARK    2  A    between atoms: N_9  and  C_11 
REMARK    3  A    between atoms: C_11  and  C_12 
ROOT
HETATM    1  C   UNL     1      -7.342   1.047 -34.460  1.00  0.00     0.238 C 
HETATM    2  N   UNL     1      -6.568   1.103 -33.151  1.00  0.00    -0.056 N 
HETATM    3  H   UNL     1      -5.587   1.216 -33.430  1.00  0.00     0.281 HD
HETATM    4  C   UNL     1      -6.614  -0.164 -32.334  1.00  0.00     0.236 C 
HETATM    5  C   UNL     1      -6.156  -1.347 -33.169  1.00  0.00     0.028 C 
HETATM    6  C   UNL     1      -6.968  -1.491 -34.446  1.00  0.00     0.004 C 
HETATM    7  C   UNL     1      -6.938  -0.201 -35.257  1.00  0.00     0.040 C 
ENDROOT
BRANCH   2   8
HETATM    8  C   UNL     1      -6.881   2.314 -32.292  1.00  0.00     0.295 C 
BRANCH   8   9
HETATM    9  C   UNL     1      -6.433   3.579 -32.902  1.00  0.00     0.077 A 
HETATM   10  N   UNL     1      -5.113   3.979 -33.035  1.00  0.00    -0.155 N 
HETATM   11  C   UNL     1      -5.128   5.261 -33.588  1.00  0.00     0.732 A 
HETATM   12  C   UNL     1      -3.919   3.345 -32.702  1.00  0.00     0.117 A 
HETATM   13  N   UNL     1      -3.973   5.955 -33.790  1.00  0.00    -0.074 NA
HETATM   14  N   UNL     1      -6.363   5.633 -33.845  1.00  0.00    -0.072 NA
HETATM   15  C   UNL     1      -2.870   5.346 -33.481  1.00  0.00     0.138 A 
HETATM   16  C   UNL     1      -2.756   3.978 -32.906  1.00  0.00     0.038 A 
HETATM   17  C   UNL     1      -7.164   4.597 -33.480  1.00  0.00     0.164 A 
ENDBRANCH   8   9
ENDBRANCH   2   8
BRANCH   1  18
HETATM   18  C   UNL     1      -8.824   1.200 -34.312  1.00  0.00     0.041 A 
HETATM   19  N   UNL     1      -9.473   2.305 -34.829  1.00  0.00    -0.357 N 
HETATM   20  C   UNL     1     -10.809   2.281 -34.504  1.00  0.00     0.042 A 
HETATM   21  H   UNL     1      -9.044   3.059 -35.355  1.00  0.00     0.166 HD
HETATM   22  C   UNL     1     -11.047   1.086 -33.832  1.00  0.00    -0.008 A 
HETATM   23  C   UNL     1     -11.818   3.211 -34.770  1.00  0.00     0.030 A 
HETATM   24  C   UNL     1     -12.355   0.793 -33.406  1.00  0.00     0.014 A 
HETATM   25  C   UNL     1      -9.803   0.404 -33.742  1.00  0.00     0.040 A 
HETATM   26  C   UNL     1     -13.377   1.714 -33.659  1.00  0.00     0.001 A 
HETATM   27  C   UNL     1     -13.110   2.905 -34.331  1.00  0.00     0.002 A 
ENDBRANCH   1  18
TORSDOF 3
ENDMDL
MODEL 7
REMARK VINA RESULT:      -8.5      2.922      7.695
REMARK  3 active torsions:
REMARK  status: ('A' for Active; 'I' for Inactive)
REMARK    1  A    between atoms: C_7  and  C_8 
REMARK    2  A    between atoms: N_9  and  C_11 
REMARK    3  A    between atoms: C_11  and  C_12 
ROOT
HETATM    1  C   UNL     1      -7.023   1.426 -34.515  1.00  0.00     0.238 C 
HETATM    2  N   UNL     1      -6.009   1.301 -33.387  1.00  0.00    -0.056 N 
HETATM    3  H   UNL     1      -5.097   1.263 -33.855  1.00  0.00     0.281 HD
HETATM    4  C   UNL     1      -6.107   0.027 -32.587  1.00  0.00     0.236 C 
HETATM    5  C   UNL     1      -6.027  -1.181 -33.505  1.00  0.00     0.028 C 
HETATM    6  C   UNL     1      -7.086  -1.137 -34.595  1.00  0.00     0.004 C 
HETATM    7  C   UNL     1      -6.998   0.162 -35.386  1.00  0.00     0.040 C 
ENDROOT
BRANCH   2   8
HETATM    8  C   UNL     1      -5.940   2.511 -32.474  1.00  0.00     0.295 C 
BRANCH   8   9
HETATM    9  C   UNL     1      -4.577   3.062 -32.357  1.00  0.00     0.077 A 
HETATM   10  N   UNL     1      -3.991   3.940 -33.254  1.00  0.00    -0.155 N 
HETATM   11  C   UNL     1      -2.680   4.152 -32.821  1.00  0.00     0.732 A 
HETATM   12  C   UNL     1      -4.482   4.545 -34.408  1.00  0.00     0.117 A 
HETATM   13  N   UNL     1      -1.820   4.932 -33.533  1.00  0.00    -0.074 NA
HETATM   14  N   UNL     1      -2.461   3.504 -31.698  1.00  0.00    -0.072 NA
HETATM   15  C   UNL     1      -2.296   5.494 -34.601  1.00  0.00     0.138 A 
HETATM   16  C   UNL     1      -3.680   5.341 -35.129  1.00  0.00     0.038 A 
HETATM   17  C   UNL     1      -3.624   2.878 -31.376  1.00  0.00     0.164 A 
ENDBRANCH   8   9
ENDBRANCH   2   8
BRANCH   1  18
HETATM   18  C   UNL     1      -8.399   1.813 -34.073  1.00  0.00     0.041 A 
HETATM   19  N   UNL     1      -9.499   1.074 -34.468  1.00  0.00    -0.357 N 
HETATM   20  C   UNL     1     -10.661   1.655 -34.019  1.00  0.00     0.042 A 
HETATM   21  H   UNL     1      -9.482   0.232 -35.033  1.00  0.00     0.166 HD
HETATM   22  C   UNL     1     -10.300   2.751 -33.242  1.00  0.00    -0.008 A 
HETATM   23  C   UNL     1     -11.994   1.282 -34.226  1.00  0.00     0.030 A 
HETATM   24  C   UNL     1     -11.311   3.516 -32.632  1.00  0.00     0.014 A 
HETATM   25  C   UNL     1      -8.881   2.824 -33.259  1.00  0.00     0.040 A 
HETATM   26  C   UNL     1     -12.650   3.161 -32.832  1.00  0.00     0.001 A 
HETATM   27  C   UNL     1     -12.983   2.061 -33.619  1.00  0.00     0.002 A 
ENDBRANCH   1  18
TORSDOF 3
ENDMDL
MODEL 8
REMARK VINA RESULT:      -8.4      1.855      2.802
REMARK  3 active torsions:
REMARK  status: ('A' for Active; 'I' for Inactive)
REMARK    1  A    between atoms: C_7  and  C_8 
REMARK    2  A    between atoms: N_9  and  C_11 
REMARK    3  A    between atoms: C_11  and  C_12 
ROOT
HETATM    1  C   UNL     1      -5.917   2.515 -32.940  1.00  0.00     0.238 C 
HETATM    2  N   UNL     1      -6.362   2.740 -31.502  1.00  0.00    -0.056 N 
HETATM    3  H   UNL     1      -6.737   3.695 -31.489  1.00  0.00     0.281 HD
HETATM    4  C   UNL     1      -5.248   2.728 -30.486  1.00  0.00     0.236 C 
HETATM    5  C   UNL     1      -4.173   3.731 -30.869  1.00  0.00     0.028 C 
HETATM    6  C   UNL     1      -3.637   3.481 -32.270  1.00  0.00     0.004 C 
HETATM    7  C   UNL     1      -4.769   3.471 -33.290  1.00  0.00     0.040 C 
ENDROOT
BRANCH   2   8
HETATM    8  C   UNL     1      -7.511   1.854 -31.058  1.00  0.00     0.295 C 
BRANCH   8   9
HETATM    9  C   UNL     1      -8.825   2.509 -31.196  1.00  0.00     0.077 A 
HETATM   10  N   UNL     1      -9.741   2.256 -32.204  1.00  0.00    -0.155 N 
HETATM   11  C   UNL     1     -10.811   3.134 -32.014  1.00  0.00     0.732 A 
HETATM   12  C   UNL     1      -9.718   1.359 -33.268  1.00  0.00     0.117 A 
HETATM   13  N   UNL     1     -11.857   3.169 -32.886  1.00  0.00    -0.074 NA
HETATM   14  N   UNL     1     -10.621   3.856 -30.931  1.00  0.00    -0.072 NA
HETATM   15  C   UNL     1     -11.823   2.322 -33.867  1.00  0.00     0.138 A 
HETATM   16  C   UNL     1     -10.738   1.340 -34.139  1.00  0.00     0.038 A 
HETATM   17  C   UNL     1      -9.440   3.448 -30.394  1.00  0.00     0.164 A 
ENDBRANCH   8   9
ENDBRANCH   2   8
BRANCH   1  18
HETATM   18  C   UNL     1      -5.624   1.088 -33.281  1.00  0.00     0.041 A 
HETATM   19  N   UNL     1      -6.451   0.384 -34.137  1.00  0.00    -0.357 N 
HETATM   20  C   UNL     1      -6.044  -0.924 -34.241  1.00  0.00     0.042 A 
HETATM   21  H   UNL     1      -7.268   0.750 -34.614  1.00  0.00     0.166 HD
HETATM   22  C   UNL     1      -4.872  -1.050 -33.500  1.00  0.00    -0.008 A 
HETATM   23  C   UNL     1      -6.609  -1.992 -34.946  1.00  0.00     0.030 A 
HETATM   24  C   UNL     1      -4.223  -2.298 -33.460  1.00  0.00     0.014 A 
HETATM   25  C   UNL     1      -4.604   0.222 -32.927  1.00  0.00     0.040 A 
HETATM   26  C   UNL     1      -4.777  -3.378 -34.155  1.00  0.00     0.001 A 
HETATM   27  C   UNL     1      -5.953  -3.225 -34.886  1.00  0.00     0.002 A 
ENDBRANCH   1  18
TORSDOF 3
ENDMDL
MODEL 9
REMARK VINA RESULT:      -8.3     13.691     15.010
REMARK  3 active torsions:
REMARK  status: ('A' for Active; 'I' for Inactive)
REMARK    1  A    between atoms: C_7  and  C_8 
REMARK    2  A    between atoms: N_9  and  C_11 
REMARK    3  A    between atoms: C_11  and  C_12 
ROOT
HETATM    1  C   UNL     1      -6.307 -13.537 -35.404  1.00  0.00     0.238 C 
HETATM    2  N   UNL     1      -7.097 -14.831 -35.537  1.00  0.00    -0.056 N 
HETATM    3  H   UNL     1      -8.065 -14.572 -35.319  1.00  0.00     0.281 HD
HETATM    4  C   UNL     1      -6.729 -15.902 -34.541  1.00  0.00     0.236 C 
HETATM    5  C   UNL     1      -6.834 -15.364 -33.125  1.00  0.00     0.028 C 
HETATM    6  C   UNL     1      -5.984 -14.119 -32.926  1.00  0.00     0.004 C 
HETATM    7  C   UNL     1      -6.343 -13.048 -33.949  1.00  0.00     0.040 C 
ENDROOT
BRANCH   2   8
HETATM    8  C   UNL     1      -7.141 -15.392 -36.946  1.00  0.00     0.295 C 
BRANCH   8   9
HETATM    9  C   UNL     1      -7.623 -14.413 -37.938  1.00  0.00     0.077 A 
HETATM   10  N   UNL     1      -6.946 -14.042 -39.088  1.00  0.00    -0.155 N 
HETATM   11  C   UNL     1      -7.704 -13.043 -39.703  1.00  0.00     0.732 A 
HETATM   12  C   UNL     1      -5.739 -14.474 -39.628  1.00  0.00     0.117 A 
HETATM   13  N   UNL     1      -7.270 -12.428 -40.839  1.00  0.00    -0.074 NA
HETATM   14  N   UNL     1      -8.812 -12.830 -39.028  1.00  0.00    -0.072 NA
HETATM   15  C   UNL     1      -6.147 -12.848 -41.332  1.00  0.00     0.138 A 
HETATM   16  C   UNL     1      -5.283 -13.916 -40.759  1.00  0.00     0.038 A 
HETATM   17  C   UNL     1      -8.800 -13.695 -37.979  1.00  0.00     0.164 A 
ENDBRANCH   8   9
ENDBRANCH   2   8
BRANCH   1  18
HETATM   18  C   UNL     1      -4.926 -13.592 -35.976  1.00  0.00     0.041 A 
HETATM   19  N   UNL     1      -4.505 -12.645 -36.892  1.00  0.00    -0.357 N 
HETATM   20  C   UNL     1      -3.240 -12.936 -37.346  1.00  0.00     0.042 A 
HETATM   21  H   UNL     1      -5.043 -11.852 -37.222  1.00  0.00     0.166 HD
HETATM   22  C   UNL     1      -2.798 -14.052 -36.642  1.00  0.00    -0.008 A 
HETATM   23  C   UNL     1      -2.455 -12.288 -38.305  1.00  0.00     0.030 A 
HETATM   24  C   UNL     1      -1.507 -14.550 -36.897  1.00  0.00     0.014 A 
HETATM   25  C   UNL     1      -3.850 -14.437 -35.767  1.00  0.00     0.040 A 
HETATM   26  C   UNL     1      -0.708 -13.917 -37.856  1.00  0.00     0.001 A 
HETATM   27  C   UNL     1      -1.179 -12.803 -38.549  1.00  0.00     0.002 A 
ENDBRANCH   1  18
TORSDOF 3
ENDMDL
MODEL 10
REMARK VINA RESULT:      -8.2      2.499      6.611
REMARK  3 active torsions:
REMARK  status: ('A' for Active; 'I' for Inactive)
REMARK    1  A    between atoms: C_7  and  C_8 
REMARK    2  A    between atoms: N_9  and  C_11 
REMARK    3  A    between atoms: C_11  and  C_12 
ROOT
HETATM    1  C   UNL     1      -7.641   1.379 -34.019  1.00  0.00     0.238 C 
HETATM    2  N   UNL     1      -6.961   1.084 -32.690  1.00  0.00    -0.056 N 
HETATM    3  H   UNL     1      -6.019   1.480 -32.782  1.00  0.00     0.281 HD
HETATM    4  C   UNL     1      -6.758  -0.381 -32.394  1.00  0.00     0.236 C 
HETATM    5  C   UNL     1      -6.006  -1.050 -33.531  1.00  0.00     0.028 C 
HETATM    6  C   UNL     1      -6.704  -0.854 -34.867  1.00  0.00     0.004 C 
HETATM    7  C   UNL     1      -6.928   0.626 -35.151  1.00  0.00     0.040 C 
ENDROOT
BRANCH   2   8
HETATM    8  C   UNL     1      -7.579   1.797 -31.501  1.00  0.00     0.295 C 
BRANCH   8   9
HETATM    9  C   UNL     1      -6.813   2.986 -31.085  1.00  0.00     0.077 A 
HETATM   10  N   UNL     1      -7.001   4.269 -31.572  1.00  0.00    -0.155 N 
HETATM   11  C   UNL     1      -6.027   5.077 -30.981  1.00  0.00     0.732 A 
HETATM   12  C   UNL     1      -7.915   4.784 -32.486  1.00  0.00     0.117 A 
HETATM   13  N   UNL     1      -5.914   6.395 -31.304  1.00  0.00    -0.074 NA
HETATM   14  N   UNL     1      -5.306   4.376 -30.133  1.00  0.00    -0.072 NA
HETATM   15  C   UNL     1      -6.779   6.860 -32.152  1.00  0.00     0.138 A 
HETATM   16  C   UNL     1      -7.859   6.082 -32.817  1.00  0.00     0.038 A 
HETATM   17  C   UNL     1      -5.807   3.113 -30.148  1.00  0.00     0.164 A 
ENDBRANCH   8   9
ENDBRANCH   2   8
BRANCH   1  18
HETATM   18  C   UNL     1      -9.124   1.176 -34.016  1.00  0.00     0.041 A 
HETATM   19  N   UNL     1      -9.949   2.005 -34.753  1.00  0.00    -0.357 N 
HETATM   20  C   UNL     1     -11.270   1.693 -34.536  1.00  0.00     0.042 A 
HETATM   21  H   UNL     1      -9.650   2.763 -35.356  1.00  0.00     0.166 HD
HETATM   22  C   UNL     1     -11.298   0.578 -33.703  1.00  0.00    -0.008 A 
HETATM   23  C   UNL     1     -12.432   2.298 -35.028  1.00  0.00     0.030 A 
HETATM   24  C   UNL     1     -12.542   0.030 -33.342  1.00  0.00     0.014 A 
HETATM   25  C   UNL     1      -9.949   0.246 -33.407  1.00  0.00     0.040 A 
HETATM   26  C   UNL     1     -13.715   0.624 -33.820  1.00  0.00     0.001 A 
HETATM   27  C   UNL     1     -13.657   1.742 -34.650  1.00  0.00     0.002 A 
ENDBRANCH   1  18
TORSDOF 3
ENDMDL
