MODEL 1
REMARK VINA RESULT:      -9.3      0.000      0.000
REMARK  6 active torsions:
REMARK  status: ('A' for Active; 'I' for Inactive)
REMARK    1  A    between atoms: O_2  and  C_3 
REMARK    2  A    between atoms: C_6  and  C_7 
REMARK    3  A    between atoms: C_12  and  C_13 
REMARK       I    between atoms: C_13  and  N_14 
REMARK    4  A    between atoms: N_14  and  C_15 
REMARK    5  A    between atoms: C_15  and  C_16 
REMARK    6  A    between atoms: C_24  and  C_25 
ROOT
HETATM    1  C   UNL     1      -7.508   0.396 -33.853  1.00  0.00     0.118 C 
HETATM    2  N   UNL     1      -6.921   1.623 -34.375  1.00  0.00    -0.366 N 
HETATM    3  C   UNL     1      -6.379   2.561 -33.573  1.00  0.00     0.123 A 
HETATM    4  N   UNL     1      -6.462   2.483 -32.210  1.00  0.00    -0.240 N 
HETATM    5  N   UNL     1      -5.884   3.518 -31.570  1.00  0.00    -0.165 NA
HETATM    6  C   UNL     1      -5.375   4.268 -32.575  1.00  0.00     0.148 A 
HETATM    7  C   UNL     1      -5.679   3.704 -33.844  1.00  0.00     0.088 A 
HETATM    8  C   UNL     1      -7.137   1.422 -31.489  1.00  0.00     0.221 C 
HETATM    9  C   UNL     1      -8.050   0.607 -32.428  1.00  0.00     0.066 C 
HETATM   10  H   UNL     1      -6.715   1.612 -35.374  1.00  0.00     0.161 HD
ENDROOT
BRANCH   6  11
HETATM   11  C   UNL     1      -4.598   5.492 -32.333  1.00  0.00     0.272 C 
HETATM   12  N   UNL     1      -3.478   5.596 -33.121  1.00  0.00    -0.351 N 
HETATM   13  H   UNL     1      -3.300   4.826 -33.759  1.00  0.00     0.163 HD
HETATM   14  O   UNL     1      -4.944   6.342 -31.518  1.00  0.00    -0.266 OA
BRANCH  12  15
HETATM   15  C   UNL     1      -2.603   6.739 -33.097  1.00  0.00     0.161 C 
BRANCH  15  16
HETATM   16  C   UNL     1      -1.525   6.631 -32.045  1.00  0.00    -0.041 A 
HETATM   17  C   UNL     1      -1.422   7.558 -30.996  1.00  0.00     0.009 A 
HETATM   18  C   UNL     1      -0.447   7.410 -30.007  1.00  0.00     0.001 A 
HETATM   19  C   UNL     1       0.424   6.324 -30.043  1.00  0.00     0.000 A 
HETATM   20  C   UNL     1       0.321   5.385 -31.066  1.00  0.00     0.001 A 
HETATM   21  C   UNL     1      -0.650   5.535 -32.058  1.00  0.00     0.009 A 
ENDBRANCH  15  16
ENDBRANCH  12  15
ENDBRANCH   6  11
BRANCH   8  22
HETATM   22  C   UNL     1      -6.141   0.583 -30.719  1.00  0.00     0.409 C 
HETATM   23  F   UNL     1      -4.875   0.694 -31.161  1.00  0.00    -0.169 F 
HETATM   24  F   UNL     1      -6.136   0.889 -29.400  1.00  0.00    -0.169 F 
HETATM   25  F   UNL     1      -6.478  -0.731 -30.797  1.00  0.00    -0.169 F 
ENDBRANCH   8  22
BRANCH   1  26
HETATM   26  C   UNL     1      -6.597  -0.806 -34.019  1.00  0.00    -0.035 A 
HETATM   27  C   UNL     1      -5.209  -0.748 -33.827  1.00  0.00     0.012 A 
HETATM   28  C   UNL     1      -4.408  -1.889 -33.967  1.00  0.00     0.037 A 
HETATM   29  C   UNL     1      -4.980  -3.108 -34.320  1.00  0.00     0.068 A 
HETATM   30  C   UNL     1      -6.353  -3.172 -34.555  1.00  0.00     0.037 A 
HETATM   31  C   UNL     1      -7.155  -2.038 -34.396  1.00  0.00     0.012 A 
BRANCH  29  32
HETATM   32  O   UNL     1      -4.308  -4.288 -34.484  1.00  0.00    -0.356 OA
HETATM   33  C   UNL     1      -3.430  -4.662 -33.430  1.00  0.00     0.210 C 
ENDBRANCH  29  32
ENDBRANCH   1  26
TORSDOF 6
ENDMDL
MODEL 2
REMARK VINA RESULT:      -9.2      0.677      1.450
REMARK  6 active torsions:
REMARK  status: ('A' for Active; 'I' for Inactive)
REMARK    1  A    between atoms: O_2  and  C_3 
REMARK    2  A    between atoms: C_6  and  C_7 
REMARK    3  A    between atoms: C_12  and  C_13 
REMARK       I    between atoms: C_13  and  N_14 
REMARK    4  A    between atoms: N_14  and  C_15 
REMARK    5  A    between atoms: C_15  and  C_16 
REMARK    6  A    between atoms: C_24  and  C_25 
ROOT
HETATM    1  C   UNL     1      -7.258   0.722 -33.711  1.00  0.00     0.118 C 
HETATM    2  N   UNL     1      -6.537   1.918 -34.123  1.00  0.00    -0.366 N 
HETATM    3  C   UNL     1      -5.954   2.750 -33.236  1.00  0.00     0.123 A 
HETATM    4  N   UNL     1      -6.115   2.597 -31.886  1.00  0.00    -0.240 N 
HETATM    5  N   UNL     1      -5.480   3.532 -31.154  1.00  0.00    -0.165 NA
HETATM    6  C   UNL     1      -4.853   4.291 -32.083  1.00  0.00     0.148 A 
HETATM    7  C   UNL     1      -5.141   3.837 -33.398  1.00  0.00     0.088 A 
HETATM    8  C   UNL     1      -6.920   1.561 -31.269  1.00  0.00     0.221 C 
HETATM    9  C   UNL     1      -7.852   0.895 -32.301  1.00  0.00     0.066 C 
HETATM   10  H   UNL     1      -6.281   1.949 -35.110  1.00  0.00     0.161 HD
ENDROOT
BRANCH   6  11
HETATM   11  C   UNL     1      -3.982   5.420 -31.724  1.00  0.00     0.272 C 
HETATM   12  N   UNL     1      -2.761   5.391 -32.351  1.00  0.00    -0.351 N 
HETATM   13  H   UNL     1      -2.587   4.602 -32.968  1.00  0.00     0.163 HD
HETATM   14  O   UNL     1      -4.337   6.307 -30.955  1.00  0.00    -0.266 OA
BRANCH  12  15
HETATM   15  C   UNL     1      -1.773   6.427 -32.197  1.00  0.00     0.161 C 
BRANCH  15  16
HETATM   16  C   UNL     1      -0.941   6.262 -30.948  1.00  0.00    -0.041 A 
HETATM   17  C   UNL     1      -0.102   5.152 -30.761  1.00  0.00     0.009 A 
HETATM   18  C   UNL     1       0.694   5.044 -29.620  1.00  0.00     0.001 A 
HETATM   19  C   UNL     1       0.678   6.053 -28.659  1.00  0.00     0.000 A 
HETATM   20  C   UNL     1      -0.135   7.170 -28.839  1.00  0.00     0.001 A 
HETATM   21  C   UNL     1      -0.936   7.276 -29.978  1.00  0.00     0.009 A 
ENDBRANCH  15  16
ENDBRANCH  12  15
ENDBRANCH   6  11
BRANCH   8  22
HETATM   22  C   UNL     1      -6.046   0.586 -30.512  1.00  0.00     0.409 C 
HETATM   23  F   UNL     1      -4.756   0.594 -30.897  1.00  0.00    -0.169 F 
HETATM   24  F   UNL     1      -6.068   0.819 -29.178  1.00  0.00    -0.169 F 
HETATM   25  F   UNL     1      -6.505  -0.681 -30.678  1.00  0.00    -0.169 F 
ENDBRANCH   8  22
BRANCH   1  26
HETATM   26  C   UNL     1      -6.452  -0.548 -33.913  1.00  0.00    -0.035 A 
HETATM   27  C   UNL     1      -7.017  -1.752 -34.360  1.00  0.00     0.012 A 
HETATM   28  C   UNL     1      -6.230  -2.893 -34.557  1.00  0.00     0.037 A 
HETATM   29  C   UNL     1      -4.863  -2.858 -34.293  1.00  0.00     0.068 A 
HETATM   30  C   UNL     1      -4.295  -1.681 -33.810  1.00  0.00     0.037 A 
HETATM   31  C   UNL     1      -5.077  -0.535 -33.631  1.00  0.00     0.012 A 
BRANCH  29  32
HETATM   32  O   UNL     1      -3.992  -3.901 -34.449  1.00  0.00    -0.356 OA
HETATM   33  C   UNL     1      -3.511  -4.501 -33.252  1.00  0.00     0.210 C 
ENDBRANCH  29  32
ENDBRANCH   1  26
TORSDOF 6
ENDMDL
MODEL 3
REMARK VINA RESULT:      -9.0      2.865      4.361
REMARK  6 active torsions:
REMARK  status: ('A' for Active; 'I' for Inactive)
REMARK    1  A    between atoms: O_2  and  C_3 
REMARK    2  A    between atoms: C_6  and  C_7 
REMARK    3  A    between atoms: C_12  and  C_13 
REMARK       I    between atoms: C_13  and  N_14 
REMARK    4  A    between atoms: N_14  and  C_15 
REMARK    5  A    between atoms: C_15  and  C_16 
REMARK    6  A    between atoms: C_24  and  C_25 
ROOT
HETATM    1  C   UNL     1      -7.425   1.207 -30.919  1.00  0.00     0.118 C 
HETATM    2  N   UNL     1      -6.713   2.475 -30.837  1.00  0.00    -0.366 N 
HETATM    3  C   UNL     1      -5.489   2.650 -31.375  1.00  0.00     0.123 A 
HETATM    4  N   UNL     1      -4.782   1.613 -31.917  1.00  0.00    -0.240 N 
HETATM    5  N   UNL     1      -3.570   1.968 -32.387  1.00  0.00    -0.165 NA
HETATM    6  C   UNL     1      -3.524   3.303 -32.168  1.00  0.00     0.148 A 
HETATM    7  C   UNL     1      -4.704   3.760 -31.521  1.00  0.00     0.088 A 
HETATM    8  C   UNL     1      -5.245   0.240 -31.963  1.00  0.00     0.221 C 
HETATM    9  C   UNL     1      -6.442   0.027 -31.014  1.00  0.00     0.066 C 
HETATM   10  H   UNL     1      -7.288   3.278 -30.582  1.00  0.00     0.161 HD
ENDROOT
BRANCH   6  11
HETATM   11  C   UNL     1      -2.382   4.132 -32.579  1.00  0.00     0.272 C 
HETATM   12  N   UNL     1      -1.607   4.558 -31.529  1.00  0.00    -0.351 N 
HETATM   13  H   UNL     1      -1.908   4.276 -30.600  1.00  0.00     0.163 HD
HETATM   14  O   UNL     1      -2.144   4.390 -33.755  1.00  0.00    -0.266 OA
BRANCH  12  15
HETATM   15  C   UNL     1      -0.404   5.330 -31.701  1.00  0.00     0.161 C 
BRANCH  15  16
HETATM   16  C   UNL     1       0.073   5.966 -30.418  1.00  0.00    -0.041 A 
HETATM   17  C   UNL     1       0.040   7.356 -30.225  1.00  0.00     0.009 A 
HETATM   18  C   UNL     1       0.442   7.918 -29.012  1.00  0.00     0.001 A 
HETATM   19  C   UNL     1       0.864   7.098 -27.968  1.00  0.00     0.000 A 
HETATM   20  C   UNL     1       0.883   5.715 -28.137  1.00  0.00     0.001 A 
HETATM   21  C   UNL     1       0.487   5.152 -29.352  1.00  0.00     0.009 A 
ENDBRANCH  15  16
ENDBRANCH  12  15
ENDBRANCH   6  11
BRANCH   8  22
HETATM   22  C   UNL     1      -5.508  -0.187 -33.390  1.00  0.00     0.409 C 
HETATM   23  F   UNL     1      -5.935   0.808 -34.189  1.00  0.00    -0.169 F 
HETATM   24  F   UNL     1      -4.408  -0.723 -33.969  1.00  0.00    -0.169 F 
HETATM   25  F   UNL     1      -6.457  -1.158 -33.420  1.00  0.00    -0.169 F 
ENDBRANCH   8  22
BRANCH   1  26
HETATM   26  C   UNL     1      -8.517   1.216 -31.974  1.00  0.00    -0.035 A 
HETATM   27  C   UNL     1      -9.375   0.130 -32.199  1.00  0.00     0.012 A 
HETATM   28  C   UNL     1     -10.386   0.191 -33.166  1.00  0.00     0.037 A 
HETATM   29  C   UNL     1     -10.545   1.336 -33.943  1.00  0.00     0.068 A 
HETATM   30  C   UNL     1      -9.674   2.408 -33.759  1.00  0.00     0.037 A 
HETATM   31  C   UNL     1      -8.677   2.355 -32.780  1.00  0.00     0.012 A 
BRANCH  29  32
HETATM   32  O   UNL     1     -11.492   1.518 -34.913  1.00  0.00    -0.356 OA
HETATM   33  C   UNL     1     -12.847   1.419 -34.494  1.00  0.00     0.210 C 
ENDBRANCH  29  32
ENDBRANCH   1  26
TORSDOF 6
ENDMDL
MODEL 4
REMARK VINA RESULT:      -8.9      3.387      9.664
REMARK  6 active torsions:
REMARK  status: ('A' for Active; 'I' for Inactive)
REMARK    1  A    between atoms: O_2  and  C_3 
REMARK    2  A    between atoms: C_6  and  C_7 
REMARK    3  A    between atoms: C_12  and  C_13 
REMARK       I    between atoms: C_13  and  N_14 
REMARK    4  A    between atoms: N_14  and  C_15 
REMARK    5  A    between atoms: C_15  and  C_16 
REMARK    6  A    between atoms: C_24  and  C_25 
ROOT
HETATM    1  C   UNL     1      -3.098   7.663 -31.975  1.00  0.00     0.118 C 
HETATM    2  N   UNL     1      -4.049   6.575 -31.790  1.00  0.00    -0.366 N 
HETATM    3  C   UNL     1      -3.664   5.285 -31.719  1.00  0.00     0.123 A 
HETATM    4  N   UNL     1      -2.371   4.903 -31.947  1.00  0.00    -0.240 N 
HETATM    5  N   UNL     1      -2.173   3.573 -31.855  1.00  0.00    -0.165 NA
HETATM    6  C   UNL     1      -3.392   3.094 -31.513  1.00  0.00     0.148 A 
HETATM    7  C   UNL     1      -4.352   4.138 -31.433  1.00  0.00     0.088 A 
HETATM    8  C   UNL     1      -1.297   5.811 -32.297  1.00  0.00     0.221 C 
HETATM    9  C   UNL     1      -1.851   7.181 -32.737  1.00  0.00     0.066 C 
HETATM   10  H   UNL     1      -4.974   6.860 -31.465  1.00  0.00     0.161 HD
ENDROOT
BRANCH   6  11
HETATM   11  C   UNL     1      -3.635   1.668 -31.251  1.00  0.00     0.272 C 
HETATM   12  N   UNL     1      -4.964   1.323 -31.289  1.00  0.00    -0.351 N 
HETATM   13  H   UNL     1      -5.623   2.075 -31.472  1.00  0.00     0.163 HD
HETATM   14  O   UNL     1      -2.726   0.871 -31.044  1.00  0.00    -0.266 OA
BRANCH  12  15
HETATM   15  C   UNL     1      -5.430  -0.029 -31.122  1.00  0.00     0.161 C 
BRANCH  15  16
HETATM   16  C   UNL     1      -5.609  -0.753 -32.435  1.00  0.00    -0.041 A 
HETATM   17  C   UNL     1      -4.589  -1.544 -32.987  1.00  0.00     0.009 A 
HETATM   18  C   UNL     1      -4.793  -2.243 -34.178  1.00  0.00     0.001 A 
HETATM   19  C   UNL     1      -6.026  -2.176 -34.824  1.00  0.00     0.000 A 
HETATM   20  C   UNL     1      -7.054  -1.411 -34.279  1.00  0.00     0.001 A 
HETATM   21  C   UNL     1      -6.849  -0.707 -33.090  1.00  0.00     0.009 A 
ENDBRANCH  15  16
ENDBRANCH  12  15
ENDBRANCH   6  11
BRANCH   8  22
HETATM   22  C   UNL     1      -0.279   5.889 -31.180  1.00  0.00     0.409 C 
HETATM   23  F   UNL     1      -0.784   5.628 -29.960  1.00  0.00    -0.169 F 
HETATM   24  F   UNL     1       0.755   5.038 -31.379  1.00  0.00    -0.169 F 
HETATM   25  F   UNL     1       0.264   7.133 -31.130  1.00  0.00    -0.169 F 
ENDBRANCH   8  22
BRANCH   1  26
HETATM   26  C   UNL     1      -2.811   8.414 -30.688  1.00  0.00    -0.035 A 
HETATM   27  C   UNL     1      -2.907   7.826 -29.418  1.00  0.00     0.012 A 
HETATM   28  C   UNL     1      -2.608   8.550 -28.258  1.00  0.00     0.037 A 
HETATM   29  C   UNL     1      -2.224   9.886 -28.343  1.00  0.00     0.068 A 
HETATM   30  C   UNL     1      -2.163  10.496 -29.595  1.00  0.00     0.037 A 
HETATM   31  C   UNL     1      -2.443   9.768 -30.756  1.00  0.00     0.012 A 
BRANCH  29  32
HETATM   32  O   UNL     1      -1.904  10.694 -27.288  1.00  0.00    -0.356 OA
HETATM   33  C   UNL     1      -0.560  10.628 -26.830  1.00  0.00     0.210 C 
ENDBRANCH  29  32
ENDBRANCH   1  26
TORSDOF 6
ENDMDL
MODEL 5
REMARK VINA RESULT:      -8.5      4.832      7.140
REMARK  6 active torsions:
REMARK  status: ('A' for Active; 'I' for Inactive)
REMARK    1  A    between atoms: O_2  and  C_3 
REMARK    2  A    between atoms: C_6  and  C_7 
REMARK    3  A    between atoms: C_12  and  C_13 
REMARK       I    between atoms: C_13  and  N_14 
REMARK    4  A    between atoms: N_14  and  C_15 
REMARK    5  A    between atoms: C_15  and  C_16 
REMARK    6  A    between atoms: C_24  and  C_25 
ROOT
HETATM    1  C   UNL     1      -7.775   0.377 -31.805  1.00  0.00     0.118 C 
HETATM    2  N   UNL     1      -9.153   0.435 -32.271  1.00  0.00    -0.366 N 
HETATM    3  C   UNL     1      -9.627   1.470 -32.993  1.00  0.00     0.123 A 
HETATM    4  N   UNL     1      -8.883   2.594 -33.222  1.00  0.00    -0.240 N 
HETATM    5  N   UNL     1      -9.525   3.533 -33.943  1.00  0.00    -0.165 NA
HETATM    6  C   UNL     1     -10.720   2.961 -34.218  1.00  0.00     0.148 A 
HETATM    7  C   UNL     1     -10.823   1.673 -33.626  1.00  0.00     0.088 A 
HETATM    8  C   UNL     1      -7.540   2.804 -32.717  1.00  0.00     0.221 C 
HETATM    9  C   UNL     1      -7.201   1.791 -31.605  1.00  0.00     0.066 C 
HETATM   10  H   UNL     1      -9.656  -0.453 -32.243  1.00  0.00     0.161 HD
ENDROOT
BRANCH   6  11
HETATM   11  C   UNL     1     -11.741   3.621 -35.044  1.00  0.00     0.272 C 
HETATM   12  N   UNL     1     -12.178   4.815 -34.524  1.00  0.00    -0.351 N 
HETATM   13  H   UNL     1     -11.772   5.099 -33.637  1.00  0.00     0.163 HD
HETATM   14  O   UNL     1     -12.137   3.150 -36.106  1.00  0.00    -0.266 OA
BRANCH  12  15
HETATM   15  C   UNL     1     -13.130   5.662 -35.194  1.00  0.00     0.161 C 
BRANCH  15  16
HETATM   16  C   UNL     1     -12.480   6.817 -35.917  1.00  0.00    -0.041 A 
HETATM   17  C   UNL     1     -11.123   7.131 -35.736  1.00  0.00     0.009 A 
HETATM   18  C   UNL     1     -10.531   8.174 -36.452  1.00  0.00     0.001 A 
HETATM   19  C   UNL     1     -11.282   8.903 -37.372  1.00  0.00     0.000 A 
HETATM   20  C   UNL     1     -12.623   8.591 -37.577  1.00  0.00     0.001 A 
HETATM   21  C   UNL     1     -13.218   7.552 -36.857  1.00  0.00     0.009 A 
ENDBRANCH  15  16
ENDBRANCH  12  15
ENDBRANCH   6  11
BRANCH   8  22
HETATM   22  C   UNL     1      -6.541   2.828 -33.853  1.00  0.00     0.409 C 
HETATM   23  F   UNL     1      -6.815   1.956 -34.841  1.00  0.00    -0.169 F 
HETATM   24  F   UNL     1      -6.445   4.056 -34.415  1.00  0.00    -0.169 F 
HETATM   25  F   UNL     1      -5.300   2.530 -33.389  1.00  0.00    -0.169 F 
ENDBRANCH   8  22
BRANCH   1  26
HETATM   26  C   UNL     1      -6.912  -0.551 -32.640  1.00  0.00    -0.035 A 
HETATM   27  C   UNL     1      -7.391  -1.239 -33.764  1.00  0.00     0.012 A 
HETATM   28  C   UNL     1      -6.553  -2.066 -34.521  1.00  0.00     0.037 A 
HETATM   29  C   UNL     1      -5.220  -2.237 -34.157  1.00  0.00     0.068 A 
HETATM   30  C   UNL     1      -4.740  -1.592 -33.018  1.00  0.00     0.037 A 
HETATM   31  C   UNL     1      -5.571  -0.750 -32.273  1.00  0.00     0.012 A 
BRANCH  29  32
HETATM   32  O   UNL     1      -4.305  -3.012 -34.813  1.00  0.00    -0.356 OA
HETATM   33  C   UNL     1      -3.842  -4.163 -34.118  1.00  0.00     0.210 C 
ENDBRANCH  29  32
ENDBRANCH   1  26
TORSDOF 6
ENDMDL
MODEL 6
REMARK VINA RESULT:      -8.4      1.772      2.435
REMARK  6 active torsions:
REMARK  status: ('A' for Active; 'I' for Inactive)
REMARK    1  A    between atoms: O_2  and  C_3 
REMARK    2  A    between atoms: C_6  and  C_7 
REMARK    3  A    between atoms: C_12  and  C_13 
REMARK       I    between atoms: C_13  and  N_14 
REMARK    4  A    between atoms: N_14  and  C_15 
REMARK    5  A    between atoms: C_15  and  C_16 
REMARK    6  A    between atoms: C_24  and  C_25 
ROOT
HETATM    1  C   UNL     1      -7.050   0.960 -33.577  1.00  0.00     0.118 C 
HETATM    2  N   UNL     1      -6.219   2.099 -33.942  1.00  0.00    -0.366 N 
HETATM    3  C   UNL     1      -5.569   2.841 -33.023  1.00  0.00     0.123 A 
HETATM    4  N   UNL     1      -5.752   2.654 -31.681  1.00  0.00    -0.240 N 
HETATM    5  N   UNL     1      -5.039   3.500 -30.912  1.00  0.00    -0.165 NA
HETATM    6  C   UNL     1      -4.338   4.231 -31.810  1.00  0.00     0.148 A 
HETATM    7  C   UNL     1      -4.658   3.854 -33.142  1.00  0.00     0.088 A 
HETATM    8  C   UNL     1      -6.652   1.675 -31.105  1.00  0.00     0.221 C 
HETATM    9  C   UNL     1      -7.635   1.135 -32.164  1.00  0.00     0.066 C 
HETATM   10  H   UNL     1      -5.955   2.143 -34.927  1.00  0.00     0.161 HD
ENDROOT
BRANCH   6  11
HETATM   11  C   UNL     1      -3.370   5.262 -31.407  1.00  0.00     0.272 C 
HETATM   12  N   UNL     1      -3.551   5.710 -30.122  1.00  0.00    -0.351 N 
HETATM   13  H   UNL     1      -4.326   5.305 -29.605  1.00  0.00     0.163 HD
HETATM   14  O   UNL     1      -2.478   5.655 -32.152  1.00  0.00    -0.266 OA
BRANCH  12  15
HETATM   15  C   UNL     1      -2.682   6.673 -29.496  1.00  0.00     0.161 C 
BRANCH  15  16
HETATM   16  C   UNL     1      -3.101   8.099 -29.762  1.00  0.00    -0.041 A 
HETATM   17  C   UNL     1      -2.184   9.069 -30.200  1.00  0.00     0.009 A 
HETATM   18  C   UNL     1      -2.603  10.369 -30.485  1.00  0.00     0.001 A 
HETATM   19  C   UNL     1      -3.947  10.714 -30.356  1.00  0.00     0.000 A 
HETATM   20  C   UNL     1      -4.872   9.758 -29.942  1.00  0.00     0.001 A 
HETATM   21  C   UNL     1      -4.453   8.458 -29.651  1.00  0.00     0.009 A 
ENDBRANCH  15  16
ENDBRANCH  12  15
ENDBRANCH   6  11
BRANCH   8  22
HETATM   22  C   UNL     1      -5.876   0.597 -30.381  1.00  0.00     0.409 C 
HETATM   23  F   UNL     1      -4.587   0.504 -30.757  1.00  0.00    -0.169 F 
HETATM   24  F   UNL     1      -5.891   0.779 -29.039  1.00  0.00    -0.169 F 
HETATM   25  F   UNL     1      -6.445  -0.616 -30.601  1.00  0.00    -0.169 F 
ENDBRANCH   8  22
BRANCH   1  26
HETATM   26  C   UNL     1      -6.362  -0.370 -33.824  1.00  0.00    -0.035 A 
HETATM   27  C   UNL     1      -4.985  -0.565 -33.648  1.00  0.00     0.012 A 
HETATM   28  C   UNL     1      -4.395  -1.817 -33.864  1.00  0.00     0.037 A 
HETATM   29  C   UNL     1      -5.171  -2.896 -34.278  1.00  0.00     0.068 A 
HETATM   30  C   UNL     1      -6.535  -2.707 -34.496  1.00  0.00     0.037 A 
HETATM   31  C   UNL     1      -7.128  -1.463 -34.263  1.00  0.00     0.012 A 
BRANCH  29  32
HETATM   32  O   UNL     1      -4.716  -4.163 -34.518  1.00  0.00    -0.356 OA
HETATM   33  C   UNL     1      -3.604  -4.588 -33.740  1.00  0.00     0.210 C 
ENDBRANCH  29  32
ENDBRANCH   1  26
TORSDOF 6
ENDMDL
MODEL 7
REMARK VINA RESULT:      -8.4      3.927      7.185
REMARK  6 active torsions:
REMARK  status: ('A' for Active; 'I' for Inactive)
REMARK    1  A    between atoms: O_2  and  C_3 
REMARK    2  A    between atoms: C_6  and  C_7 
REMARK    3  A    between atoms: C_12  and  C_13 
REMARK       I    between atoms: C_13  and  N_14 
REMARK    4  A    between atoms: N_14  and  C_15 
REMARK    5  A    between atoms: C_15  and  C_16 
REMARK    6  A    between atoms: C_24  and  C_25 
ROOT
HETATM    1  C   UNL     1      -9.714   4.295 -33.742  1.00  0.00     0.118 C 
HETATM    2  N   UNL     1      -8.524   3.651 -34.280  1.00  0.00    -0.366 N 
HETATM    3  C   UNL     1      -7.496   3.267 -33.497  1.00  0.00     0.123 A 
HETATM    4  N   UNL     1      -7.445   3.575 -32.166  1.00  0.00    -0.240 N 
HETATM    5  N   UNL     1      -6.335   3.130 -31.547  1.00  0.00    -0.165 NA
HETATM    6  C   UNL     1      -5.668   2.473 -32.524  1.00  0.00     0.148 A 
HETATM    7  C   UNL     1      -6.360   2.552 -33.762  1.00  0.00     0.088 A 
HETATM    8  C   UNL     1      -8.455   4.342 -31.463  1.00  0.00     0.221 C 
HETATM    9  C   UNL     1      -9.386   5.071 -32.453  1.00  0.00     0.066 C 
HETATM   10  H   UNL     1      -8.623   3.281 -35.226  1.00  0.00     0.161 HD
ENDROOT
BRANCH   6  11
HETATM   11  C   UNL     1      -4.400   1.769 -32.281  1.00  0.00     0.272 C 
HETATM   12  N   UNL     1      -4.562   0.444 -31.958  1.00  0.00    -0.351 N 
HETATM   13  H   UNL     1      -5.518   0.104 -31.907  1.00  0.00     0.163 HD
HETATM   14  O   UNL     1      -3.310   2.322 -32.383  1.00  0.00    -0.266 OA
BRANCH  12  15
HETATM   15  C   UNL     1      -3.457  -0.452 -31.739  1.00  0.00     0.161 C 
BRANCH  15  16
HETATM   16  C   UNL     1      -3.593  -1.748 -32.502  1.00  0.00    -0.041 A 
HETATM   17  C   UNL     1      -3.129  -2.965 -31.980  1.00  0.00     0.009 A 
HETATM   18  C   UNL     1      -3.308  -4.158 -32.683  1.00  0.00     0.001 A 
HETATM   19  C   UNL     1      -3.971  -4.153 -33.908  1.00  0.00     0.000 A 
HETATM   20  C   UNL     1      -4.455  -2.956 -34.430  1.00  0.00     0.001 A 
HETATM   21  C   UNL     1      -4.271  -1.761 -33.731  1.00  0.00     0.009 A 
ENDBRANCH  15  16
ENDBRANCH  12  15
ENDBRANCH   6  11
BRANCH   8  22
HETATM   22  C   UNL     1      -9.183   3.473 -30.461  1.00  0.00     0.409 C 
HETATM   23  F   UNL     1      -8.522   3.306 -29.300  1.00  0.00    -0.169 F 
HETATM   24  F   UNL     1     -10.407   3.967 -30.159  1.00  0.00    -0.169 F 
HETATM   25  F   UNL     1      -9.395   2.237 -30.981  1.00  0.00    -0.169 F 
ENDBRANCH   8  22
BRANCH   1  26
HETATM   26  C   UNL     1     -10.895   3.348 -33.635  1.00  0.00    -0.035 A 
HETATM   27  C   UNL     1     -10.847   2.012 -34.058  1.00  0.00     0.012 A 
HETATM   28  C   UNL     1     -11.954   1.165 -33.918  1.00  0.00     0.037 A 
HETATM   29  C   UNL     1     -13.139   1.645 -33.367  1.00  0.00     0.068 A 
HETATM   30  C   UNL     1     -13.215   2.982 -32.980  1.00  0.00     0.037 A 
HETATM   31  C   UNL     1     -12.104   3.822 -33.101  1.00  0.00     0.012 A 
BRANCH  29  32
HETATM   32  O   UNL     1     -14.282   0.920 -33.176  1.00  0.00    -0.356 OA
HETATM   33  C   UNL     1     -15.079   0.687 -34.331  1.00  0.00     0.210 C 
ENDBRANCH  29  32
ENDBRANCH   1  26
TORSDOF 6
ENDMDL
MODEL 8
REMARK VINA RESULT:      -8.3      2.788      8.812
REMARK  6 active torsions:
REMARK  status: ('A' for Active; 'I' for Inactive)
REMARK    1  A    between atoms: O_2  and  C_3 
REMARK    2  A    between atoms: C_6  and  C_7 
REMARK    3  A    between atoms: C_12  and  C_13 
REMARK       I    between atoms: C_13  and  N_14 
REMARK    4  A    between atoms: N_14  and  C_15 
REMARK    5  A    between atoms: C_15  and  C_16 
REMARK    6  A    between atoms: C_24  and  C_25 
ROOT
HETATM    1  C   UNL     1      -3.337   7.555 -31.381  1.00  0.00     0.118 C 
HETATM    2  N   UNL     1      -4.580   6.906 -30.987  1.00  0.00    -0.366 N 
HETATM    3  C   UNL     1      -4.979   5.732 -31.516  1.00  0.00     0.123 A 
HETATM    4  N   UNL     1      -4.311   5.141 -32.552  1.00  0.00    -0.240 N 
HETATM    5  N   UNL     1      -4.865   3.985 -32.967  1.00  0.00    -0.165 NA
HETATM    6  C   UNL     1      -5.912   3.816 -32.127  1.00  0.00     0.148 A 
HETATM    7  C   UNL     1      -6.022   4.900 -31.215  1.00  0.00     0.088 A 
HETATM    8  C   UNL     1      -3.136   5.698 -33.195  1.00  0.00     0.221 C 
HETATM    9  C   UNL     1      -2.955   7.184 -32.825  1.00  0.00     0.066 C 
HETATM   10  H   UNL     1      -4.992   7.252 -30.120  1.00  0.00     0.161 HD
ENDROOT
BRANCH   6  11
HETATM   11  C   UNL     1      -6.786   2.634 -32.181  1.00  0.00     0.272 C 
HETATM   12  N   UNL     1      -6.795   2.016 -33.407  1.00  0.00    -0.351 N 
HETATM   13  H   UNL     1      -6.225   2.440 -34.134  1.00  0.00     0.163 HD
HETATM   14  O   UNL     1      -7.420   2.238 -31.208  1.00  0.00    -0.266 OA
BRANCH  12  15
HETATM   15  C   UNL     1      -7.531   0.807 -33.672  1.00  0.00     0.161 C 
BRANCH  15  16
HETATM   16  C   UNL     1      -6.634  -0.384 -33.910  1.00  0.00    -0.041 A 
HETATM   17  C   UNL     1      -5.295  -0.397 -33.487  1.00  0.00     0.009 A 
HETATM   18  C   UNL     1      -4.498  -1.527 -33.676  1.00  0.00     0.001 A 
HETATM   19  C   UNL     1      -5.034  -2.668 -34.271  1.00  0.00     0.000 A 
HETATM   20  C   UNL     1      -6.366  -2.678 -34.678  1.00  0.00     0.001 A 
HETATM   21  C   UNL     1      -7.162  -1.545 -34.495  1.00  0.00     0.009 A 
ENDBRANCH  15  16
ENDBRANCH  12  15
ENDBRANCH   6  11
BRANCH   8  22
HETATM   22  C   UNL     1      -1.920   4.843 -32.916  1.00  0.00     0.409 C 
HETATM   23  F   UNL     1      -1.824   4.426 -31.640  1.00  0.00    -0.169 F 
HETATM   24  F   UNL     1      -1.887   3.741 -33.703  1.00  0.00    -0.169 F 
HETATM   25  F   UNL     1      -0.787   5.537 -33.197  1.00  0.00    -0.169 F 
ENDBRANCH   8  22
BRANCH   1  26
HETATM   26  C   UNL     1      -2.230   7.371 -30.360  1.00  0.00    -0.035 A 
HETATM   27  C   UNL     1      -2.474   7.121 -29.002  1.00  0.00     0.012 A 
HETATM   28  C   UNL     1      -1.421   6.932 -28.097  1.00  0.00     0.037 A 
HETATM   29  C   UNL     1      -0.101   7.009 -28.532  1.00  0.00     0.068 A 
HETATM   30  C   UNL     1       0.158   7.297 -29.871  1.00  0.00     0.037 A 
HETATM   31  C   UNL     1      -0.893   7.466 -30.778  1.00  0.00     0.012 A 
BRANCH  29  32
HETATM   32  O   UNL     1       1.009   6.841 -27.750  1.00  0.00    -0.356 OA
HETATM   33  C   UNL     1       1.472   7.995 -27.061  1.00  0.00     0.210 C 
ENDBRANCH  29  32
ENDBRANCH   1  26
TORSDOF 6
ENDMDL
MODEL 9
REMARK VINA RESULT:      -8.1      3.854      8.701
REMARK  6 active torsions:
REMARK  status: ('A' for Active; 'I' for Inactive)
REMARK    1  A    between atoms: O_2  and  C_3 
REMARK    2  A    between atoms: C_6  and  C_7 
REMARK    3  A    between atoms: C_12  and  C_13 
REMARK       I    between atoms: C_13  and  N_14 
REMARK    4  A    between atoms: N_14  and  C_15 
REMARK    5  A    between atoms: C_15  and  C_16 
REMARK    6  A    between atoms: C_24  and  C_25 
ROOT
HETATM    1  C   UNL     1      -4.440   1.697 -32.251  1.00  0.00     0.118 C 
HETATM    2  N   UNL     1      -5.382   1.040 -33.146  1.00  0.00    -0.366 N 
HETATM    3  C   UNL     1      -6.696   0.939 -32.863  1.00  0.00     0.123 A 
HETATM    4  N   UNL     1      -7.208   1.331 -31.657  1.00  0.00    -0.240 N 
HETATM    5  N   UNL     1      -8.536   1.137 -31.542  1.00  0.00    -0.165 NA
HETATM    6  C   UNL     1      -8.889   0.635 -32.748  1.00  0.00     0.148 A 
HETATM    7  C   UNL     1      -7.758   0.484 -33.595  1.00  0.00     0.088 A 
HETATM    8  C   UNL     1      -6.418   1.871 -30.568  1.00  0.00     0.221 C 
HETATM    9  C   UNL     1      -4.915   1.609 -30.790  1.00  0.00     0.066 C 
HETATM   10  H   UNL     1      -5.042   0.893 -34.098  1.00  0.00     0.161 HD
ENDROOT
BRANCH   6  11
HETATM   11  C   UNL     1     -10.282   0.317 -33.095  1.00  0.00     0.272 C 
HETATM   12  N   UNL     1     -10.884   1.273 -33.876  1.00  0.00    -0.351 N 
HETATM   13  H   UNL     1     -10.322   2.086 -34.111  1.00  0.00     0.163 HD
HETATM   14  O   UNL     1     -10.832  -0.718 -32.733  1.00  0.00    -0.266 OA
BRANCH  12  15
HETATM   15  C   UNL     1     -12.224   1.142 -34.385  1.00  0.00     0.161 C 
BRANCH  15  16
HETATM   16  C   UNL     1     -13.254   1.805 -33.502  1.00  0.00    -0.041 A 
HETATM   17  C   UNL     1     -13.005   3.034 -32.871  1.00  0.00     0.009 A 
HETATM   18  C   UNL     1     -13.989   3.651 -32.097  1.00  0.00     0.001 A 
HETATM   19  C   UNL     1     -15.242   3.058 -31.959  1.00  0.00     0.000 A 
HETATM   20  C   UNL     1     -15.511   1.849 -32.594  1.00  0.00     0.001 A 
HETATM   21  C   UNL     1     -14.525   1.228 -33.364  1.00  0.00     0.009 A 
ENDBRANCH  15  16
ENDBRANCH  12  15
ENDBRANCH   6  11
BRANCH   8  22
HETATM   22  C   UNL     1      -6.761   3.325 -30.331  1.00  0.00     0.409 C 
HETATM   23  F   UNL     1      -7.701   3.520 -29.388  1.00  0.00    -0.169 F 
HETATM   24  F   UNL     1      -5.674   4.048 -29.970  1.00  0.00    -0.169 F 
HETATM   25  F   UNL     1      -7.221   3.889 -31.477  1.00  0.00    -0.169 F 
ENDBRANCH   8  22
BRANCH   1  26
HETATM   26  C   UNL     1      -4.064   3.092 -32.718  1.00  0.00    -0.035 A 
HETATM   27  C   UNL     1      -4.879   3.865 -33.556  1.00  0.00     0.012 A 
HETATM   28  C   UNL     1      -4.504   5.158 -33.943  1.00  0.00     0.037 A 
HETATM   29  C   UNL     1      -3.294   5.696 -33.512  1.00  0.00     0.068 A 
HETATM   30  C   UNL     1      -2.455   4.923 -32.711  1.00  0.00     0.037 A 
HETATM   31  C   UNL     1      -2.837   3.640 -32.309  1.00  0.00     0.012 A 
BRANCH  29  32
HETATM   32  O   UNL     1      -2.820   6.942 -33.816  1.00  0.00    -0.356 OA
HETATM   33  C   UNL     1      -1.498   7.235 -33.381  1.00  0.00     0.210 C 
ENDBRANCH  29  32
ENDBRANCH   1  26
TORSDOF 6
ENDMDL
MODEL 10
REMARK VINA RESULT:      -8.1      4.762      8.061
REMARK  6 active torsions:
REMARK  status: ('A' for Active; 'I' for Inactive)
REMARK    1  A    between atoms: O_2  and  C_3 
REMARK    2  A    between atoms: C_6  and  C_7 
REMARK    3  A    between atoms: C_12  and  C_13 
REMARK       I    between atoms: C_13  and  N_14 
REMARK    4  A    between atoms: N_14  and  C_15 
REMARK    5  A    between atoms: C_15  and  C_16 
REMARK    6  A    between atoms: C_24  and  C_25 
ROOT
HETATM    1  C   UNL     1      -6.816   0.643 -31.202  1.00  0.00     0.118 C 
HETATM    2  N   UNL     1      -8.248   0.892 -31.100  1.00  0.00    -0.366 N 
HETATM    3  C   UNL     1      -8.822   2.007 -31.594  1.00  0.00     0.123 A 
HETATM    4  N   UNL     1      -8.082   3.037 -32.105  1.00  0.00    -0.240 N 
HETATM    5  N   UNL     1      -8.822   4.078 -32.533  1.00  0.00    -0.165 NA
HETATM    6  C   UNL     1     -10.096   3.672 -32.319  1.00  0.00     0.148 A 
HETATM    7  C   UNL     1     -10.131   2.385 -31.718  1.00  0.00     0.088 A 
HETATM    8  C   UNL     1      -6.634   3.057 -32.161  1.00  0.00     0.221 C 
HETATM    9  C   UNL     1      -6.029   1.965 -31.255  1.00  0.00     0.066 C 
HETATM   10  H   UNL     1      -8.813   0.074 -30.870  1.00  0.00     0.161 HD
ENDROOT
BRANCH   6  11
HETATM   11  C   UNL     1     -11.259   4.489 -32.693  1.00  0.00     0.272 C 
HETATM   12  N   UNL     1     -12.288   4.424 -31.786  1.00  0.00    -0.351 N 
HETATM   13  H   UNL     1     -12.146   3.820 -30.981  1.00  0.00     0.163 HD
HETATM   14  O   UNL     1     -11.284   5.175 -33.710  1.00  0.00    -0.266 OA
BRANCH  12  15
HETATM   15  C   UNL     1     -13.501   5.190 -31.917  1.00  0.00     0.161 C 
BRANCH  15  16
HETATM   16  C   UNL     1     -14.739   4.326 -31.935  1.00  0.00    -0.041 A 
HETATM   17  C   UNL     1     -16.028   4.883 -31.911  1.00  0.00     0.009 A 
HETATM   18  C   UNL     1     -17.159   4.067 -31.977  1.00  0.00     0.001 A 
HETATM   19  C   UNL     1     -17.017   2.685 -32.087  1.00  0.00     0.000 A 
HETATM   20  C   UNL     1     -15.745   2.119 -32.132  1.00  0.00     0.001 A 
HETATM   21  C   UNL     1     -14.614   2.934 -32.060  1.00  0.00     0.009 A 
ENDBRANCH  15  16
ENDBRANCH  12  15
ENDBRANCH   6  11
BRANCH   8  22
HETATM   22  C   UNL     1      -6.154   3.001 -33.595  1.00  0.00     0.409 C 
HETATM   23  F   UNL     1      -6.938   2.267 -34.406  1.00  0.00    -0.169 F 
HETATM   24  F   UNL     1      -6.053   4.235 -34.142  1.00  0.00    -0.169 F 
HETATM   25  F   UNL     1      -4.908   2.464 -33.650  1.00  0.00    -0.169 F 
ENDBRANCH   8  22
BRANCH   1  26
HETATM   26  C   UNL     1      -6.471  -0.351 -32.295  1.00  0.00    -0.035 A 
HETATM   27  C   UNL     1      -7.394  -0.781 -33.259  1.00  0.00     0.012 A 
HETATM   28  C   UNL     1      -7.025  -1.682 -34.267  1.00  0.00     0.037 A 
HETATM   29  C   UNL     1      -5.728  -2.186 -34.317  1.00  0.00     0.068 A 
HETATM   30  C   UNL     1      -4.811  -1.799 -33.341  1.00  0.00     0.037 A 
HETATM   31  C   UNL     1      -5.173  -0.885 -32.347  1.00  0.00     0.012 A 
BRANCH  29  32
HETATM   32  O   UNL     1      -5.248  -3.064 -35.248  1.00  0.00    -0.356 OA
HETATM   33  C   UNL     1      -5.435  -4.445 -34.964  1.00  0.00     0.210 C 
ENDBRANCH  29  32
ENDBRANCH   1  26
TORSDOF 6
ENDMDL
