MODEL 1
REMARK VINA RESULT:      -8.9      0.000      0.000
REMARK  2 active torsions:
REMARK  status: ('A' for Active; 'I' for Inactive)
REMARK    1  A    between atoms: C_3  and  C_4 
REMARK       I    between atoms: C_4  and  N_5 
REMARK    2  A    between atoms: N_5  and  N_6 
ROOT
HETATM    1  N   UNL     1      -9.149  -0.325 -32.947  1.00  0.00    -0.282 N 
HETATM    2  C   UNL     1      -7.894  -0.022 -32.633  1.00  0.00     0.127 C 
HETATM    3  C   UNL     1      -6.789  -0.837 -33.199  1.00  0.00     0.015 A 
HETATM    4  C   UNL     1      -5.540  -0.833 -32.548  1.00  0.00    -0.042 A 
HETATM    5  C   UNL     1      -4.485  -1.622 -33.024  1.00  0.00     0.008 A 
HETATM    6  C   UNL     1      -4.652  -2.385 -34.177  1.00  0.00     0.001 A 
HETATM    7  C   UNL     1      -5.867  -2.365 -34.855  1.00  0.00     0.001 A 
HETATM    8  C   UNL     1      -6.929  -1.596 -34.374  1.00  0.00     0.016 A 
HETATM    9  C   UNL     1      -5.367   0.008 -31.309  1.00  0.00     0.069 C 
HETATM   10  C   UNL     1      -6.205   1.302 -31.389  1.00  0.00     0.028 C 
HETATM   11  C   UNL     1      -6.284   1.950 -30.001  1.00  0.00     0.038 C 
HETATM   12  C   UNL     1      -5.637   2.309 -32.395  1.00  0.00     0.038 C 
HETATM   13  N   UNL     1      -7.598   0.975 -31.801  1.00  0.00    -0.366 N 
HETATM   14  H   UNL     1      -8.355   1.506 -31.403  1.00  0.00     0.162 HD
HETATM   15  H   UNL     1      -9.300  -1.192 -33.478  1.00  0.00     0.188 HD
ENDROOT
BRANCH   1  16
HETATM   16  N   UNL     1     -10.258   0.327 -32.609  1.00  0.00    -0.264 N 
HETATM   17  C   UNL     1     -10.783   1.152 -33.594  1.00  0.00     0.270 C 
HETATM   18  O   UNL     1     -10.227   1.260 -34.685  1.00  0.00    -0.266 OA
HETATM   19  H   UNL     1     -10.623   0.333 -31.665  1.00  0.00     0.190 HD
BRANCH  17  20
HETATM   20  C   UNL     1     -11.991   1.936 -33.241  1.00  0.00     0.039 A 
HETATM   21  C   UNL     1     -13.307   1.447 -33.371  1.00  0.00    -0.046 A 
HETATM   22  C   UNL     1     -13.647   0.101 -33.947  1.00  0.00     0.049 C 
HETATM   23  C   UNL     1     -14.367   2.272 -32.958  1.00  0.00     0.007 A 
HETATM   24  C   UNL     1     -14.130   3.561 -32.474  1.00  0.00     0.001 A 
HETATM   25  C   UNL     1     -12.830   4.050 -32.395  1.00  0.00     0.001 A 
HETATM   26  C   UNL     1     -11.762   3.240 -32.778  1.00  0.00     0.017 A 
ENDBRANCH  17  20
ENDBRANCH   1  16
TORSDOF 2
ENDMDL
MODEL 2
REMARK VINA RESULT:      -8.4      4.394      8.066
REMARK  2 active torsions:
REMARK  status: ('A' for Active; 'I' for Inactive)
REMARK    1  A    between atoms: C_3  and  C_4 
REMARK       I    between atoms: C_4  and  N_5 
REMARK    2  A    between atoms: N_5  and  N_6 
ROOT
HETATM    1  N   UNL     1      -3.466   2.160 -32.056  1.00  0.00    -0.282 N 
HETATM    2  C   UNL     1      -4.749   1.963 -32.339  1.00  0.00     0.127 C 
HETATM    3  C   UNL     1      -5.152   0.720 -33.044  1.00  0.00     0.015 A 
HETATM    4  C   UNL     1      -6.378   0.700 -33.738  1.00  0.00    -0.042 A 
HETATM    5  C   UNL     1      -6.775  -0.438 -34.451  1.00  0.00     0.008 A 
HETATM    6  C   UNL     1      -5.977  -1.579 -34.443  1.00  0.00     0.001 A 
HETATM    7  C   UNL     1      -4.784  -1.589 -33.726  1.00  0.00     0.001 A 
HETATM    8  C   UNL     1      -4.373  -0.450 -33.029  1.00  0.00     0.016 A 
HETATM    9  C   UNL     1      -7.241   1.936 -33.728  1.00  0.00     0.069 C 
HETATM   10  C   UNL     1      -7.120   2.693 -32.389  1.00  0.00     0.028 C 
HETATM   11  C   UNL     1      -7.718   4.097 -32.537  1.00  0.00     0.038 C 
HETATM   12  C   UNL     1      -7.809   1.960 -31.234  1.00  0.00     0.038 C 
HETATM   13  N   UNL     1      -5.683   2.863 -32.035  1.00  0.00    -0.366 N 
HETATM   14  H   UNL     1      -5.397   3.714 -31.580  1.00  0.00     0.162 HD
HETATM   15  H   UNL     1      -2.794   1.489 -32.449  1.00  0.00     0.188 HD
ENDROOT
BRANCH   1  16
HETATM   16  N   UNL     1      -2.924   3.161 -31.368  1.00  0.00    -0.264 N 
HETATM   17  C   UNL     1      -2.323   4.149 -32.134  1.00  0.00     0.270 C 
HETATM   18  O   UNL     1      -2.298   4.067 -33.360  1.00  0.00    -0.266 OA
HETATM   19  H   UNL     1      -2.832   3.144 -30.359  1.00  0.00     0.190 HD
BRANCH  17  20
HETATM   20  C   UNL     1      -1.662   5.258 -31.403  1.00  0.00     0.039 A 
HETATM   21  C   UNL     1      -2.362   6.249 -30.685  1.00  0.00    -0.046 A 
HETATM   22  C   UNL     1      -3.862   6.343 -30.631  1.00  0.00     0.049 C 
HETATM   23  C   UNL     1      -1.618   7.221 -29.995  1.00  0.00     0.007 A 
HETATM   24  C   UNL     1      -0.222   7.236 -30.055  1.00  0.00     0.001 A 
HETATM   25  C   UNL     1       0.455   6.280 -30.805  1.00  0.00     0.001 A 
HETATM   26  C   UNL     1      -0.262   5.294 -31.479  1.00  0.00     0.017 A 
ENDBRANCH  17  20
ENDBRANCH   1  16
TORSDOF 2
ENDMDL
MODEL 3
REMARK VINA RESULT:      -8.3      2.164      7.565
REMARK  2 active torsions:
REMARK  status: ('A' for Active; 'I' for Inactive)
REMARK    1  A    between atoms: C_3  and  C_4 
REMARK       I    between atoms: C_4  and  N_5 
REMARK    2  A    between atoms: N_5  and  N_6 
ROOT
HETATM    1  N   UNL     1      -8.037   1.661 -34.257  1.00  0.00    -0.282 N 
HETATM    2  C   UNL     1      -9.309   2.032 -34.161  1.00  0.00     0.127 C 
HETATM    3  C   UNL     1      -9.628   3.445 -33.832  1.00  0.00     0.015 A 
HETATM    4  C   UNL     1     -10.893   3.746 -33.291  1.00  0.00    -0.042 A 
HETATM    5  C   UNL     1     -11.218   5.059 -32.926  1.00  0.00     0.008 A 
HETATM    6  C   UNL     1     -10.304   6.087 -33.139  1.00  0.00     0.001 A 
HETATM    7  C   UNL     1      -9.066   5.811 -33.714  1.00  0.00     0.001 A 
HETATM    8  C   UNL     1      -8.729   4.501 -34.061  1.00  0.00     0.016 A 
HETATM    9  C   UNL     1     -11.880   2.627 -33.078  1.00  0.00     0.069 C 
HETATM   10  C   UNL     1     -11.741   1.543 -34.167  1.00  0.00     0.028 C 
HETATM   11  C   UNL     1     -12.496   0.280 -33.735  1.00  0.00     0.038 C 
HETATM   12  C   UNL     1     -12.260   2.009 -35.532  1.00  0.00     0.038 C 
HETATM   13  N   UNL     1     -10.309   1.167 -34.324  1.00  0.00    -0.366 N 
HETATM   14  H   UNL     1     -10.082   0.206 -34.521  1.00  0.00     0.162 HD
HETATM   15  H   UNL     1      -7.328   2.351 -33.979  1.00  0.00     0.188 HD
ENDROOT
BRANCH   1  16
HETATM   16  N   UNL     1      -7.555   0.475 -34.617  1.00  0.00    -0.264 N 
HETATM   17  C   UNL     1      -6.906  -0.230 -33.614  1.00  0.00     0.270 C 
HETATM   18  O   UNL     1      -6.789   0.245 -32.486  1.00  0.00    -0.266 OA
HETATM   19  H   UNL     1      -7.539   0.160 -35.580  1.00  0.00     0.190 HD
BRANCH  17  20
HETATM   20  C   UNL     1      -6.310  -1.536 -33.987  1.00  0.00     0.039 A 
HETATM   21  C   UNL     1      -4.934  -1.826 -33.885  1.00  0.00    -0.046 A 
HETATM   22  C   UNL     1      -3.897  -0.826 -33.454  1.00  0.00     0.049 C 
HETATM   23  C   UNL     1      -4.499  -3.118 -34.226  1.00  0.00     0.007 A 
HETATM   24  C   UNL     1      -5.397  -4.078 -34.698  1.00  0.00     0.001 A 
HETATM   25  C   UNL     1      -6.745  -3.766 -34.839  1.00  0.00     0.001 A 
HETATM   26  C   UNL     1      -7.202  -2.497 -34.485  1.00  0.00     0.017 A 
ENDBRANCH  17  20
ENDBRANCH   1  16
TORSDOF 2
ENDMDL
MODEL 4
REMARK VINA RESULT:      -8.3      1.873      7.022
REMARK  2 active torsions:
REMARK  status: ('A' for Active; 'I' for Inactive)
REMARK    1  A    between atoms: C_3  and  C_4 
REMARK       I    between atoms: C_4  and  N_5 
REMARK    2  A    between atoms: N_5  and  N_6 
ROOT
HETATM    1  N   UNL     1      -8.591   0.238 -33.350  1.00  0.00    -0.282 N 
HETATM    2  C   UNL     1      -8.397   1.422 -32.779  1.00  0.00     0.127 C 
HETATM    3  C   UNL     1      -9.449   2.464 -32.898  1.00  0.00     0.015 A 
HETATM    4  C   UNL     1      -9.090   3.814 -32.713  1.00  0.00    -0.042 A 
HETATM    5  C   UNL     1     -10.043   4.831 -32.860  1.00  0.00     0.008 A 
HETATM    6  C   UNL     1     -11.366   4.509 -33.147  1.00  0.00     0.001 A 
HETATM    7  C   UNL     1     -11.744   3.177 -33.290  1.00  0.00     0.001 A 
HETATM    8  C   UNL     1     -10.795   2.159 -33.164  1.00  0.00     0.016 A 
HETATM    9  C   UNL     1      -7.657   4.150 -32.388  1.00  0.00     0.069 C 
HETATM   10  C   UNL     1      -7.006   3.049 -31.525  1.00  0.00     0.028 C 
HETATM   11  C   UNL     1      -5.485   3.242 -31.508  1.00  0.00     0.038 C 
HETATM   12  C   UNL     1      -7.538   3.037 -30.088  1.00  0.00     0.038 C 
HETATM   13  N   UNL     1      -7.273   1.713 -32.126  1.00  0.00    -0.366 N 
HETATM   14  H   UNL     1      -6.555   1.009 -32.072  1.00  0.00     0.162 HD
HETATM   15  H   UNL     1      -9.418   0.141 -33.953  1.00  0.00     0.188 HD
ENDROOT
BRANCH   1  16
HETATM   16  N   UNL     1      -7.812  -0.838 -33.288  1.00  0.00    -0.264 N 
HETATM   17  C   UNL     1      -7.033  -1.071 -34.412  1.00  0.00     0.270 C 
HETATM   18  O   UNL     1      -7.095  -0.324 -35.386  1.00  0.00    -0.266 OA
HETATM   19  H   UNL     1      -7.875  -1.516 -32.538  1.00  0.00     0.190 HD
BRANCH  17  20
HETATM   20  C   UNL     1      -6.188  -2.289 -34.404  1.00  0.00     0.039 A 
HETATM   21  C   UNL     1      -4.844  -2.306 -33.978  1.00  0.00    -0.046 A 
HETATM   22  C   UNL     1      -4.086  -1.081 -33.549  1.00  0.00     0.049 C 
HETATM   23  C   UNL     1      -4.163  -3.536 -33.974  1.00  0.00     0.007 A 
HETATM   24  C   UNL     1      -4.783  -4.704 -34.423  1.00  0.00     0.001 A 
HETATM   25  C   UNL     1      -6.094  -4.666 -34.885  1.00  0.00     0.001 A 
HETATM   26  C   UNL     1      -6.796  -3.462 -34.877  1.00  0.00     0.017 A 
ENDBRANCH  17  20
ENDBRANCH   1  16
TORSDOF 2
ENDMDL
MODEL 5
REMARK VINA RESULT:      -8.2      1.028      2.018
REMARK  2 active torsions:
REMARK  status: ('A' for Active; 'I' for Inactive)
REMARK    1  A    between atoms: C_3  and  C_4 
REMARK       I    between atoms: C_4  and  N_5 
REMARK    2  A    between atoms: N_5  and  N_6 
ROOT
HETATM    1  N   UNL     1      -8.808  -0.138 -32.482  1.00  0.00    -0.282 N 
HETATM    2  C   UNL     1      -7.795   0.610 -32.059  1.00  0.00     0.127 C 
HETATM    3  C   UNL     1      -6.404   0.158 -32.321  1.00  0.00     0.015 A 
HETATM    4  C   UNL     1      -5.364   0.666 -31.518  1.00  0.00    -0.042 A 
HETATM    5  C   UNL     1      -4.045   0.233 -31.703  1.00  0.00     0.008 A 
HETATM    6  C   UNL     1      -3.745  -0.674 -32.716  1.00  0.00     0.001 A 
HETATM    7  C   UNL     1      -4.756  -1.151 -33.545  1.00  0.00     0.001 A 
HETATM    8  C   UNL     1      -6.076  -0.738 -33.353  1.00  0.00     0.016 A 
HETATM    9  C   UNL     1      -5.699   1.658 -30.433  1.00  0.00     0.069 C 
HETATM   10  C   UNL     1      -6.872   2.569 -30.849  1.00  0.00     0.028 C 
HETATM   11  C   UNL     1      -7.407   3.312 -29.620  1.00  0.00     0.038 C 
HETATM   12  C   UNL     1      -6.476   3.581 -31.930  1.00  0.00     0.038 C 
HETATM   13  N   UNL     1      -7.989   1.740 -31.382  1.00  0.00    -0.366 N 
HETATM   14  H   UNL     1      -8.934   2.025 -31.188  1.00  0.00     0.162 HD
HETATM   15  H   UNL     1      -8.577  -1.062 -32.869  1.00  0.00     0.188 HD
ENDROOT
BRANCH   1  16
HETATM   16  N   UNL     1     -10.109   0.132 -32.416  1.00  0.00    -0.264 N 
HETATM   17  C   UNL     1     -10.647   0.730 -33.546  1.00  0.00     0.270 C 
HETATM   18  O   UNL     1      -9.940   0.991 -34.517  1.00  0.00    -0.266 OA
HETATM   19  H   UNL     1     -10.645   0.038 -31.562  1.00  0.00     0.190 HD
BRANCH  17  20
HETATM   20  C   UNL     1     -12.084   1.094 -33.495  1.00  0.00     0.039 A 
HETATM   21  C   UNL     1     -12.554   2.382 -33.164  1.00  0.00    -0.046 A 
HETATM   22  C   UNL     1     -11.660   3.520 -32.757  1.00  0.00     0.049 C 
HETATM   23  C   UNL     1     -13.940   2.613 -33.196  1.00  0.00     0.007 A 
HETATM   24  C   UNL     1     -14.834   1.585 -33.501  1.00  0.00     0.001 A 
HETATM   25  C   UNL     1     -14.361   0.306 -33.779  1.00  0.00     0.001 A 
HETATM   26  C   UNL     1     -12.990   0.060 -33.775  1.00  0.00     0.017 A 
ENDBRANCH  17  20
ENDBRANCH   1  16
TORSDOF 2
ENDMDL
MODEL 6
REMARK VINA RESULT:      -8.2      4.555      6.750
REMARK  2 active torsions:
REMARK  status: ('A' for Active; 'I' for Inactive)
REMARK    1  A    between atoms: C_3  and  C_4 
REMARK       I    between atoms: C_4  and  N_5 
REMARK    2  A    between atoms: N_5  and  N_6 
ROOT
HETATM    1  N   UNL     1      -3.986   1.011 -32.565  1.00  0.00    -0.282 N 
HETATM    2  C   UNL     1      -4.731   0.048 -33.098  1.00  0.00     0.127 C 
HETATM    3  C   UNL     1      -4.278  -1.361 -32.988  1.00  0.00     0.015 A 
HETATM    4  C   UNL     1      -4.781  -2.309 -33.902  1.00  0.00    -0.042 A 
HETATM    5  C   UNL     1      -4.346  -3.639 -33.861  1.00  0.00     0.008 A 
HETATM    6  C   UNL     1      -3.442  -4.047 -32.884  1.00  0.00     0.001 A 
HETATM    7  C   UNL     1      -2.970  -3.132 -31.947  1.00  0.00     0.001 A 
HETATM    8  C   UNL     1      -3.384  -1.799 -31.996  1.00  0.00     0.016 A 
HETATM    9  C   UNL     1      -5.771  -1.859 -34.947  1.00  0.00     0.069 C 
HETATM   10  C   UNL     1      -6.686  -0.740 -34.407  1.00  0.00     0.028 C 
HETATM   11  C   UNL     1      -7.426  -0.074 -35.574  1.00  0.00     0.038 C 
HETATM   12  C   UNL     1      -7.700  -1.253 -33.380  1.00  0.00     0.038 C 
HETATM   13  N   UNL     1      -5.860   0.314 -33.753  1.00  0.00    -0.366 N 
HETATM   14  H   UNL     1      -6.146   1.274 -33.844  1.00  0.00     0.162 HD
HETATM   15  H   UNL     1      -3.064   0.740 -32.203  1.00  0.00     0.188 HD
ENDROOT
BRANCH   1  16
HETATM   16  N   UNL     1      -4.260   2.311 -32.489  1.00  0.00    -0.264 N 
HETATM   17  C   UNL     1      -3.410   3.048 -31.677  1.00  0.00     0.270 C 
HETATM   18  O   UNL     1      -2.489   2.504 -31.072  1.00  0.00    -0.266 OA
HETATM   19  H   UNL     1      -5.100   2.717 -32.882  1.00  0.00     0.190 HD
BRANCH  17  20
HETATM   20  C   UNL     1      -3.710   4.493 -31.526  1.00  0.00     0.039 A 
HETATM   21  C   UNL     1      -4.676   5.002 -30.635  1.00  0.00    -0.046 A 
HETATM   22  C   UNL     1      -5.566   4.141 -29.783  1.00  0.00     0.049 C 
HETATM   23  C   UNL     1      -4.834   6.396 -30.550  1.00  0.00     0.007 A 
HETATM   24  C   UNL     1      -4.088   7.255 -31.360  1.00  0.00     0.001 A 
HETATM   25  C   UNL     1      -3.171   6.738 -32.270  1.00  0.00     0.001 A 
HETATM   26  C   UNL     1      -2.982   5.360 -32.354  1.00  0.00     0.017 A 
ENDBRANCH  17  20
ENDBRANCH   1  16
TORSDOF 2
ENDMDL
MODEL 7
REMARK VINA RESULT:      -8.2      3.503      7.044
REMARK  2 active torsions:
REMARK  status: ('A' for Active; 'I' for Inactive)
REMARK    1  A    between atoms: C_3  and  C_4 
REMARK       I    between atoms: C_4  and  N_5 
REMARK    2  A    between atoms: N_5  and  N_6 
ROOT
HETATM    1  N   UNL     1      -4.748   1.860 -33.064  1.00  0.00    -0.282 N 
HETATM    2  C   UNL     1      -5.848   1.174 -33.356  1.00  0.00     0.127 C 
HETATM    3  C   UNL     1      -5.728  -0.255 -33.743  1.00  0.00     0.015 A 
HETATM    4  C   UNL     1      -6.775  -0.850 -34.474  1.00  0.00    -0.042 A 
HETATM    5  C   UNL     1      -6.683  -2.182 -34.896  1.00  0.00     0.008 A 
HETATM    6  C   UNL     1      -5.569  -2.945 -34.555  1.00  0.00     0.001 A 
HETATM    7  C   UNL     1      -4.546  -2.383 -33.796  1.00  0.00     0.001 A 
HETATM    8  C   UNL     1      -4.624  -1.049 -33.389  1.00  0.00     0.016 A 
HETATM    9  C   UNL     1      -7.983  -0.018 -34.825  1.00  0.00     0.069 C 
HETATM   10  C   UNL     1      -8.297   1.009 -33.718  1.00  0.00     0.028 C 
HETATM   11  C   UNL     1      -9.289   2.051 -34.249  1.00  0.00     0.038 C 
HETATM   12  C   UNL     1      -8.865   0.357 -32.453  1.00  0.00     0.038 C 
HETATM   13  N   UNL     1      -7.054   1.739 -33.341  1.00  0.00    -0.366 N 
HETATM   14  H   UNL     1      -7.123   2.714 -33.102  1.00  0.00     0.162 HD
HETATM   15  H   UNL     1      -3.848   1.394 -33.236  1.00  0.00     0.188 HD
ENDROOT
BRANCH   1  16
HETATM   16  N   UNL     1      -4.657   3.111 -32.623  1.00  0.00    -0.264 N 
HETATM   17  C   UNL     1      -3.643   3.343 -31.705  1.00  0.00     0.270 C 
HETATM   18  O   UNL     1      -2.909   2.430 -31.334  1.00  0.00    -0.266 OA
HETATM   19  H   UNL     1      -5.352   3.817 -32.832  1.00  0.00     0.190 HD
BRANCH  17  20
HETATM   20  C   UNL     1      -3.538   4.715 -31.151  1.00  0.00     0.039 A 
HETATM   21  C   UNL     1      -2.414   5.547 -31.328  1.00  0.00    -0.046 A 
HETATM   22  C   UNL     1      -1.160   5.121 -32.040  1.00  0.00     0.049 C 
HETATM   23  C   UNL     1      -2.456   6.845 -30.792  1.00  0.00     0.007 A 
HETATM   24  C   UNL     1      -3.561   7.287 -30.062  1.00  0.00     0.001 A 
HETATM   25  C   UNL     1      -4.645   6.440 -29.853  1.00  0.00     0.001 A 
HETATM   26  C   UNL     1      -4.634   5.156 -30.395  1.00  0.00     0.017 A 
ENDBRANCH  17  20
ENDBRANCH   1  16
TORSDOF 2
ENDMDL
MODEL 8
REMARK VINA RESULT:      -8.1      4.917      7.784
REMARK  2 active torsions:
REMARK  status: ('A' for Active; 'I' for Inactive)
REMARK    1  A    between atoms: C_3  and  C_4 
REMARK       I    between atoms: C_4  and  N_5 
REMARK    2  A    between atoms: N_5  and  N_6 
ROOT
HETATM    1  N   UNL     1      -5.210   2.376 -32.139  1.00  0.00    -0.282 N 
HETATM    2  C   UNL     1      -4.508   3.503 -32.179  1.00  0.00     0.127 C 
HETATM    3  C   UNL     1      -4.787   4.565 -31.179  1.00  0.00     0.015 A 
HETATM    4  C   UNL     1      -4.403   5.889 -31.471  1.00  0.00    -0.042 A 
HETATM    5  C   UNL     1      -4.687   6.927 -30.575  1.00  0.00     0.008 A 
HETATM    6  C   UNL     1      -5.315   6.649 -29.364  1.00  0.00     0.001 A 
HETATM    7  C   UNL     1      -5.662   5.340 -29.043  1.00  0.00     0.001 A 
HETATM    8  C   UNL     1      -5.399   4.303 -29.941  1.00  0.00     0.016 A 
HETATM    9  C   UNL     1      -3.710   6.175 -32.779  1.00  0.00     0.069 C 
HETATM   10  C   UNL     1      -2.814   4.994 -33.209  1.00  0.00     0.028 C 
HETATM   11  C   UNL     1      -2.410   5.164 -34.678  1.00  0.00     0.038 C 
HETATM   12  C   UNL     1      -1.557   4.864 -32.342  1.00  0.00     0.038 C 
HETATM   13  N   UNL     1      -3.578   3.720 -33.107  1.00  0.00    -0.366 N 
HETATM   14  H   UNL     1      -3.413   3.004 -33.796  1.00  0.00     0.162 HD
HETATM   15  H   UNL     1      -6.003   2.343 -31.485  1.00  0.00     0.188 HD
ENDROOT
BRANCH   1  16
HETATM   16  N   UNL     1      -5.055   1.287 -32.888  1.00  0.00    -0.264 N 
HETATM   17  C   UNL     1      -5.604   0.125 -32.365  1.00  0.00     0.270 C 
HETATM   18  O   UNL     1      -6.173   0.134 -31.276  1.00  0.00    -0.266 OA
HETATM   19  H   UNL     1      -4.467   1.270 -33.713  1.00  0.00     0.190 HD
BRANCH  17  20
HETATM   20  C   UNL     1      -5.410  -1.121 -33.145  1.00  0.00     0.039 A 
HETATM   21  C   UNL     1      -4.275  -1.950 -33.027  1.00  0.00    -0.046 A 
HETATM   22  C   UNL     1      -3.097  -1.635 -32.148  1.00  0.00     0.049 C 
HETATM   23  C   UNL     1      -4.231  -3.130 -33.788  1.00  0.00     0.007 A 
HETATM   24  C   UNL     1      -5.261  -3.453 -34.676  1.00  0.00     0.001 A 
HETATM   25  C   UNL     1      -6.353  -2.603 -34.819  1.00  0.00     0.001 A 
HETATM   26  C   UNL     1      -6.428  -1.439 -34.057  1.00  0.00     0.017 A 
ENDBRANCH  17  20
ENDBRANCH   1  16
TORSDOF 2
ENDMDL
MODEL 9
REMARK VINA RESULT:      -8.0      3.702      7.620
REMARK  2 active torsions:
REMARK  status: ('A' for Active; 'I' for Inactive)
REMARK    1  A    between atoms: C_3  and  C_4 
REMARK       I    between atoms: C_4  and  N_5 
REMARK    2  A    between atoms: N_5  and  N_6 
ROOT
HETATM    1  N   UNL     1      -6.135   3.337 -33.024  1.00  0.00    -0.282 N 
HETATM    2  C   UNL     1      -6.449   2.046 -33.046  1.00  0.00     0.127 C 
HETATM    3  C   UNL     1      -7.871   1.650 -33.208  1.00  0.00     0.015 A 
HETATM    4  C   UNL     1      -8.270   0.366 -32.788  1.00  0.00    -0.042 A 
HETATM    5  C   UNL     1      -9.610  -0.031 -32.883  1.00  0.00     0.008 A 
HETATM    6  C   UNL     1     -10.553   0.829 -33.438  1.00  0.00     0.001 A 
HETATM    7  C   UNL     1     -10.166   2.084 -33.897  1.00  0.00     0.001 A 
HETATM    8  C   UNL     1      -8.835   2.494 -33.787  1.00  0.00     0.016 A 
HETATM    9  C   UNL     1      -7.236  -0.563 -32.202  1.00  0.00     0.069 C 
HETATM   10  C   UNL     1      -5.858  -0.356 -32.865  1.00  0.00     0.028 C 
HETATM   11  C   UNL     1      -4.776  -1.047 -32.026  1.00  0.00     0.038 C 
HETATM   12  C   UNL     1      -5.811  -0.886 -34.302  1.00  0.00     0.038 C 
HETATM   13  N   UNL     1      -5.528   1.096 -32.899  1.00  0.00    -0.366 N 
HETATM   14  H   UNL     1      -4.570   1.375 -32.764  1.00  0.00     0.162 HD
HETATM   15  H   UNL     1      -6.915   4.006 -33.001  1.00  0.00     0.188 HD
ENDROOT
BRANCH   1  16
HETATM   16  N   UNL     1      -4.924   3.885 -32.968  1.00  0.00    -0.264 N 
HETATM   17  C   UNL     1      -4.780   5.075 -33.667  1.00  0.00     0.270 C 
HETATM   18  O   UNL     1      -5.723   5.554 -34.295  1.00  0.00    -0.266 OA
HETATM   19  H   UNL     1      -4.127   3.409 -32.564  1.00  0.00     0.190 HD
BRANCH  17  20
HETATM   20  C   UNL     1      -3.432   5.693 -33.672  1.00  0.00     0.039 A 
HETATM   21  C   UNL     1      -3.032   6.706 -32.778  1.00  0.00    -0.046 A 
HETATM   22  C   UNL     1      -3.942   7.331 -31.758  1.00  0.00     0.049 C 
HETATM   23  C   UNL     1      -1.710   7.177 -32.855  1.00  0.00     0.007 A 
HETATM   24  C   UNL     1      -0.827   6.690 -33.822  1.00  0.00     0.001 A 
HETATM   25  C   UNL     1      -1.248   5.723 -34.729  1.00  0.00     0.001 A 
HETATM   26  C   UNL     1      -2.548   5.226 -34.657  1.00  0.00     0.017 A 
ENDBRANCH  17  20
ENDBRANCH   1  16
TORSDOF 2
ENDMDL
MODEL 10
REMARK VINA RESULT:      -8.0      2.246      7.122
REMARK  2 active torsions:
REMARK  status: ('A' for Active; 'I' for Inactive)
REMARK    1  A    between atoms: C_3  and  C_4 
REMARK       I    between atoms: C_4  and  N_5 
REMARK    2  A    between atoms: N_5  and  N_6 
ROOT
HETATM    1  N   UNL     1      -8.757   0.377 -33.826  1.00  0.00    -0.282 N 
HETATM    2  C   UNL     1      -9.049   1.668 -33.703  1.00  0.00     0.127 C 
HETATM    3  C   UNL     1     -10.297   2.189 -34.317  1.00  0.00     0.015 A 
HETATM    4  C   UNL     1     -10.394   3.567 -34.591  1.00  0.00    -0.042 A 
HETATM    5  C   UNL     1     -11.536   4.092 -35.208  1.00  0.00     0.008 A 
HETATM    6  C   UNL     1     -12.607   3.258 -35.517  1.00  0.00     0.001 A 
HETATM    7  C   UNL     1     -12.543   1.901 -35.212  1.00  0.00     0.001 A 
HETATM    8  C   UNL     1     -11.399   1.368 -34.614  1.00  0.00     0.016 A 
HETATM    9  C   UNL     1      -9.234   4.463 -34.240  1.00  0.00     0.069 C 
HETATM   10  C   UNL     1      -8.514   3.975 -32.965  1.00  0.00     0.028 C 
HETATM   11  C   UNL     1      -7.160   4.682 -32.836  1.00  0.00     0.038 C 
HETATM   12  C   UNL     1      -9.340   4.211 -31.696  1.00  0.00     0.038 C 
HETATM   13  N   UNL     1      -8.240   2.515 -33.070  1.00  0.00    -0.366 N 
HETATM   14  H   UNL     1      -7.384   2.157 -32.679  1.00  0.00     0.162 HD
HETATM   15  H   UNL     1      -9.357  -0.180 -34.448  1.00  0.00     0.188 HD
ENDROOT
BRANCH   1  16
HETATM   16  N   UNL     1      -7.739  -0.287 -33.286  1.00  0.00    -0.264 N 
HETATM   17  C   UNL     1      -6.690  -0.568 -34.149  1.00  0.00     0.270 C 
HETATM   18  O   UNL     1      -6.738  -0.226 -35.329  1.00  0.00    -0.266 OA
HETATM   19  H   UNL     1      -7.775  -0.680 -32.353  1.00  0.00     0.190 HD
BRANCH  17  20
HETATM   20  C   UNL     1      -5.557  -1.351 -33.599  1.00  0.00     0.039 A 
HETATM   21  C   UNL     1      -5.188  -2.628 -34.068  1.00  0.00    -0.046 A 
HETATM   22  C   UNL     1      -5.938  -3.379 -35.133  1.00  0.00     0.049 C 
HETATM   23  C   UNL     1      -4.064  -3.248 -33.495  1.00  0.00     0.007 A 
HETATM   24  C   UNL     1      -3.358  -2.639 -32.455  1.00  0.00     0.001 A 
HETATM   25  C   UNL     1      -3.761  -1.399 -31.969  1.00  0.00     0.001 A 
HETATM   26  C   UNL     1      -4.858  -0.756 -32.538  1.00  0.00     0.017 A 
ENDBRANCH  17  20
ENDBRANCH   1  16
TORSDOF 2
ENDMDL
