MODEL 1
REMARK VINA RESULT:      -8.9      0.000      0.000
REMARK  5 active torsions:
REMARK  status: ('A' for Active; 'I' for Inactive)
REMARK    1  A    between atoms: C_3  and  N_4 
REMARK       I    between atoms: N_4  and  C_5 
REMARK    2  A    between atoms: C_9  and  N_10 
REMARK       I    between atoms: N_10  and  C_11 
REMARK    3  A    between atoms: C_11  and  C_12 
REMARK    4  A    between atoms: C_17  and  C_18 
REMARK    5  A    between atoms: C_24  and  C_25 
ROOT
HETATM    1  C   UNL     1      -3.697   4.040 -31.605  1.00  0.00     0.148 A 
HETATM    2  N   UNL     1      -3.959   5.361 -31.468  1.00  0.00    -0.165 NA
HETATM    3  N   UNL     1      -2.739   5.909 -31.302  1.00  0.00    -0.240 N 
HETATM    4  C   UNL     1      -1.714   5.006 -31.368  1.00  0.00     0.123 A 
HETATM    5  N   UNL     1      -0.424   5.387 -31.273  1.00  0.00    -0.364 N 
HETATM    6  C   UNL     1      -0.051   6.746 -30.882  1.00  0.00     0.143 C 
HETATM    7  C   UNL     1      -1.101   7.745 -31.400  1.00  0.00     0.068 C 
HETATM    8  C   UNL     1      -2.561   7.337 -31.121  1.00  0.00     0.221 C 
HETATM    9  C   UNL     1      -2.301   3.783 -31.555  1.00  0.00     0.089 A 
HETATM   10  H   UNL     1       0.313   4.692 -31.158  1.00  0.00     0.162 HD
ENDROOT
BRANCH   1  11
HETATM   11  C   UNL     1      -4.767   3.042 -31.781  1.00  0.00     0.276 C 
HETATM   12  N   UNL     1      -4.380   2.012 -32.617  1.00  0.00    -0.322 N 
HETATM   13  H   UNL     1      -3.431   2.113 -32.971  1.00  0.00     0.169 HD
HETATM   14  O   UNL     1      -5.858   3.174 -31.236  1.00  0.00    -0.266 OA
BRANCH  12  15
HETATM   15  C   UNL     1      -5.131   0.902 -33.042  1.00  0.00     0.037 A 
HETATM   16  C   UNL     1      -6.518   0.917 -33.209  1.00  0.00     0.059 A 
HETATM   17  C   UNL     1      -7.229  -0.215 -33.661  1.00  0.00     0.042 A 
HETATM   18  C   UNL     1      -6.532  -1.414 -33.878  1.00  0.00    -0.035 A 
HETATM   19  C   UNL     1      -7.170  -2.731 -34.222  1.00  0.00     0.050 C 
HETATM   20  C   UNL     1      -5.131  -1.414 -33.730  1.00  0.00     0.011 A 
HETATM   21  C   UNL     1      -4.441  -0.274 -33.316  1.00  0.00     0.030 A 
BRANCH  17  22
HETATM   22  N   UNL     1      -8.624  -0.013 -33.799  1.00  0.00    -0.327 N 
HETATM   23  C   UNL     1      -9.554   0.245 -32.812  1.00  0.00     0.218 C 
HETATM   24  C   UNL     1     -10.936   0.483 -33.374  1.00  0.00     0.117 C 
HETATM   25  O   UNL     1      -9.364   0.283 -31.603  1.00  0.00    -0.274 OA
HETATM   26  H   UNL     1      -9.012  -0.332 -34.678  1.00  0.00     0.169 HD
ENDBRANCH  17  22
ENDBRANCH  12  15
ENDBRANCH   1  11
BRANCH   8  27
HETATM   27  C   UNL     1      -3.066   7.756 -29.758  1.00  0.00     0.409 C 
HETATM   28  F   UNL     1      -4.373   8.110 -29.793  1.00  0.00    -0.169 F 
HETATM   29  F   UNL     1      -2.935   6.806 -28.814  1.00  0.00    -0.169 F 
HETATM   30  F   UNL     1      -2.394   8.853 -29.323  1.00  0.00    -0.169 F 
ENDBRANCH   8  27
BRANCH   6  31
HETATM   31  C   UNL     1       0.264   6.921 -29.431  1.00  0.00     0.075 A 
HETATM   32  O   UNL     1      -0.032   5.865 -28.618  1.00  0.00    -0.325 OA
HETATM   33  C   UNL     1       0.302   6.230 -27.353  1.00  0.00     0.142 A 
HETATM   34  C   UNL     1       0.806   7.508 -27.337  1.00  0.00     0.027 A 
HETATM   35  C   UNL     1       0.774   7.960 -28.678  1.00  0.00     0.037 A 
ENDBRANCH   6  31
TORSDOF 5
ENDMDL
MODEL 2
REMARK VINA RESULT:      -8.6      3.010      9.497
REMARK  5 active torsions:
REMARK  status: ('A' for Active; 'I' for Inactive)
REMARK    1  A    between atoms: C_3  and  N_4 
REMARK       I    between atoms: N_4  and  C_5 
REMARK    2  A    between atoms: C_9  and  N_10 
REMARK       I    between atoms: N_10  and  C_11 
REMARK    3  A    between atoms: C_11  and  C_12 
REMARK    4  A    between atoms: C_17  and  C_18 
REMARK    5  A    between atoms: C_24  and  C_25 
ROOT
HETATM    1  C   UNL     1      -4.233   4.464 -32.126  1.00  0.00     0.148 A 
HETATM    2  N   UNL     1      -4.109   3.210 -31.631  1.00  0.00    -0.165 NA
HETATM    3  N   UNL     1      -4.902   2.474 -32.435  1.00  0.00    -0.240 N 
HETATM    4  C   UNL     1      -5.489   3.193 -33.440  1.00  0.00     0.123 A 
HETATM    5  N   UNL     1      -6.274   2.606 -34.367  1.00  0.00    -0.364 N 
HETATM    6  C   UNL     1      -6.717   1.219 -34.234  1.00  0.00     0.143 C 
HETATM    7  C   UNL     1      -5.629   0.390 -33.527  1.00  0.00     0.068 C 
HETATM    8  C   UNL     1      -5.057   1.043 -32.253  1.00  0.00     0.221 C 
HETATM    9  C   UNL     1      -5.084   4.488 -33.264  1.00  0.00     0.089 A 
HETATM   10  H   UNL     1      -6.832   3.174 -35.004  1.00  0.00     0.162 HD
ENDROOT
BRANCH   1  11
HETATM   11  C   UNL     1      -3.548   5.618 -31.518  1.00  0.00     0.276 C 
HETATM   12  N   UNL     1      -2.400   5.243 -30.847  1.00  0.00    -0.322 N 
HETATM   13  H   UNL     1      -2.221   4.241 -30.880  1.00  0.00     0.169 HD
HETATM   14  O   UNL     1      -4.001   6.754 -31.618  1.00  0.00    -0.266 OA
BRANCH  12  15
HETATM   15  C   UNL     1      -1.505   6.052 -30.125  1.00  0.00     0.037 A 
HETATM   16  C   UNL     1      -1.854   6.766 -28.976  1.00  0.00     0.059 A 
HETATM   17  C   UNL     1      -0.917   7.547 -28.268  1.00  0.00     0.042 A 
HETATM   18  C   UNL     1       0.387   7.671 -28.774  1.00  0.00    -0.035 A 
HETATM   19  C   UNL     1       1.448   8.576 -28.212  1.00  0.00     0.050 C 
HETATM   20  C   UNL     1       0.737   6.930 -29.920  1.00  0.00     0.011 A 
HETATM   21  C   UNL     1      -0.196   6.133 -30.587  1.00  0.00     0.030 A 
BRANCH  17  22
HETATM   22  N   UNL     1      -1.435   8.179 -27.112  1.00  0.00    -0.327 N 
HETATM   23  C   UNL     1      -1.827   7.600 -25.921  1.00  0.00     0.218 C 
HETATM   24  C   UNL     1      -2.249   8.625 -24.896  1.00  0.00     0.117 C 
HETATM   25  O   UNL     1      -1.866   6.406 -25.654  1.00  0.00    -0.274 OA
HETATM   26  H   UNL     1      -1.782   9.119 -27.263  1.00  0.00     0.169 HD
ENDBRANCH  17  22
ENDBRANCH  12  15
ENDBRANCH   1  11
BRANCH   8  27
HETATM   27  C   UNL     1      -5.862   0.761 -31.004  1.00  0.00     0.409 C 
HETATM   28  F   UNL     1      -5.074   0.695 -29.903  1.00  0.00    -0.169 F 
HETATM   29  F   UNL     1      -6.819   1.674 -30.756  1.00  0.00    -0.169 F 
HETATM   30  F   UNL     1      -6.472  -0.448 -31.099  1.00  0.00    -0.169 F 
ENDBRANCH   8  27
BRANCH   6  31
HETATM   31  C   UNL     1      -8.074   1.045 -33.634  1.00  0.00     0.075 A 
HETATM   32  O   UNL     1      -8.721   2.189 -33.263  1.00  0.00    -0.325 OA
HETATM   33  C   UNL     1      -9.911   1.817 -32.724  1.00  0.00     0.142 A 
HETATM   34  C   UNL     1     -10.040   0.449 -32.738  1.00  0.00     0.027 A 
HETATM   35  C   UNL     1      -8.850  -0.052 -33.317  1.00  0.00     0.037 A 
ENDBRANCH   6  31
TORSDOF 5
ENDMDL
MODEL 3
REMARK VINA RESULT:      -8.5      1.640      2.674
REMARK  5 active torsions:
REMARK  status: ('A' for Active; 'I' for Inactive)
REMARK    1  A    between atoms: C_3  and  N_4 
REMARK       I    between atoms: N_4  and  C_5 
REMARK    2  A    between atoms: C_9  and  N_10 
REMARK       I    between atoms: N_10  and  C_11 
REMARK    3  A    between atoms: C_11  and  C_12 
REMARK    4  A    between atoms: C_17  and  C_18 
REMARK    5  A    between atoms: C_24  and  C_25 
ROOT
HETATM    1  C   UNL     1      -4.194   4.853 -33.119  1.00  0.00     0.148 A 
HETATM    2  N   UNL     1      -4.293   6.102 -32.609  1.00  0.00    -0.165 NA
HETATM    3  N   UNL     1      -3.014   6.436 -32.341  1.00  0.00    -0.240 N 
HETATM    4  C   UNL     1      -2.107   5.475 -32.695  1.00  0.00     0.123 A 
HETATM    5  N   UNL     1      -0.780   5.662 -32.545  1.00  0.00    -0.364 N 
HETATM    6  C   UNL     1      -0.243   6.803 -31.804  1.00  0.00     0.143 C 
HETATM    7  C   UNL     1      -1.165   8.022 -31.983  1.00  0.00     0.068 C 
HETATM    8  C   UNL     1      -2.663   7.725 -31.775  1.00  0.00     0.221 C 
HETATM    9  C   UNL     1      -2.839   4.432 -33.194  1.00  0.00     0.089 A 
HETATM   10  H   UNL     1      -0.132   4.882 -32.656  1.00  0.00     0.162 HD
ENDROOT
BRANCH   1  11
HETATM   11  C   UNL     1      -5.377   4.076 -33.528  1.00  0.00     0.276 C 
HETATM   12  N   UNL     1      -5.725   3.129 -32.583  1.00  0.00    -0.322 N 
HETATM   13  H   UNL     1      -5.110   3.123 -31.771  1.00  0.00     0.169 HD
HETATM   14  O   UNL     1      -5.937   4.282 -34.600  1.00  0.00    -0.266 OA
BRANCH  12  15
HETATM   15  C   UNL     1      -6.770   2.190 -32.631  1.00  0.00     0.037 A 
HETATM   16  C   UNL     1      -6.704   0.987 -33.337  1.00  0.00     0.059 A 
HETATM   17  C   UNL     1      -7.769   0.061 -33.338  1.00  0.00     0.042 A 
HETATM   18  C   UNL     1      -8.959   0.392 -32.669  1.00  0.00    -0.035 A 
HETATM   19  C   UNL     1     -10.220  -0.425 -32.700  1.00  0.00     0.050 C 
HETATM   20  C   UNL     1      -9.008   1.596 -31.940  1.00  0.00     0.011 A 
HETATM   21  C   UNL     1      -7.930   2.483 -31.922  1.00  0.00     0.030 A 
BRANCH  17  22
HETATM   22  N   UNL     1      -7.521  -1.117 -34.083  1.00  0.00    -0.327 N 
HETATM   23  C   UNL     1      -6.434  -1.965 -34.008  1.00  0.00     0.218 C 
HETATM   24  C   UNL     1      -6.578  -3.165 -34.914  1.00  0.00     0.117 C 
HETATM   25  O   UNL     1      -5.429  -1.826 -33.322  1.00  0.00    -0.274 OA
HETATM   26  H   UNL     1      -8.077  -1.211 -34.924  1.00  0.00     0.169 HD
ENDBRANCH  17  22
ENDBRANCH  12  15
ENDBRANCH   1  11
BRANCH   8  27
HETATM   27  C   UNL     1      -3.109   7.798 -30.332  1.00  0.00     0.409 C 
HETATM   28  F   UNL     1      -2.372   8.686 -29.623  1.00  0.00    -0.169 F 
HETATM   29  F   UNL     1      -4.402   8.139 -30.178  1.00  0.00    -0.169 F 
HETATM   30  F   UNL     1      -2.933   6.597 -29.723  1.00  0.00    -0.169 F 
ENDBRANCH   8  27
BRANCH   6  31
HETATM   31  C   UNL     1       0.095   6.524 -30.375  1.00  0.00     0.075 A 
HETATM   32  O   UNL     1       0.354   7.612 -29.592  1.00  0.00    -0.325 OA
HETATM   33  C   UNL     1       0.661   7.149 -28.353  1.00  0.00     0.142 A 
HETATM   34  C   UNL     1       0.606   5.776 -28.325  1.00  0.00     0.027 A 
HETATM   35  C   UNL     1       0.250   5.370 -29.633  1.00  0.00     0.037 A 
ENDBRANCH   6  31
TORSDOF 5
ENDMDL
MODEL 4
REMARK VINA RESULT:      -8.4      2.111      2.592
REMARK  5 active torsions:
REMARK  status: ('A' for Active; 'I' for Inactive)
REMARK    1  A    between atoms: C_3  and  N_4 
REMARK       I    between atoms: N_4  and  C_5 
REMARK    2  A    between atoms: C_9  and  N_10 
REMARK       I    between atoms: N_10  and  C_11 
REMARK    3  A    between atoms: C_11  and  C_12 
REMARK    4  A    between atoms: C_17  and  C_18 
REMARK    5  A    between atoms: C_24  and  C_25 
ROOT
HETATM    1  C   UNL     1      -4.835   4.452 -31.702  1.00  0.00     0.148 A 
HETATM    2  N   UNL     1      -4.612   5.732 -32.082  1.00  0.00    -0.165 NA
HETATM    3  N   UNL     1      -3.270   5.846 -32.031  1.00  0.00    -0.240 N 
HETATM    4  C   UNL     1      -2.630   4.691 -31.677  1.00  0.00     0.123 A 
HETATM    5  N   UNL     1      -1.285   4.611 -31.626  1.00  0.00    -0.364 N 
HETATM    6  C   UNL     1      -0.439   5.799 -31.733  1.00  0.00     0.143 C 
HETATM    7  C   UNL     1      -1.103   6.829 -32.665  1.00  0.00     0.068 C 
HETATM    8  C   UNL     1      -2.595   7.084 -32.374  1.00  0.00     0.221 C 
HETATM    9  C   UNL     1      -3.616   3.769 -31.448  1.00  0.00     0.089 A 
HETATM   10  H   UNL     1      -0.831   3.800 -31.204  1.00  0.00     0.162 HD
ENDROOT
BRANCH   1  11
HETATM   11  C   UNL     1      -6.194   3.894 -31.585  1.00  0.00     0.276 C 
HETATM   12  N   UNL     1      -6.448   2.943 -32.554  1.00  0.00    -0.322 N 
HETATM   13  H   UNL     1      -5.663   2.788 -33.185  1.00  0.00     0.169 HD
HETATM   14  O   UNL     1      -6.970   4.281 -30.717  1.00  0.00    -0.266 OA
BRANCH  12  15
HETATM   15  C   UNL     1      -7.631   2.218 -32.779  1.00  0.00     0.037 A 
HETATM   16  C   UNL     1      -8.592   2.570 -33.729  1.00  0.00     0.059 A 
HETATM   17  C   UNL     1      -9.755   1.799 -33.938  1.00  0.00     0.042 A 
HETATM   18  C   UNL     1      -9.990   0.685 -33.116  1.00  0.00    -0.035 A 
HETATM   19  C   UNL     1     -11.244  -0.143 -33.125  1.00  0.00     0.050 C 
HETATM   20  C   UNL     1      -9.005   0.323 -32.176  1.00  0.00     0.011 A 
HETATM   21  C   UNL     1      -7.843   1.079 -32.009  1.00  0.00     0.030 A 
BRANCH  17  22
HETATM   22  N   UNL     1     -10.606   2.288 -34.959  1.00  0.00    -0.327 N 
HETATM   23  C   UNL     1     -11.756   3.041 -34.829  1.00  0.00     0.218 C 
HETATM   24  C   UNL     1     -12.337   3.437 -36.165  1.00  0.00     0.117 C 
HETATM   25  O   UNL     1     -12.309   3.379 -33.790  1.00  0.00    -0.274 OA
HETATM   26  H   UNL     1     -10.493   1.834 -35.857  1.00  0.00     0.169 HD
ENDBRANCH  17  22
ENDBRANCH  12  15
ENDBRANCH   1  11
BRANCH   8  27
HETATM   27  C   UNL     1      -2.843   8.125 -31.306  1.00  0.00     0.409 C 
HETATM   28  F   UNL     1      -4.018   8.772 -31.499  1.00  0.00    -0.169 F 
HETATM   29  F   UNL     1      -2.861   7.629 -30.055  1.00  0.00    -0.169 F 
HETATM   30  F   UNL     1      -1.880   9.082 -31.348  1.00  0.00    -0.169 F 
ENDBRANCH   8  27
BRANCH   6  31
HETATM   31  C   UNL     1      -0.001   6.382 -30.427  1.00  0.00     0.075 A 
HETATM   32  O   UNL     1      -0.232   5.619 -29.319  1.00  0.00    -0.325 OA
HETATM   33  C   UNL     1       0.210   6.328 -28.248  1.00  0.00     0.142 A 
HETATM   34  C   UNL     1       0.720   7.539 -28.649  1.00  0.00     0.027 A 
HETATM   35  C   UNL     1       0.576   7.580 -30.057  1.00  0.00     0.037 A 
ENDBRANCH   6  31
TORSDOF 5
ENDMDL
MODEL 5
REMARK VINA RESULT:      -8.4      2.849      3.784
REMARK  5 active torsions:
REMARK  status: ('A' for Active; 'I' for Inactive)
REMARK    1  A    between atoms: C_3  and  N_4 
REMARK       I    between atoms: N_4  and  C_5 
REMARK    2  A    between atoms: C_9  and  N_10 
REMARK       I    between atoms: N_10  and  C_11 
REMARK    3  A    between atoms: C_11  and  C_12 
REMARK    4  A    between atoms: C_17  and  C_18 
REMARK    5  A    between atoms: C_24  and  C_25 
ROOT
HETATM    1  C   UNL     1      -5.146   4.500 -32.927  1.00  0.00     0.148 A 
HETATM    2  N   UNL     1      -4.222   5.179 -33.647  1.00  0.00    -0.165 NA
HETATM    3  N   UNL     1      -3.119   5.125 -32.875  1.00  0.00    -0.240 N 
HETATM    4  C   UNL     1      -3.286   4.411 -31.721  1.00  0.00     0.123 A 
HETATM    5  N   UNL     1      -2.272   4.211 -30.855  1.00  0.00    -0.364 N 
HETATM    6  C   UNL     1      -0.999   4.920 -30.986  1.00  0.00     0.143 C 
HETATM    7  C   UNL     1      -0.689   5.165 -32.474  1.00  0.00     0.068 C 
HETATM    8  C   UNL     1      -1.869   5.737 -33.285  1.00  0.00     0.221 C 
HETATM    9  C   UNL     1      -4.592   3.999 -31.718  1.00  0.00     0.089 A 
HETATM   10  H   UNL     1      -2.451   3.824 -29.929  1.00  0.00     0.162 HD
ENDROOT
BRANCH   1  11
HETATM   11  C   UNL     1      -6.535   4.336 -33.389  1.00  0.00     0.276 C 
HETATM   12  N   UNL     1      -7.139   3.227 -32.828  1.00  0.00    -0.322 N 
HETATM   13  H   UNL     1      -6.530   2.711 -32.197  1.00  0.00     0.169 HD
HETATM   14  O   UNL     1      -7.037   5.116 -34.192  1.00  0.00    -0.266 OA
BRANCH  12  15
HETATM   15  C   UNL     1      -8.437   2.733 -33.048  1.00  0.00     0.037 A 
HETATM   16  C   UNL     1      -9.567   3.176 -32.357  1.00  0.00     0.059 A 
HETATM   17  C   UNL     1     -10.855   2.669 -32.627  1.00  0.00     0.042 A 
HETATM   18  C   UNL     1     -10.996   1.634 -33.566  1.00  0.00    -0.035 A 
HETATM   19  C   UNL     1     -12.276   0.901 -33.854  1.00  0.00     0.050 C 
HETATM   20  C   UNL     1      -9.855   1.209 -34.275  1.00  0.00     0.011 A 
HETATM   21  C   UNL     1      -8.594   1.749 -34.019  1.00  0.00     0.030 A 
BRANCH  17  22
HETATM   22  N   UNL     1     -11.888   3.251 -31.852  1.00  0.00    -0.327 N 
HETATM   23  C   UNL     1     -12.770   4.251 -32.213  1.00  0.00     0.218 C 
HETATM   24  C   UNL     1     -13.783   4.539 -31.131  1.00  0.00     0.117 C 
HETATM   25  O   UNL     1     -12.787   4.883 -33.261  1.00  0.00    -0.274 OA
HETATM   26  H   UNL     1     -11.813   3.087 -30.855  1.00  0.00     0.169 HD
ENDBRANCH  17  22
ENDBRANCH  12  15
ENDBRANCH   1  11
BRANCH   8  27
HETATM   27  C   UNL     1      -1.983   7.244 -33.223  1.00  0.00     0.409 C 
HETATM   28  F   UNL     1      -2.146   7.787 -34.453  1.00  0.00    -0.169 F 
HETATM   29  F   UNL     1      -2.999   7.682 -32.456  1.00  0.00    -0.169 F 
HETATM   30  F   UNL     1      -0.840   7.783 -32.725  1.00  0.00    -0.169 F 
ENDBRANCH   8  27
BRANCH   6  31
HETATM   31  C   UNL     1      -0.872   6.150 -30.147  1.00  0.00     0.075 A 
HETATM   32  O   UNL     1       0.398   6.601 -29.925  1.00  0.00    -0.325 OA
HETATM   33  C   UNL     1       0.298   7.698 -29.130  1.00  0.00     0.142 A 
HETATM   34  C   UNL     1      -1.018   7.960 -28.833  1.00  0.00     0.027 A 
HETATM   35  C   UNL     1      -1.775   6.955 -29.481  1.00  0.00     0.037 A 
ENDBRANCH   6  31
TORSDOF 5
ENDMDL
MODEL 6
REMARK VINA RESULT:      -8.4      3.166      9.635
REMARK  5 active torsions:
REMARK  status: ('A' for Active; 'I' for Inactive)
REMARK    1  A    between atoms: C_3  and  N_4 
REMARK       I    between atoms: N_4  and  C_5 
REMARK    2  A    between atoms: C_9  and  N_10 
REMARK       I    between atoms: N_10  and  C_11 
REMARK    3  A    between atoms: C_11  and  C_12 
REMARK    4  A    between atoms: C_17  and  C_18 
REMARK    5  A    between atoms: C_24  and  C_25 
ROOT
HETATM    1  C   UNL     1      -5.848   2.245 -32.753  1.00  0.00     0.148 A 
HETATM    2  N   UNL     1      -6.821   2.162 -31.817  1.00  0.00    -0.165 NA
HETATM    3  N   UNL     1      -7.922   1.857 -32.532  1.00  0.00    -0.240 N 
HETATM    4  C   UNL     1      -7.686   1.703 -33.870  1.00  0.00     0.123 A 
HETATM    5  N   UNL     1      -8.664   1.347 -34.729  1.00  0.00    -0.364 N 
HETATM    6  C   UNL     1     -10.069   1.315 -34.322  1.00  0.00     0.143 C 
HETATM    7  C   UNL     1     -10.174   0.909 -32.842  1.00  0.00     0.068 C 
HETATM    8  C   UNL     1      -9.215   1.668 -31.902  1.00  0.00     0.221 C 
HETATM    9  C   UNL     1      -6.352   1.956 -34.050  1.00  0.00     0.089 A 
HETATM   10  H   UNL     1      -8.511   1.398 -35.736  1.00  0.00     0.162 HD
ENDROOT
BRANCH   1  11
HETATM   11  C   UNL     1      -4.458   2.596 -32.411  1.00  0.00     0.276 C 
HETATM   12  N   UNL     1      -4.285   3.961 -32.289  1.00  0.00    -0.322 N 
HETATM   13  H   UNL     1      -5.136   4.494 -32.458  1.00  0.00     0.169 HD
HETATM   14  O   UNL     1      -3.597   1.732 -32.278  1.00  0.00    -0.266 OA
BRANCH  12  15
HETATM   15  C   UNL     1      -3.105   4.670 -32.004  1.00  0.00     0.037 A 
HETATM   16  C   UNL     1      -2.884   5.368 -30.814  1.00  0.00     0.059 A 
HETATM   17  C   UNL     1      -1.673   6.048 -30.560  1.00  0.00     0.042 A 
HETATM   18  C   UNL     1      -0.691   6.086 -31.562  1.00  0.00    -0.035 A 
HETATM   19  C   UNL     1       0.582   6.883 -31.491  1.00  0.00     0.050 C 
HETATM   20  C   UNL     1      -0.912   5.360 -32.749  1.00  0.00     0.011 A 
HETATM   21  C   UNL     1      -2.102   4.664 -32.968  1.00  0.00     0.030 A 
BRANCH  17  22
HETATM   22  N   UNL     1      -1.611   6.677 -29.293  1.00  0.00    -0.327 N 
HETATM   23  C   UNL     1      -0.681   6.492 -28.289  1.00  0.00     0.218 C 
HETATM   24  C   UNL     1      -0.910   7.416 -27.117  1.00  0.00     0.117 C 
HETATM   25  O   UNL     1       0.242   5.688 -28.271  1.00  0.00    -0.274 OA
HETATM   26  H   UNL     1      -2.470   7.126 -29.001  1.00  0.00     0.169 HD
ENDBRANCH  17  22
ENDBRANCH  12  15
ENDBRANCH   1  11
BRANCH   8  27
HETATM   27  C   UNL     1      -9.755   2.994 -31.414  1.00  0.00     0.409 C 
HETATM   28  F   UNL     1      -9.139   4.039 -32.017  1.00  0.00    -0.169 F 
HETATM   29  F   UNL     1     -11.078   3.147 -31.605  1.00  0.00    -0.169 F 
HETATM   30  F   UNL     1      -9.519   3.138 -30.085  1.00  0.00    -0.169 F 
ENDBRANCH   8  27
BRANCH   6  31
HETATM   31  C   UNL     1     -10.849   2.546 -34.654  1.00  0.00     0.075 A 
HETATM   32  O   UNL     1     -12.208   2.412 -34.672  1.00  0.00    -0.325 OA
HETATM   33  C   UNL     1     -12.723   3.621 -35.015  1.00  0.00     0.142 A 
HETATM   34  C   UNL     1     -11.716   4.533 -35.222  1.00  0.00     0.027 A 
HETATM   35  C   UNL     1     -10.504   3.838 -34.998  1.00  0.00     0.037 A 
ENDBRANCH   6  31
TORSDOF 5
ENDMDL
MODEL 7
REMARK VINA RESULT:      -8.3      1.752      2.775
REMARK  5 active torsions:
REMARK  status: ('A' for Active; 'I' for Inactive)
REMARK    1  A    between atoms: C_3  and  N_4 
REMARK       I    between atoms: N_4  and  C_5 
REMARK    2  A    between atoms: C_9  and  N_10 
REMARK       I    between atoms: N_10  and  C_11 
REMARK    3  A    between atoms: C_11  and  C_12 
REMARK    4  A    between atoms: C_17  and  C_18 
REMARK    5  A    between atoms: C_24  and  C_25 
ROOT
HETATM    1  C   UNL     1      -3.617   4.038 -31.525  1.00  0.00     0.148 A 
HETATM    2  N   UNL     1      -3.899   5.346 -31.318  1.00  0.00    -0.165 NA
HETATM    3  N   UNL     1      -2.683   5.913 -31.183  1.00  0.00    -0.240 N 
HETATM    4  C   UNL     1      -1.645   5.036 -31.336  1.00  0.00     0.123 A 
HETATM    5  N   UNL     1      -0.359   5.441 -31.284  1.00  0.00    -0.364 N 
HETATM    6  C   UNL     1       0.005   6.789 -30.850  1.00  0.00     0.143 C 
HETATM    7  C   UNL     1      -1.087   7.786 -31.275  1.00  0.00     0.068 C 
HETATM    8  C   UNL     1      -2.525   7.336 -30.948  1.00  0.00     0.221 C 
HETATM    9  C   UNL     1      -2.215   3.810 -31.550  1.00  0.00     0.089 A 
HETATM   10  H   UNL     1       0.396   4.757 -31.233  1.00  0.00     0.162 HD
ENDROOT
BRANCH   1  11
HETATM   11  C   UNL     1      -4.674   3.026 -31.696  1.00  0.00     0.276 C 
HETATM   12  N   UNL     1      -4.267   1.986 -32.509  1.00  0.00    -0.322 N 
HETATM   13  H   UNL     1      -3.315   2.091 -32.855  1.00  0.00     0.169 HD
HETATM   14  O   UNL     1      -5.773   3.155 -31.165  1.00  0.00    -0.266 OA
BRANCH  12  15
HETATM   15  C   UNL     1      -5.001   0.861 -32.923  1.00  0.00     0.037 A 
HETATM   16  C   UNL     1      -4.431  -0.385 -33.195  1.00  0.00     0.059 A 
HETATM   17  C   UNL     1      -5.210  -1.495 -33.586  1.00  0.00     0.042 A 
HETATM   18  C   UNL     1      -6.590  -1.323 -33.778  1.00  0.00    -0.035 A 
HETATM   19  C   UNL     1      -7.520  -2.369 -34.326  1.00  0.00     0.050 C 
HETATM   20  C   UNL     1      -7.161  -0.070 -33.480  1.00  0.00     0.011 A 
HETATM   21  C   UNL     1      -6.378   1.007 -33.059  1.00  0.00     0.030 A 
BRANCH  17  22
HETATM   22  N   UNL     1      -4.471  -2.684 -33.793  1.00  0.00    -0.327 N 
HETATM   23  C   UNL     1      -3.616  -3.326 -32.919  1.00  0.00     0.218 C 
HETATM   24  C   UNL     1      -3.082  -4.620 -33.485  1.00  0.00     0.117 C 
HETATM   25  O   UNL     1      -3.274  -2.950 -31.805  1.00  0.00    -0.274 OA
HETATM   26  H   UNL     1      -4.372  -2.957 -34.764  1.00  0.00     0.169 HD
ENDBRANCH  17  22
ENDBRANCH  12  15
ENDBRANCH   1  11
BRANCH   8  27
HETATM   27  C   UNL     1      -2.973   7.684 -29.546  1.00  0.00     0.409 C 
HETATM   28  F   UNL     1      -4.279   8.045 -29.511  1.00  0.00    -0.169 F 
HETATM   29  F   UNL     1      -2.812   6.685 -28.659  1.00  0.00    -0.169 F 
HETATM   30  F   UNL     1      -2.278   8.754 -29.081  1.00  0.00    -0.169 F 
ENDBRANCH   8  27
BRANCH   6  31
HETATM   31  C   UNL     1       0.384   6.908 -29.409  1.00  0.00     0.075 A 
HETATM   32  O   UNL     1       0.852   8.126 -29.006  1.00  0.00    -0.325 OA
HETATM   33  C   UNL     1       1.160   8.018 -27.688  1.00  0.00     0.142 A 
HETATM   34  C   UNL     1       0.901   6.748 -27.235  1.00  0.00     0.027 A 
HETATM   35  C   UNL     1       0.408   6.026 -28.347  1.00  0.00     0.037 A 
ENDBRANCH   6  31
TORSDOF 5
ENDMDL
MODEL 8
REMARK VINA RESULT:      -8.2      5.933      9.120
REMARK  5 active torsions:
REMARK  status: ('A' for Active; 'I' for Inactive)
REMARK    1  A    between atoms: C_3  and  N_4 
REMARK       I    between atoms: N_4  and  C_5 
REMARK    2  A    between atoms: C_9  and  N_10 
REMARK       I    between atoms: N_10  and  C_11 
REMARK    3  A    between atoms: C_11  and  C_12 
REMARK    4  A    between atoms: C_17  and  C_18 
REMARK    5  A    between atoms: C_24  and  C_25 
ROOT
HETATM    1  C   UNL     1     -10.599   1.812 -33.891  1.00  0.00     0.148 A 
HETATM    2  N   UNL     1      -9.472   2.327 -34.437  1.00  0.00    -0.165 NA
HETATM    3  N   UNL     1      -8.530   1.411 -34.138  1.00  0.00    -0.240 N 
HETATM    4  C   UNL     1      -9.012   0.322 -33.465  1.00  0.00     0.123 A 
HETATM    5  N   UNL     1      -8.217  -0.715 -33.130  1.00  0.00    -0.364 N 
HETATM    6  C   UNL     1      -6.763  -0.647 -33.272  1.00  0.00     0.143 C 
HETATM    7  C   UNL     1      -6.398   0.227 -34.485  1.00  0.00     0.068 C 
HETATM    8  C   UNL     1      -7.148   1.573 -34.550  1.00  0.00     0.221 C 
HETATM    9  C   UNL     1     -10.348   0.554 -33.281  1.00  0.00     0.089 A 
HETATM   10  H   UNL     1      -8.551  -1.436 -32.490  1.00  0.00     0.162 HD
ENDROOT
BRANCH   1  11
HETATM   11  C   UNL     1     -11.892   2.514 -33.954  1.00  0.00     0.276 C 
HETATM   12  N   UNL     1     -12.671   2.263 -32.841  1.00  0.00    -0.322 N 
HETATM   13  H   UNL     1     -12.229   1.638 -32.170  1.00  0.00     0.169 HD
HETATM   14  O   UNL     1     -12.193   3.214 -34.916  1.00  0.00    -0.266 OA
BRANCH  12  15
HETATM   15  C   UNL     1     -13.968   2.728 -32.558  1.00  0.00     0.037 A 
HETATM   16  C   UNL     1     -14.265   4.050 -32.221  1.00  0.00     0.059 A 
HETATM   17  C   UNL     1     -15.585   4.479 -31.967  1.00  0.00     0.042 A 
HETATM   18  C   UNL     1     -16.622   3.532 -31.982  1.00  0.00    -0.035 A 
HETATM   19  C   UNL     1     -18.048   3.810 -31.596  1.00  0.00     0.050 C 
HETATM   20  C   UNL     1     -16.317   2.206 -32.346  1.00  0.00     0.011 A 
HETATM   21  C   UNL     1     -15.009   1.809 -32.628  1.00  0.00     0.030 A 
BRANCH  17  22
HETATM   22  N   UNL     1     -15.706   5.857 -31.667  1.00  0.00    -0.327 N 
HETATM   23  C   UNL     1     -15.385   6.510 -30.494  1.00  0.00     0.218 C 
HETATM   24  C   UNL     1     -15.581   8.005 -30.596  1.00  0.00     0.117 C 
HETATM   25  O   UNL     1     -14.991   6.009 -29.449  1.00  0.00    -0.274 OA
HETATM   26  H   UNL     1     -16.317   6.374 -32.289  1.00  0.00     0.169 HD
ENDBRANCH  17  22
ENDBRANCH  12  15
ENDBRANCH   1  11
BRANCH   8  27
HETATM   27  C   UNL     1      -6.494   2.680 -33.754  1.00  0.00     0.409 C 
HETATM   28  F   UNL     1      -6.441   3.838 -34.455  1.00  0.00    -0.169 F 
HETATM   29  F   UNL     1      -7.108   2.947 -32.587  1.00  0.00    -0.169 F 
HETATM   30  F   UNL     1      -5.206   2.358 -33.468  1.00  0.00    -0.169 F 
ENDBRANCH   8  27
BRANCH   6  31
HETATM   31  C   UNL     1      -6.025  -0.268 -32.028  1.00  0.00     0.075 A 
HETATM   32  O   UNL     1      -4.667  -0.410 -32.065  1.00  0.00    -0.325 OA
HETATM   33  C   UNL     1      -4.195  -0.043 -30.846  1.00  0.00     0.142 A 
HETATM   34  C   UNL     1      -5.228   0.331 -30.021  1.00  0.00     0.027 A 
HETATM   35  C   UNL     1      -6.413   0.177 -30.780  1.00  0.00     0.037 A 
ENDBRANCH   6  31
TORSDOF 5
ENDMDL
MODEL 9
REMARK VINA RESULT:      -8.1      4.785     10.541
REMARK  5 active torsions:
REMARK  status: ('A' for Active; 'I' for Inactive)
REMARK    1  A    between atoms: C_3  and  N_4 
REMARK       I    between atoms: N_4  and  C_5 
REMARK    2  A    between atoms: C_9  and  N_10 
REMARK       I    between atoms: N_10  and  C_11 
REMARK    3  A    between atoms: C_11  and  C_12 
REMARK    4  A    between atoms: C_17  and  C_18 
REMARK    5  A    between atoms: C_24  and  C_25 
ROOT
HETATM    1  C   UNL     1      -8.707   4.280 -32.250  1.00  0.00     0.148 A 
HETATM    2  N   UNL     1      -9.353   4.743 -33.345  1.00  0.00    -0.165 NA
HETATM    3  N   UNL     1     -10.636   4.393 -33.127  1.00  0.00    -0.240 N 
HETATM    4  C   UNL     1     -10.840   3.767 -31.928  1.00  0.00     0.123 A 
HETATM    5  N   UNL     1     -12.071   3.392 -31.523  1.00  0.00    -0.364 N 
HETATM    6  C   UNL     1     -13.223   3.435 -32.424  1.00  0.00     0.143 C 
HETATM    7  C   UNL     1     -13.073   4.610 -33.406  1.00  0.00     0.068 C 
HETATM    8  C   UNL     1     -11.687   4.709 -34.075  1.00  0.00     0.221 C 
HETATM    9  C   UNL     1      -9.609   3.670 -31.338  1.00  0.00     0.089 A 
HETATM   10  H   UNL     1     -12.186   2.784 -30.712  1.00  0.00     0.162 HD
ENDROOT
BRANCH   1  11
HETATM   11  C   UNL     1      -7.250   4.421 -32.081  1.00  0.00     0.276 C 
HETATM   12  N   UNL     1      -6.653   4.989 -33.190  1.00  0.00    -0.322 N 
HETATM   13  H   UNL     1      -7.312   5.212 -33.934  1.00  0.00     0.169 HD
HETATM   14  O   UNL     1      -6.687   4.044 -31.058  1.00  0.00    -0.266 OA
BRANCH  12  15
HETATM   15  C   UNL     1      -5.290   5.254 -33.410  1.00  0.00     0.037 A 
HETATM   16  C   UNL     1      -4.440   5.811 -32.454  1.00  0.00     0.059 A 
HETATM   17  C   UNL     1      -3.071   6.038 -32.711  1.00  0.00     0.042 A 
HETATM   18  C   UNL     1      -2.565   5.763 -33.991  1.00  0.00    -0.035 A 
HETATM   19  C   UNL     1      -1.170   6.082 -34.453  1.00  0.00     0.050 C 
HETATM   20  C   UNL     1      -3.423   5.178 -34.943  1.00  0.00     0.011 A 
HETATM   21  C   UNL     1      -4.767   4.929 -34.658  1.00  0.00     0.030 A 
BRANCH  17  22
HETATM   22  N   UNL     1      -2.352   6.583 -31.620  1.00  0.00    -0.327 N 
HETATM   23  C   UNL     1      -1.895   7.876 -31.455  1.00  0.00     0.218 C 
HETATM   24  C   UNL     1      -1.242   8.087 -30.109  1.00  0.00     0.117 C 
HETATM   25  O   UNL     1      -1.964   8.796 -32.259  1.00  0.00    -0.274 OA
HETATM   26  H   UNL     1      -1.919   5.898 -31.012  1.00  0.00     0.169 HD
ENDBRANCH  17  22
ENDBRANCH  12  15
ENDBRANCH   1  11
BRANCH   8  27
HETATM   27  C   UNL     1     -11.542   3.858 -35.316  1.00  0.00     0.409 C 
HETATM   28  F   UNL     1     -10.945   2.672 -35.045  1.00  0.00    -0.169 F 
HETATM   29  F   UNL     1     -12.708   3.587 -35.930  1.00  0.00    -0.169 F 
HETATM   30  F   UNL     1     -10.743   4.478 -36.222  1.00  0.00    -0.169 F 
ENDBRANCH   8  27
BRANCH   6  31
HETATM   31  C   UNL     1     -13.546   2.140 -33.097  1.00  0.00     0.075 A 
HETATM   32  O   UNL     1     -12.531   1.230 -33.174  1.00  0.00    -0.325 OA
HETATM   33  C   UNL     1     -13.016   0.148 -33.835  1.00  0.00     0.142 A 
HETATM   34  C   UNL     1     -14.329   0.347 -34.189  1.00  0.00     0.027 A 
HETATM   35  C   UNL     1     -14.671   1.638 -33.721  1.00  0.00     0.037 A 
ENDBRANCH   6  31
TORSDOF 5
ENDMDL
MODEL 10
REMARK VINA RESULT:      -8.0      3.123      4.829
REMARK  5 active torsions:
REMARK  status: ('A' for Active; 'I' for Inactive)
REMARK    1  A    between atoms: C_3  and  N_4 
REMARK       I    between atoms: N_4  and  C_5 
REMARK    2  A    between atoms: C_9  and  N_10 
REMARK       I    between atoms: N_10  and  C_11 
REMARK    3  A    between atoms: C_11  and  C_12 
REMARK    4  A    between atoms: C_17  and  C_18 
REMARK    5  A    between atoms: C_24  and  C_25 
ROOT
HETATM    1  C   UNL     1      -6.034   2.685 -31.977  1.00  0.00     0.148 A 
HETATM    2  N   UNL     1      -5.382   2.996 -33.122  1.00  0.00    -0.165 NA
HETATM    3  N   UNL     1      -4.285   3.652 -32.693  1.00  0.00    -0.240 N 
HETATM    4  C   UNL     1      -4.189   3.735 -31.331  1.00  0.00     0.123 A 
HETATM    5  N   UNL     1      -3.130   4.313 -30.728  1.00  0.00    -0.364 N 
HETATM    6  C   UNL     1      -2.133   5.070 -31.484  1.00  0.00     0.143 C 
HETATM    7  C   UNL     1      -1.966   4.457 -32.886  1.00  0.00     0.068 C 
HETATM    8  C   UNL     1      -3.292   4.166 -33.617  1.00  0.00     0.221 C 
HETATM    9  C   UNL     1      -5.311   3.126 -30.836  1.00  0.00     0.089 A 
HETATM   10  H   UNL     1      -3.152   4.514 -29.728  1.00  0.00     0.162 HD
ENDROOT
BRANCH   1  11
HETATM   11  C   UNL     1      -7.326   1.978 -31.977  1.00  0.00     0.276 C 
HETATM   12  N   UNL     1      -8.239   2.569 -32.829  1.00  0.00    -0.322 N 
HETATM   13  H   UNL     1      -7.873   3.390 -33.308  1.00  0.00     0.169 HD
HETATM   14  O   UNL     1      -7.514   0.993 -31.270  1.00  0.00    -0.266 OA
BRANCH  12  15
HETATM   15  C   UNL     1      -9.574   2.201 -33.073  1.00  0.00     0.037 A 
HETATM   16  C   UNL     1     -10.648   3.092 -33.033  1.00  0.00     0.059 A 
HETATM   17  C   UNL     1     -11.970   2.683 -33.308  1.00  0.00     0.042 A 
HETATM   18  C   UNL     1     -12.224   1.325 -33.557  1.00  0.00    -0.035 A 
HETATM   19  C   UNL     1     -13.590   0.720 -33.725  1.00  0.00     0.050 C 
HETATM   20  C   UNL     1     -11.132   0.436 -33.619  1.00  0.00     0.011 A 
HETATM   21  C   UNL     1      -9.826   0.867 -33.379  1.00  0.00     0.030 A 
BRANCH  17  22
HETATM   22  N   UNL     1     -12.929   3.723 -33.249  1.00  0.00    -0.327 N 
HETATM   23  C   UNL     1     -13.785   4.042 -32.213  1.00  0.00     0.218 C 
HETATM   24  C   UNL     1     -14.602   5.278 -32.504  1.00  0.00     0.117 C 
HETATM   25  O   UNL     1     -13.930   3.439 -31.158  1.00  0.00    -0.274 OA
HETATM   26  H   UNL     1     -13.182   4.117 -34.147  1.00  0.00     0.169 HD
ENDBRANCH  17  22
ENDBRANCH  12  15
ENDBRANCH   1  11
BRANCH   8  27
HETATM   27  C   UNL     1      -3.849   5.351 -34.374  1.00  0.00     0.409 C 
HETATM   28  F   UNL     1      -2.900   6.289 -34.609  1.00  0.00    -0.169 F 
HETATM   29  F   UNL     1      -4.396   5.030 -35.561  1.00  0.00    -0.169 F 
HETATM   30  F   UNL     1      -4.811   5.969 -33.640  1.00  0.00    -0.169 F 
ENDBRANCH   8  27
BRANCH   6  31
HETATM   31  C   UNL     1      -2.350   6.549 -31.509  1.00  0.00     0.075 A 
HETATM   32  O   UNL     1      -1.371   7.292 -32.104  1.00  0.00    -0.325 OA
HETATM   33  C   UNL     1      -1.741   8.595 -32.000  1.00  0.00     0.142 A 
HETATM   34  C   UNL     1      -2.943   8.704 -31.343  1.00  0.00     0.027 A 
HETATM   35  C   UNL     1      -3.333   7.383 -31.017  1.00  0.00     0.037 A 
ENDBRANCH   6  31
TORSDOF 5
ENDMDL
