MODEL 1
REMARK VINA RESULT:      -7.8      0.000      0.000
REMARK  6 active torsions:
REMARK  status: ('A' for Active; 'I' for Inactive)
REMARK    1  A    between atoms: C_2  and  N_3 
REMARK    2  A    between atoms: C_2  and  C_11 
REMARK       I    between atoms: N_3  and  C_4 
REMARK    3  A    between atoms: C_4  and  C_5 
REMARK    4  A    between atoms: C_14  and  O_15 
REMARK    5  A    between atoms: O_15  and  C_16 
REMARK    6  A    between atoms: C_16  and  C_17 
ROOT
HETATM    1  C   UNL     1      -5.832   2.141 -31.254  1.00  0.00    -0.036 A 
HETATM    2  C   UNL     1      -6.455   2.467 -32.470  1.00  0.00     0.012 A 
HETATM    3  C   UNL     1      -6.992   1.472 -33.296  1.00  0.00     0.037 A 
HETATM    4  C   UNL     1      -6.913   0.133 -32.919  1.00  0.00     0.069 A 
HETATM    5  C   UNL     1      -6.337  -0.197 -31.691  1.00  0.00     0.037 A 
HETATM    6  C   UNL     1      -5.805   0.794 -30.864  1.00  0.00     0.012 A 
ENDROOT
BRANCH   1   7
HETATM    7  C   UNL     1      -5.243   3.241 -30.385  1.00  0.00     0.113 C 
HETATM    8  C   UNL     1      -6.328   4.068 -29.684  1.00  0.00     0.037 C 
BRANCH   7   9
HETATM    9  N   UNL     1      -4.358   4.071 -31.187  1.00  0.00    -0.352 N 
HETATM   10  C   UNL     1      -3.101   3.654 -31.550  1.00  0.00     0.225 C 
HETATM   11  O   UNL     1      -2.613   2.583 -31.217  1.00  0.00    -0.273 OA
HETATM   12  H   UNL     1      -4.711   4.963 -31.504  1.00  0.00     0.163 HD
BRANCH  10  13
HETATM   13  C   UNL     1      -2.338   4.636 -32.355  1.00  0.00     0.119 A 
HETATM   14  C   UNL     1      -3.005   5.554 -33.345  1.00  0.00     0.126 A 
HETATM   15 CL   UNL     1      -4.729   5.506 -33.653  1.00  0.00    -0.101 Cl
HETATM   16 CL   UNL     1      -2.329   7.180 -33.514  1.00  0.00    -0.101 Cl
HETATM   17  C   UNL     1      -2.162   4.411 -33.839  1.00  0.00     0.060 A 
ENDBRANCH  10  13
ENDBRANCH   7   9
ENDBRANCH   1   7
BRANCH   4  18
HETATM   18  O   UNL     1      -7.365  -0.934 -33.641  1.00  0.00    -0.347 OA
BRANCH  18  19
HETATM   19  C   UNL     1      -6.647  -1.259 -34.832  1.00  0.00     0.215 C 
BRANCH  19  20
HETATM   20  C   UNL     1      -5.974  -2.589 -34.637  1.00  0.00    -0.017 A 
HETATM   21  C   UNL     1      -6.612  -3.779 -34.971  1.00  0.00     0.125 A 
HETATM   22  N   UNL     1      -6.046  -5.003 -34.855  1.00  0.00    -0.272 NA
HETATM   23  C   UNL     1      -4.784  -5.045 -34.379  1.00  0.00     0.116 A 
HETATM   24  C   UNL     1      -4.058  -3.924 -34.019  1.00  0.00     0.020 A 
HETATM   25  C   UNL     1      -4.664  -2.678 -34.155  1.00  0.00     0.012 A 
ENDBRANCH  19  20
ENDBRANCH  18  19
ENDBRANCH   4  18
TORSDOF 6
ENDMDL
MODEL 2
REMARK VINA RESULT:      -7.7      2.879      4.308
REMARK  6 active torsions:
REMARK  status: ('A' for Active; 'I' for Inactive)
REMARK    1  A    between atoms: C_2  and  N_3 
REMARK    2  A    between atoms: C_2  and  C_11 
REMARK       I    between atoms: N_3  and  C_4 
REMARK    3  A    between atoms: C_4  and  C_5 
REMARK    4  A    between atoms: C_14  and  O_15 
REMARK    5  A    between atoms: O_15  and  C_16 
REMARK    6  A    between atoms: C_16  and  C_17 
ROOT
HETATM    1  C   UNL     1      -3.608   4.833 -33.503  1.00  0.00    -0.036 A 
HETATM    2  C   UNL     1      -3.359   3.756 -32.638  1.00  0.00     0.012 A 
HETATM    3  C   UNL     1      -4.291   2.720 -32.489  1.00  0.00     0.037 A 
HETATM    4  C   UNL     1      -5.486   2.747 -33.204  1.00  0.00     0.069 A 
HETATM    5  C   UNL     1      -5.720   3.789 -34.101  1.00  0.00     0.037 A 
HETATM    6  C   UNL     1      -4.792   4.821 -34.254  1.00  0.00     0.012 A 
ENDROOT
BRANCH   1   7
HETATM    7  C   UNL     1      -2.586   5.953 -33.633  1.00  0.00     0.113 C 
HETATM    8  C   UNL     1      -1.423   5.571 -34.558  1.00  0.00     0.037 C 
BRANCH   7   9
HETATM    9  N   UNL     1      -2.124   6.342 -32.311  1.00  0.00    -0.352 N 
HETATM   10  C   UNL     1      -1.728   7.627 -32.027  1.00  0.00     0.225 C 
HETATM   11  O   UNL     1      -1.705   8.531 -32.851  1.00  0.00    -0.273 OA
HETATM   12  H   UNL     1      -2.134   5.640 -31.584  1.00  0.00     0.163 HD
BRANCH  10  13
HETATM   13  C   UNL     1      -1.276   7.836 -30.633  1.00  0.00     0.119 A 
HETATM   14  C   UNL     1      -0.151   7.041 -30.025  1.00  0.00     0.126 A 
HETATM   15 CL   UNL     1       0.685   5.778 -30.906  1.00  0.00    -0.101 Cl
HETATM   16 CL   UNL     1       0.903   7.885 -28.882  1.00  0.00    -0.101 Cl
HETATM   17  C   UNL     1      -1.566   6.785 -29.586  1.00  0.00     0.060 A 
ENDBRANCH  10  13
ENDBRANCH   7   9
ENDBRANCH   1   7
BRANCH   4  18
HETATM   18  O   UNL     1      -6.489   1.823 -33.129  1.00  0.00    -0.347 OA
BRANCH  18  19
HETATM   19  C   UNL     1      -6.260   0.688 -32.294  1.00  0.00     0.215 C 
BRANCH  19  20
HETATM   20  C   UNL     1      -5.972  -0.500 -33.170  1.00  0.00    -0.017 A 
HETATM   21  C   UNL     1      -4.699  -1.056 -33.241  1.00  0.00     0.125 A 
HETATM   22  N   UNL     1      -4.385  -2.145 -33.979  1.00  0.00    -0.272 NA
HETATM   23  C   UNL     1      -5.387  -2.708 -34.686  1.00  0.00     0.116 A 
HETATM   24  C   UNL     1      -6.688  -2.240 -34.686  1.00  0.00     0.020 A 
HETATM   25  C   UNL     1      -6.982  -1.120 -33.912  1.00  0.00     0.012 A 
ENDBRANCH  19  20
ENDBRANCH  18  19
ENDBRANCH   4  18
TORSDOF 6
ENDMDL
MODEL 3
REMARK VINA RESULT:      -7.7      2.520      3.292
REMARK  6 active torsions:
REMARK  status: ('A' for Active; 'I' for Inactive)
REMARK    1  A    between atoms: C_2  and  N_3 
REMARK    2  A    between atoms: C_2  and  C_11 
REMARK       I    between atoms: N_3  and  C_4 
REMARK    3  A    between atoms: C_4  and  C_5 
REMARK    4  A    between atoms: C_14  and  O_15 
REMARK    5  A    between atoms: O_15  and  C_16 
REMARK    6  A    between atoms: C_16  and  C_17 
ROOT
HETATM    1  C   UNL     1      -4.261   3.524 -33.098  1.00  0.00    -0.036 A 
HETATM    2  C   UNL     1      -5.538   3.348 -33.654  1.00  0.00     0.012 A 
HETATM    3  C   UNL     1      -6.173   2.100 -33.623  1.00  0.00     0.037 A 
HETATM    4  C   UNL     1      -5.540   1.008 -33.035  1.00  0.00     0.069 A 
HETATM    5  C   UNL     1      -4.291   1.185 -32.438  1.00  0.00     0.037 A 
HETATM    6  C   UNL     1      -3.657   2.428 -32.465  1.00  0.00     0.012 A 
ENDROOT
BRANCH   1   7
HETATM    7  C   UNL     1      -3.587   4.886 -33.161  1.00  0.00     0.113 C 
HETATM    8  C   UNL     1      -3.490   5.418 -34.597  1.00  0.00     0.037 C 
BRANCH   7   9
HETATM    9  N   UNL     1      -2.285   4.812 -32.519  1.00  0.00    -0.352 N 
HETATM   10  C   UNL     1      -1.626   5.934 -32.078  1.00  0.00     0.225 C 
HETATM   11  O   UNL     1      -2.054   7.073 -32.208  1.00  0.00    -0.273 OA
HETATM   12  H   UNL     1      -1.885   3.896 -32.372  1.00  0.00     0.163 HD
BRANCH  10  13
HETATM   13  C   UNL     1      -0.306   5.668 -31.462  1.00  0.00     0.119 A 
HETATM   14  C   UNL     1      -0.010   6.001 -30.023  1.00  0.00     0.126 A 
HETATM   15 CL   UNL     1      -1.189   6.766 -28.977  1.00  0.00    -0.101 Cl
HETATM   16 CL   UNL     1       1.062   4.899 -29.148  1.00  0.00    -0.101 Cl
HETATM   17  C   UNL     1       0.607   6.823 -31.120  1.00  0.00     0.060 A 
ENDBRANCH  10  13
ENDBRANCH   7   9
ENDBRANCH   1   7
BRANCH   4  18
HETATM   18  O   UNL     1      -6.031  -0.264 -32.964  1.00  0.00    -0.347 OA
BRANCH  18  19
HETATM   19  C   UNL     1      -6.571  -0.816 -34.165  1.00  0.00     0.215 C 
BRANCH  19  20
HETATM   20  C   UNL     1      -6.044  -2.215 -34.328  1.00  0.00    -0.017 A 
HETATM   21  C   UNL     1      -4.732  -2.537 -33.998  1.00  0.00     0.125 A 
HETATM   22  N   UNL     1      -4.210  -3.782 -34.087  1.00  0.00    -0.272 NA
HETATM   23  C   UNL     1      -5.034  -4.755 -34.529  1.00  0.00     0.116 A 
HETATM   24  C   UNL     1      -6.355  -4.546 -34.882  1.00  0.00     0.020 A 
HETATM   25  C   UNL     1      -6.866  -3.255 -34.775  1.00  0.00     0.012 A 
ENDBRANCH  19  20
ENDBRANCH  18  19
ENDBRANCH   4  18
TORSDOF 6
ENDMDL
MODEL 4
REMARK VINA RESULT:      -7.5      3.978      5.781
REMARK  6 active torsions:
REMARK  status: ('A' for Active; 'I' for Inactive)
REMARK    1  A    between atoms: C_2  and  N_3 
REMARK    2  A    between atoms: C_2  and  C_11 
REMARK       I    between atoms: N_3  and  C_4 
REMARK    3  A    between atoms: C_4  and  C_5 
REMARK    4  A    between atoms: C_14  and  O_15 
REMARK    5  A    between atoms: O_15  and  C_16 
REMARK    6  A    between atoms: C_16  and  C_17 
ROOT
HETATM    1  C   UNL     1      -7.809   2.517 -32.155  1.00  0.00    -0.036 A 
HETATM    2  C   UNL     1      -8.019   1.393 -31.340  1.00  0.00     0.012 A 
HETATM    3  C   UNL     1      -7.130   0.311 -31.358  1.00  0.00     0.037 A 
HETATM    4  C   UNL     1      -6.014   0.337 -32.192  1.00  0.00     0.069 A 
HETATM    5  C   UNL     1      -5.772   1.470 -32.971  1.00  0.00     0.037 A 
HETATM    6  C   UNL     1      -6.655   2.550 -32.953  1.00  0.00     0.012 A 
ENDROOT
BRANCH   1   7
HETATM    7  C   UNL     1      -8.800   3.670 -32.128  1.00  0.00     0.113 C 
HETATM    8  C   UNL     1      -8.856   4.353 -30.755  1.00  0.00     0.037 C 
BRANCH   7   9
HETATM    9  N   UNL     1     -10.107   3.194 -32.553  1.00  0.00    -0.352 N 
HETATM   10  C   UNL     1     -10.517   3.267 -33.862  1.00  0.00     0.225 C 
HETATM   11  O   UNL     1      -9.844   3.750 -34.762  1.00  0.00    -0.273 OA
HETATM   12  H   UNL     1     -10.703   2.772 -31.855  1.00  0.00     0.163 HD
BRANCH  10  13
HETATM   13  C   UNL     1     -11.882   2.748 -34.107  1.00  0.00     0.119 A 
HETATM   14  C   UNL     1     -12.261   1.318 -33.825  1.00  0.00     0.126 A 
HETATM   15 CL   UNL     1     -11.107   0.145 -33.222  1.00  0.00    -0.101 Cl
HETATM   16 CL   UNL     1     -13.902   1.024 -33.232  1.00  0.00    -0.101 Cl
HETATM   17  C   UNL     1     -12.124   1.785 -35.247  1.00  0.00     0.060 A 
ENDBRANCH  10  13
ENDBRANCH   7   9
ENDBRANCH   1   7
BRANCH   4  18
HETATM   18  O   UNL     1      -5.089  -0.658 -32.330  1.00  0.00    -0.347 OA
BRANCH  18  19
HETATM   19  C   UNL     1      -4.595  -0.903 -33.647  1.00  0.00     0.215 C 
BRANCH  19  20
HETATM   20  C   UNL     1      -5.072  -2.258 -34.092  1.00  0.00    -0.017 A 
HETATM   21  C   UNL     1      -4.241  -3.372 -34.034  1.00  0.00     0.125 A 
HETATM   22  N   UNL     1      -4.621  -4.623 -34.384  1.00  0.00    -0.272 NA
HETATM   23  C   UNL     1      -5.891  -4.772 -34.816  1.00  0.00     0.116 A 
HETATM   24  C   UNL     1      -6.800  -3.734 -34.911  1.00  0.00     0.020 A 
HETATM   25  C   UNL     1      -6.381  -2.459 -34.539  1.00  0.00     0.012 A 
ENDBRANCH  19  20
ENDBRANCH  18  19
ENDBRANCH   4  18
TORSDOF 6
ENDMDL
MODEL 5
REMARK VINA RESULT:      -7.5      1.727      2.351
REMARK  6 active torsions:
REMARK  status: ('A' for Active; 'I' for Inactive)
REMARK    1  A    between atoms: C_2  and  N_3 
REMARK    2  A    between atoms: C_2  and  C_11 
REMARK       I    between atoms: N_3  and  C_4 
REMARK    3  A    between atoms: C_4  and  C_5 
REMARK    4  A    between atoms: C_14  and  O_15 
REMARK    5  A    between atoms: O_15  and  C_16 
REMARK    6  A    between atoms: C_16  and  C_17 
ROOT
HETATM    1  C   UNL     1      -5.819   3.085 -32.421  1.00  0.00    -0.036 A 
HETATM    2  C   UNL     1      -5.690   2.065 -31.465  1.00  0.00     0.012 A 
HETATM    3  C   UNL     1      -6.104   0.757 -31.746  1.00  0.00     0.037 A 
HETATM    4  C   UNL     1      -6.653   0.449 -32.988  1.00  0.00     0.069 A 
HETATM    5  C   UNL     1      -6.741   1.446 -33.960  1.00  0.00     0.037 A 
HETATM    6  C   UNL     1      -6.327   2.750 -33.684  1.00  0.00     0.012 A 
ENDROOT
BRANCH   1   7
HETATM    7  C   UNL     1      -5.377   4.501 -32.083  1.00  0.00     0.113 C 
HETATM    8  C   UNL     1      -6.006   5.542 -33.018  1.00  0.00     0.037 C 
BRANCH   7   9
HETATM    9  N   UNL     1      -3.924   4.569 -32.092  1.00  0.00    -0.352 N 
HETATM   10  C   UNL     1      -3.232   5.436 -31.282  1.00  0.00     0.225 C 
HETATM   11  O   UNL     1      -3.764   6.228 -30.517  1.00  0.00    -0.273 OA
HETATM   12  H   UNL     1      -3.428   3.929 -32.696  1.00  0.00     0.163 HD
BRANCH  10  13
HETATM   13  C   UNL     1      -1.760   5.377 -31.436  1.00  0.00     0.119 A 
HETATM   14  C   UNL     1      -0.954   6.556 -31.913  1.00  0.00     0.126 A 
HETATM   15 CL   UNL     1      -1.698   8.078 -32.362  1.00  0.00    -0.101 Cl
HETATM   16 CL   UNL     1       0.655   6.768 -31.209  1.00  0.00    -0.101 Cl
HETATM   17  C   UNL     1      -1.151   5.374 -32.819  1.00  0.00     0.060 A 
ENDBRANCH  10  13
ENDBRANCH   7   9
ENDBRANCH   1   7
BRANCH   4  18
HETATM   18  O   UNL     1      -7.123  -0.772 -33.380  1.00  0.00    -0.347 OA
BRANCH  18  19
HETATM   19  C   UNL     1      -6.788  -1.201 -34.700  1.00  0.00     0.215 C 
BRANCH  19  20
HETATM   20  C   UNL     1      -6.033  -2.498 -34.604  1.00  0.00    -0.017 A 
HETATM   21  C   UNL     1      -4.735  -2.545 -34.106  1.00  0.00     0.125 A 
HETATM   22  N   UNL     1      -4.018  -3.683 -33.960  1.00  0.00    -0.272 NA
HETATM   23  C   UNL     1      -4.621  -4.832 -34.332  1.00  0.00     0.116 A 
HETATM   24  C   UNL     1      -5.907  -4.899 -34.837  1.00  0.00     0.020 A 
HETATM   25  C   UNL     1      -6.622  -3.712 -34.970  1.00  0.00     0.012 A 
ENDBRANCH  19  20
ENDBRANCH  18  19
ENDBRANCH   4  18
TORSDOF 6
ENDMDL
MODEL 6
REMARK VINA RESULT:      -7.3      4.487      8.279
REMARK  6 active torsions:
REMARK  status: ('A' for Active; 'I' for Inactive)
REMARK    1  A    between atoms: C_2  and  N_3 
REMARK    2  A    between atoms: C_2  and  C_11 
REMARK       I    between atoms: N_3  and  C_4 
REMARK    3  A    between atoms: C_4  and  C_5 
REMARK    4  A    between atoms: C_14  and  O_15 
REMARK    5  A    between atoms: O_15  and  C_16 
REMARK    6  A    between atoms: C_16  and  C_17 
ROOT
HETATM    1  C   UNL     1      -6.960   1.345 -33.342  1.00  0.00    -0.036 A 
HETATM    2  C   UNL     1      -5.846   0.749 -32.730  1.00  0.00     0.012 A 
HETATM    3  C   UNL     1      -4.883   1.526 -32.073  1.00  0.00     0.037 A 
HETATM    4  C   UNL     1      -5.019   2.911 -32.019  1.00  0.00     0.069 A 
HETATM    5  C   UNL     1      -6.147   3.507 -32.584  1.00  0.00     0.037 A 
HETATM    6  C   UNL     1      -7.110   2.735 -33.237  1.00  0.00     0.012 A 
ENDROOT
BRANCH   1   7
HETATM    7  C   UNL     1      -7.982   0.479 -34.063  1.00  0.00     0.113 C 
HETATM    8  C   UNL     1      -7.486   0.024 -35.442  1.00  0.00     0.037 C 
BRANCH   7   9
HETATM    9  N   UNL     1      -9.246   1.193 -34.149  1.00  0.00    -0.352 N 
HETATM   10  C   UNL     1     -10.363   0.778 -33.465  1.00  0.00     0.225 C 
HETATM   11  O   UNL     1     -10.401  -0.221 -32.760  1.00  0.00    -0.273 OA
HETATM   12  H   UNL     1      -9.273   2.035 -34.706  1.00  0.00     0.163 HD
BRANCH  10  13
HETATM   13  C   UNL     1     -11.563   1.619 -33.683  1.00  0.00     0.119 A 
HETATM   14  C   UNL     1     -12.953   1.041 -33.719  1.00  0.00     0.126 A 
HETATM   15 CL   UNL     1     -13.258  -0.676 -33.548  1.00  0.00    -0.101 Cl
HETATM   16 CL   UNL     1     -14.254   2.032 -33.045  1.00  0.00    -0.101 Cl
HETATM   17  C   UNL     1     -12.315   1.527 -34.990  1.00  0.00     0.060 A 
ENDBRANCH  10  13
ENDBRANCH   7   9
ENDBRANCH   1   7
BRANCH   4  18
HETATM   18  O   UNL     1      -4.142   3.784 -31.441  1.00  0.00    -0.347 OA
BRANCH  18  19
HETATM   19  C   UNL     1      -2.752   3.505 -31.604  1.00  0.00     0.215 C 
BRANCH  19  20
HETATM   20  C   UNL     1      -2.151   4.569 -32.481  1.00  0.00    -0.017 A 
HETATM   21  C   UNL     1      -2.294   4.533 -33.864  1.00  0.00     0.125 A 
HETATM   22  N   UNL     1      -1.810   5.478 -34.703  1.00  0.00    -0.272 NA
HETATM   23  C   UNL     1      -1.146   6.508 -34.138  1.00  0.00     0.116 A 
HETATM   24  C   UNL     1      -0.948   6.643 -32.776  1.00  0.00     0.020 A 
HETATM   25  C   UNL     1      -1.462   5.658 -31.937  1.00  0.00     0.012 A 
ENDBRANCH  19  20
ENDBRANCH  18  19
ENDBRANCH   4  18
TORSDOF 6
ENDMDL
MODEL 7
REMARK VINA RESULT:      -7.3      1.880      2.084
REMARK  6 active torsions:
REMARK  status: ('A' for Active; 'I' for Inactive)
REMARK    1  A    between atoms: C_2  and  N_3 
REMARK    2  A    between atoms: C_2  and  C_11 
REMARK       I    between atoms: N_3  and  C_4 
REMARK    3  A    between atoms: C_4  and  C_5 
REMARK    4  A    between atoms: C_14  and  O_15 
REMARK    5  A    between atoms: O_15  and  C_16 
REMARK    6  A    between atoms: C_16  and  C_17 
ROOT
HETATM    1  C   UNL     1      -6.544   3.223 -32.503  1.00  0.00    -0.036 A 
HETATM    2  C   UNL     1      -7.815   2.675 -32.263  1.00  0.00     0.012 A 
HETATM    3  C   UNL     1      -8.070   1.317 -32.488  1.00  0.00     0.037 A 
HETATM    4  C   UNL     1      -7.057   0.484 -32.958  1.00  0.00     0.069 A 
HETATM    5  C   UNL     1      -5.779   1.009 -33.155  1.00  0.00     0.037 A 
HETATM    6  C   UNL     1      -5.521   2.362 -32.928  1.00  0.00     0.012 A 
ENDROOT
BRANCH   1   7
HETATM    7  C   UNL     1      -6.300   4.705 -32.266  1.00  0.00     0.113 C 
HETATM    8  C   UNL     1      -7.570   5.541 -32.467  1.00  0.00     0.037 C 
BRANCH   7   9
HETATM    9  N   UNL     1      -5.210   5.158 -33.115  1.00  0.00    -0.352 N 
HETATM   10  C   UNL     1      -4.181   5.927 -32.631  1.00  0.00     0.225 C 
HETATM   11  O   UNL     1      -4.104   6.314 -31.473  1.00  0.00    -0.273 OA
HETATM   12  H   UNL     1      -5.212   4.859 -34.080  1.00  0.00     0.163 HD
BRANCH  10  13
HETATM   13  C   UNL     1      -3.168   6.306 -33.643  1.00  0.00     0.119 A 
HETATM   14  C   UNL     1      -1.727   5.883 -33.534  1.00  0.00     0.126 A 
HETATM   15 CL   UNL     1      -1.126   4.944 -32.182  1.00  0.00    -0.101 Cl
HETATM   16 CL   UNL     1      -0.880   5.519 -35.044  1.00  0.00    -0.101 Cl
HETATM   17  C   UNL     1      -2.102   7.318 -33.292  1.00  0.00     0.060 A 
ENDBRANCH  10  13
ENDBRANCH   7   9
ENDBRANCH   1   7
BRANCH   4  18
HETATM   18  O   UNL     1      -7.177  -0.845 -33.249  1.00  0.00    -0.347 OA
BRANCH  18  19
HETATM   19  C   UNL     1      -6.860  -1.246 -34.582  1.00  0.00     0.215 C 
BRANCH  19  20
HETATM   20  C   UNL     1      -6.148  -2.569 -34.526  1.00  0.00    -0.017 A 
HETATM   21  C   UNL     1      -6.781  -3.749 -34.903  1.00  0.00     0.125 A 
HETATM   22  N   UNL     1      -6.184  -4.963 -34.911  1.00  0.00    -0.272 NA
HETATM   23  C   UNL     1      -4.893  -5.007 -34.521  1.00  0.00     0.116 A 
HETATM   24  C   UNL     1      -4.168  -3.896 -34.129  1.00  0.00     0.020 A 
HETATM   25  C   UNL     1      -4.808  -2.659 -34.137  1.00  0.00     0.012 A 
ENDBRANCH  19  20
ENDBRANCH  18  19
ENDBRANCH   4  18
TORSDOF 6
ENDMDL
MODEL 8
REMARK VINA RESULT:      -7.2      3.384      8.111
REMARK  6 active torsions:
REMARK  status: ('A' for Active; 'I' for Inactive)
REMARK    1  A    between atoms: C_2  and  N_3 
REMARK    2  A    between atoms: C_2  and  C_11 
REMARK       I    between atoms: N_3  and  C_4 
REMARK    3  A    between atoms: C_4  and  C_5 
REMARK    4  A    between atoms: C_14  and  O_15 
REMARK    5  A    between atoms: O_15  and  C_16 
REMARK    6  A    between atoms: C_16  and  C_17 
ROOT
HETATM    1  C   UNL     1      -5.235   2.449 -31.124  1.00  0.00    -0.036 A 
HETATM    2  C   UNL     1      -4.038   2.043 -31.735  1.00  0.00     0.012 A 
HETATM    3  C   UNL     1      -3.084   2.982 -32.148  1.00  0.00     0.037 A 
HETATM    4  C   UNL     1      -3.315   4.343 -31.956  1.00  0.00     0.069 A 
HETATM    5  C   UNL     1      -4.481   4.752 -31.308  1.00  0.00     0.037 A 
HETATM    6  C   UNL     1      -5.431   3.818 -30.892  1.00  0.00     0.012 A 
ENDROOT
BRANCH   1   7
HETATM    7  C   UNL     1      -6.261   1.408 -30.700  1.00  0.00     0.113 C 
HETATM    8  C   UNL     1      -5.824   0.644 -29.444  1.00  0.00     0.037 C 
BRANCH   7   9
HETATM    9  N   UNL     1      -6.532   0.514 -31.814  1.00  0.00    -0.352 N 
HETATM   10  C   UNL     1      -7.419   0.841 -32.810  1.00  0.00     0.225 C 
HETATM   11  O   UNL     1      -8.066   1.879 -32.835  1.00  0.00    -0.273 OA
HETATM   12  H   UNL     1      -6.017  -0.354 -31.856  1.00  0.00     0.163 HD
BRANCH  10  13
HETATM   13  C   UNL     1      -7.579  -0.196 -33.856  1.00  0.00     0.119 A 
HETATM   14  C   UNL     1      -6.420  -1.017 -34.355  1.00  0.00     0.126 A 
HETATM   15 CL   UNL     1      -4.785  -0.784 -33.769  1.00  0.00    -0.101 Cl
HETATM   16 CL   UNL     1      -6.754  -2.701 -34.784  1.00  0.00    -0.101 Cl
HETATM   17  C   UNL     1      -7.017   0.042 -35.238  1.00  0.00     0.060 A 
ENDBRANCH  10  13
ENDBRANCH   7   9
ENDBRANCH   1   7
BRANCH   4  18
HETATM   18  O   UNL     1      -2.487   5.360 -32.338  1.00  0.00    -0.347 OA
BRANCH  18  19
HETATM   19  C   UNL     1      -1.083   5.113 -32.267  1.00  0.00     0.215 C 
BRANCH  19  20
HETATM   20  C   UNL     1      -0.560   5.695 -30.983  1.00  0.00    -0.017 A 
HETATM   21  C   UNL     1       0.171   4.925 -30.084  1.00  0.00     0.125 A 
HETATM   22  N   UNL     1       0.700   5.398 -28.932  1.00  0.00    -0.272 NA
HETATM   23  C   UNL     1       0.489   6.703 -28.659  1.00  0.00     0.116 A 
HETATM   24  C   UNL     1      -0.220   7.558 -29.483  1.00  0.00     0.020 A 
HETATM   25  C   UNL     1      -0.748   7.043 -30.664  1.00  0.00     0.012 A 
ENDBRANCH  19  20
ENDBRANCH  18  19
ENDBRANCH   4  18
TORSDOF 6
ENDMDL
MODEL 9
REMARK VINA RESULT:      -7.1      3.421      8.282
REMARK  6 active torsions:
REMARK  status: ('A' for Active; 'I' for Inactive)
REMARK    1  A    between atoms: C_2  and  N_3 
REMARK    2  A    between atoms: C_2  and  C_11 
REMARK       I    between atoms: N_3  and  C_4 
REMARK    3  A    between atoms: C_4  and  C_5 
REMARK    4  A    between atoms: C_14  and  O_15 
REMARK    5  A    between atoms: O_15  and  C_16 
REMARK    6  A    between atoms: C_16  and  C_17 
ROOT
HETATM    1  C   UNL     1      -5.805   1.186 -32.517  1.00  0.00    -0.036 A 
HETATM    2  C   UNL     1      -5.759   2.544 -32.870  1.00  0.00     0.012 A 
HETATM    3  C   UNL     1      -4.608   3.310 -32.644  1.00  0.00     0.037 A 
HETATM    4  C   UNL     1      -3.484   2.728 -32.062  1.00  0.00     0.069 A 
HETATM    5  C   UNL     1      -3.505   1.367 -31.752  1.00  0.00     0.037 A 
HETATM    6  C   UNL     1      -4.649   0.601 -31.978  1.00  0.00     0.012 A 
ENDROOT
BRANCH   1   7
HETATM    7  C   UNL     1      -7.073   0.382 -32.758  1.00  0.00     0.113 C 
HETATM    8  C   UNL     1      -8.030   0.437 -31.560  1.00  0.00     0.037 C 
BRANCH   7   9
HETATM    9  N   UNL     1      -6.721  -0.984 -33.110  1.00  0.00    -0.352 N 
HETATM   10  C   UNL     1      -6.908  -1.480 -34.377  1.00  0.00     0.225 C 
HETATM   11  O   UNL     1      -7.401  -0.840 -35.296  1.00  0.00    -0.273 OA
HETATM   12  H   UNL     1      -6.296  -1.559 -32.396  1.00  0.00     0.163 HD
BRANCH  10  13
HETATM   13  C   UNL     1      -6.505  -2.895 -34.549  1.00  0.00     0.119 A 
HETATM   14  C   UNL     1      -5.070  -3.339 -34.444  1.00  0.00     0.126 A 
HETATM   15 CL   UNL     1      -3.759  -2.213 -34.152  1.00  0.00    -0.101 Cl
HETATM   16 CL   UNL     1      -4.771  -4.930 -33.729  1.00  0.00    -0.101 Cl
HETATM   17  C   UNL     1      -5.745  -3.312 -35.787  1.00  0.00     0.060 A 
ENDBRANCH  10  13
ENDBRANCH   7   9
ENDBRANCH   1   7
BRANCH   4  18
HETATM   18  O   UNL     1      -2.314   3.364 -31.759  1.00  0.00    -0.347 OA
BRANCH  18  19
HETATM   19  C   UNL     1      -2.009   4.543 -32.503  1.00  0.00     0.215 C 
BRANCH  19  20
HETATM   20  C   UNL     1      -1.474   5.582 -31.556  1.00  0.00    -0.017 A 
HETATM   21  C   UNL     1      -2.322   6.315 -30.733  1.00  0.00     0.125 A 
HETATM   22  N   UNL     1      -1.900   7.235 -29.835  1.00  0.00    -0.272 NA
HETATM   23  C   UNL     1      -0.568   7.438 -29.754  1.00  0.00     0.116 A 
HETATM   24  C   UNL     1       0.362   6.763 -30.523  1.00  0.00     0.020 A 
HETATM   25  C   UNL     1      -0.101   5.818 -31.435  1.00  0.00     0.012 A 
ENDBRANCH  19  20
ENDBRANCH  18  19
ENDBRANCH   4  18
TORSDOF 6
ENDMDL
MODEL 10
REMARK VINA RESULT:      -6.9      3.138      7.927
REMARK  6 active torsions:
REMARK  status: ('A' for Active; 'I' for Inactive)
REMARK    1  A    between atoms: C_2  and  N_3 
REMARK    2  A    between atoms: C_2  and  C_11 
REMARK       I    between atoms: N_3  and  C_4 
REMARK    3  A    between atoms: C_4  and  C_5 
REMARK    4  A    between atoms: C_14  and  O_15 
REMARK    5  A    between atoms: O_15  and  C_16 
REMARK    6  A    between atoms: C_16  and  C_17 
ROOT
HETATM    1  C   UNL     1      -6.106   0.607 -32.983  1.00  0.00    -0.036 A 
HETATM    2  C   UNL     1      -6.246   2.004 -32.970  1.00  0.00     0.012 A 
HETATM    3  C   UNL     1      -5.168   2.835 -32.640  1.00  0.00     0.037 A 
HETATM    4  C   UNL     1      -3.932   2.281 -32.316  1.00  0.00     0.069 A 
HETATM    5  C   UNL     1      -3.770   0.896 -32.372  1.00  0.00     0.037 A 
HETATM    6  C   UNL     1      -4.842   0.066 -32.704  1.00  0.00     0.012 A 
ENDROOT
BRANCH   1   7
HETATM    7  C   UNL     1      -7.297  -0.272 -33.329  1.00  0.00     0.113 C 
HETATM    8  C   UNL     1      -6.905  -1.449 -34.232  1.00  0.00     0.037 C 
BRANCH   7   9
HETATM    9  N   UNL     1      -8.344   0.544 -33.922  1.00  0.00    -0.352 N 
HETATM   10  C   UNL     1      -9.650   0.467 -33.504  1.00  0.00     0.225 C 
HETATM   11  O   UNL     1     -10.045  -0.296 -32.634  1.00  0.00    -0.273 OA
HETATM   12  H   UNL     1      -8.076   1.204 -34.639  1.00  0.00     0.163 HD
BRANCH  10  13
HETATM   13  C   UNL     1     -10.581   1.361 -34.231  1.00  0.00     0.119 A 
HETATM   14  C   UNL     1     -10.583   2.854 -34.029  1.00  0.00     0.126 A 
HETATM   15 CL   UNL     1      -9.514   3.646 -32.889  1.00  0.00    -0.101 Cl
HETATM   16 CL   UNL     1     -10.930   3.856 -35.445  1.00  0.00    -0.101 Cl
HETATM   17  C   UNL     1     -11.715   2.027 -33.487  1.00  0.00     0.060 A 
ENDBRANCH  10  13
ENDBRANCH   7   9
ENDBRANCH   1   7
BRANCH   4  18
HETATM   18  O   UNL     1      -2.813   2.971 -31.947  1.00  0.00    -0.347 OA
BRANCH  18  19
HETATM   19  C   UNL     1      -2.368   4.000 -32.831  1.00  0.00     0.215 C 
BRANCH  19  20
HETATM   20  C   UNL     1      -1.888   5.164 -32.007  1.00  0.00    -0.017 A 
HETATM   21  C   UNL     1      -2.666   5.695 -30.984  1.00  0.00     0.125 A 
HETATM   22  N   UNL     1      -2.276   6.715 -30.185  1.00  0.00    -0.272 NA
HETATM   23  C   UNL     1      -1.053   7.235 -30.417  1.00  0.00     0.116 A 
HETATM   24  C   UNL     1      -0.198   6.781 -31.406  1.00  0.00     0.020 A 
HETATM   25  C   UNL     1      -0.624   5.727 -32.209  1.00  0.00     0.012 A 
ENDBRANCH  19  20
ENDBRANCH  18  19
ENDBRANCH   4  18
TORSDOF 6
ENDMDL
