MODEL 1
REMARK VINA RESULT:      -7.9      0.000      0.000
REMARK  2 active torsions:
REMARK  status: ('A' for Active; 'I' for Inactive)
REMARK    1  A    between atoms: S_2  and  N_3 
REMARK    2  A    between atoms: C_10  and  N_11 
ROOT
HETATM    1  N   UNL     1      -7.928   1.491 -32.218  1.00  0.00    -0.311 N 
HETATM    2  C   UNL     1      -7.509   1.690 -33.620  1.00  0.00     0.138 C 
HETATM    3  C   UNL     1      -6.021   1.398 -33.745  1.00  0.00     0.059 C 
HETATM    4  C   UNL     1      -5.652  -0.024 -33.255  1.00  0.00     0.073 C 
HETATM    5  O   UNL     1      -6.230  -0.949 -34.190  1.00  0.00    -0.339 OA
HETATM    6  C   UNL     1      -5.727  -2.220 -34.213  1.00  0.00     0.078 A 
HETATM    7  C   UNL     1      -4.476  -2.575 -33.698  1.00  0.00     0.005 A 
HETATM    8  C   UNL     1      -3.587  -1.543 -33.078  1.00  0.00     0.222 C 
HETATM    9  C   UNL     1      -4.113  -0.128 -33.285  1.00  0.00     0.076 C 
HETATM   10  C   UNL     1      -6.539  -3.173 -34.825  1.00  0.00     0.037 A 
HETATM   11  C   UNL     1      -6.119  -4.499 -34.913  1.00  0.00     0.003 A 
HETATM   12  C   UNL     1      -4.879  -4.869 -34.402  1.00  0.00     0.001 A 
HETATM   13  C   UNL     1      -4.056  -3.913 -33.802  1.00  0.00     0.012 A 
HETATM   14  C   UNL     1      -6.258  -0.288 -31.856  1.00  0.00     0.059 C 
HETATM   15  C   UNL     1      -7.737   0.104 -31.762  1.00  0.00     0.138 C 
ENDROOT
BRANCH   8  16
HETATM   16  N   UNL     1      -3.358  -1.797 -31.627  1.00  0.00    -0.071 N 
HETATM   17  H   UNL     1      -2.835  -1.038 -31.177  1.00  0.00     0.275 HD
HETATM   18  H   UNL     1      -4.255  -1.867 -31.130  1.00  0.00     0.275 HD
HETATM   19  H   UNL     1      -2.851  -2.677 -31.464  1.00  0.00     0.275 HD
ENDBRANCH   8  16
BRANCH   1  20
HETATM   20  S   UNL     1      -7.664   2.750 -31.113  1.00  0.00     0.224 S 
HETATM   21  C   UNL     1      -9.320   3.056 -30.539  1.00  0.00     0.186 C 
HETATM   22  O   UNL     1      -7.218   3.914 -31.845  1.00  0.00    -0.206 OA
HETATM   23  O   UNL     1      -6.877   2.209 -30.022  1.00  0.00    -0.206 OA
ENDBRANCH   1  20
TORSDOF 2
ENDMDL
MODEL 2
REMARK VINA RESULT:      -7.3      2.186      3.409
REMARK  2 active torsions:
REMARK  status: ('A' for Active; 'I' for Inactive)
REMARK    1  A    between atoms: S_2  and  N_3 
REMARK    2  A    between atoms: C_10  and  N_11 
ROOT
HETATM    1  N   UNL     1      -4.949   3.288 -31.357  1.00  0.00    -0.311 N 
HETATM    2  C   UNL     1      -5.278   2.253 -30.358  1.00  0.00     0.138 C 
HETATM    3  C   UNL     1      -6.572   1.561 -30.759  1.00  0.00     0.059 C 
HETATM    4  C   UNL     1      -6.503   0.952 -32.182  1.00  0.00     0.073 C 
HETATM    5  O   UNL     1      -5.571  -0.141 -32.121  1.00  0.00    -0.339 OA
HETATM    6  C   UNL     1      -5.630  -1.075 -33.117  1.00  0.00     0.078 A 
HETATM    7  C   UNL     1      -6.739  -1.264 -33.947  1.00  0.00     0.005 A 
HETATM    8  C   UNL     1      -7.969  -0.429 -33.778  1.00  0.00     0.222 C 
HETATM    9  C   UNL     1      -7.915   0.431 -32.520  1.00  0.00     0.076 C 
HETATM   10  C   UNL     1      -4.499  -1.879 -33.249  1.00  0.00     0.037 A 
HETATM   11  C   UNL     1      -4.455  -2.872 -34.226  1.00  0.00     0.003 A 
HETATM   12  C   UNL     1      -5.549  -3.070 -35.063  1.00  0.00     0.001 A 
HETATM   13  C   UNL     1      -6.690  -2.276 -34.922  1.00  0.00     0.012 A 
HETATM   14  C   UNL     1      -5.975   1.998 -33.192  1.00  0.00     0.059 C 
HETATM   15  C   UNL     1      -4.720   2.726 -32.699  1.00  0.00     0.138 C 
ENDROOT
BRANCH   8  16
HETATM   16  N   UNL     1      -8.235   0.426 -34.970  1.00  0.00    -0.071 N 
HETATM   17  H   UNL     1      -8.314   1.419 -34.727  1.00  0.00     0.275 HD
HETATM   18  H   UNL     1      -7.463   0.352 -35.644  1.00  0.00     0.275 HD
HETATM   19  H   UNL     1      -9.095   0.147 -35.461  1.00  0.00     0.275 HD
ENDBRANCH   8  16
BRANCH   1  20
HETATM   20  S   UNL     1      -5.709   4.799 -31.232  1.00  0.00     0.224 S 
HETATM   21  C   UNL     1      -5.652   5.067 -29.474  1.00  0.00     0.186 C 
HETATM   22  O   UNL     1      -7.093   4.647 -31.621  1.00  0.00    -0.206 OA
HETATM   23  O   UNL     1      -4.853   5.768 -31.887  1.00  0.00    -0.206 OA
ENDBRANCH   1  20
TORSDOF 2
ENDMDL
MODEL 3
REMARK VINA RESULT:      -6.9      3.184      4.219
REMARK  2 active torsions:
REMARK  status: ('A' for Active; 'I' for Inactive)
REMARK    1  A    between atoms: S_2  and  N_3 
REMARK    2  A    between atoms: C_10  and  N_11 
ROOT
HETATM    1  N   UNL     1     -11.571   2.648 -33.999  1.00  0.00    -0.311 N 
HETATM    2  C   UNL     1     -10.520   3.322 -34.786  1.00  0.00     0.138 C 
HETATM    3  C   UNL     1      -9.291   3.528 -33.912  1.00  0.00     0.059 C 
HETATM    4  C   UNL     1      -8.764   2.203 -33.308  1.00  0.00     0.073 C 
HETATM    5  O   UNL     1      -8.243   1.427 -34.399  1.00  0.00    -0.339 OA
HETATM    6  C   UNL     1      -7.376   0.415 -34.095  1.00  0.00     0.078 A 
HETATM    7  C   UNL     1      -6.671   0.325 -32.891  1.00  0.00     0.005 A 
HETATM    8  C   UNL     1      -6.829   1.373 -31.835  1.00  0.00     0.222 C 
HETATM    9  C   UNL     1      -7.632   2.572 -32.327  1.00  0.00     0.076 C 
HETATM   10  C   UNL     1      -7.199  -0.541 -35.095  1.00  0.00     0.037 A 
HETATM   11  C   UNL     1      -6.330  -1.611 -34.895  1.00  0.00     0.003 A 
HETATM   12  C   UNL     1      -5.623  -1.717 -33.700  1.00  0.00     0.001 A 
HETATM   13  C   UNL     1      -5.786  -0.752 -32.704  1.00  0.00     0.012 A 
HETATM   14  C   UNL     1      -9.919   1.414 -32.645  1.00  0.00     0.059 C 
HETATM   15  C   UNL     1     -11.161   1.312 -33.536  1.00  0.00     0.138 C 
ENDROOT
BRANCH   8  16
HETATM   16  N   UNL     1      -7.436   0.827 -30.588  1.00  0.00    -0.071 N 
HETATM   17  H   UNL     1      -7.750  -0.143 -30.701  1.00  0.00     0.275 HD
HETATM   18  H   UNL     1      -6.746   0.822 -29.826  1.00  0.00     0.275 HD
HETATM   19  H   UNL     1      -8.236   1.389 -30.270  1.00  0.00     0.275 HD
ENDBRANCH   8  16
BRANCH   1  20
HETATM   20  S   UNL     1     -12.545   3.593 -32.981  1.00  0.00     0.224 S 
HETATM   21  C   UNL     1     -13.943   2.517 -32.750  1.00  0.00     0.186 C 
HETATM   22  O   UNL     1     -12.986   4.754 -33.722  1.00  0.00    -0.206 OA
HETATM   23  O   UNL     1     -11.843   3.735 -31.721  1.00  0.00    -0.206 OA
ENDBRANCH   1  20
TORSDOF 2
ENDMDL
MODEL 4
REMARK VINA RESULT:      -6.8      2.413      3.876
REMARK  2 active torsions:
REMARK  status: ('A' for Active; 'I' for Inactive)
REMARK    1  A    between atoms: S_2  and  N_3 
REMARK    2  A    between atoms: C_10  and  N_11 
ROOT
HETATM    1  N   UNL     1      -8.276   3.856 -32.943  1.00  0.00    -0.311 N 
HETATM    2  C   UNL     1      -8.651   3.107 -31.728  1.00  0.00     0.138 C 
HETATM    3  C   UNL     1      -8.818   1.635 -32.078  1.00  0.00     0.059 C 
HETATM    4  C   UNL     1      -7.548   1.033 -32.728  1.00  0.00     0.073 C 
HETATM    5  O   UNL     1      -6.535   0.998 -31.708  1.00  0.00    -0.339 OA
HETATM    6  C   UNL     1      -5.473   0.161 -31.903  1.00  0.00     0.078 A 
HETATM    7  C   UNL     1      -5.480  -0.918 -32.792  1.00  0.00     0.005 A 
HETATM    8  C   UNL     1      -6.700  -1.230 -33.602  1.00  0.00     0.222 C 
HETATM    9  C   UNL     1      -7.905  -0.400 -33.174  1.00  0.00     0.076 C 
HETATM   10  C   UNL     1      -4.350   0.429 -31.121  1.00  0.00     0.037 A 
HETATM   11  C   UNL     1      -3.213  -0.368 -31.232  1.00  0.00     0.003 A 
HETATM   12  C   UNL     1      -3.203  -1.444 -32.115  1.00  0.00     0.001 A 
HETATM   13  C   UNL     1      -4.332  -1.724 -32.888  1.00  0.00     0.012 A 
HETATM   14  C   UNL     1      -7.054   1.932 -33.886  1.00  0.00     0.059 C 
HETATM   15  C   UNL     1      -6.988   3.415 -33.505  1.00  0.00     0.138 C 
ENDROOT
BRANCH   8  16
HETATM   16  N   UNL     1      -6.460  -1.068 -35.063  1.00  0.00    -0.071 N 
HETATM   17  H   UNL     1      -7.198  -0.521 -35.520  1.00  0.00     0.275 HD
HETATM   18  H   UNL     1      -5.580  -0.564 -35.229  1.00  0.00     0.275 HD
HETATM   19  H   UNL     1      -6.387  -1.973 -35.546  1.00  0.00     0.275 HD
ENDBRANCH   8  16
BRANCH   1  20
HETATM   20  S   UNL     1      -9.506   4.326 -34.013  1.00  0.00     0.224 S 
HETATM   21  C   UNL     1     -10.753   4.889 -32.874  1.00  0.00     0.186 C 
HETATM   22  O   UNL     1     -10.006   3.145 -34.680  1.00  0.00    -0.206 OA
HETATM   23  O   UNL     1      -9.011   5.458 -34.770  1.00  0.00    -0.206 OA
ENDBRANCH   1  20
TORSDOF 2
ENDMDL
MODEL 5
REMARK VINA RESULT:      -6.5     14.078     15.937
REMARK  2 active torsions:
REMARK  status: ('A' for Active; 'I' for Inactive)
REMARK    1  A    between atoms: S_2  and  N_3 
REMARK    2  A    between atoms: C_10  and  N_11 
ROOT
HETATM    1  N   UNL     1      -0.926 -15.441 -38.549  1.00  0.00    -0.311 N 
HETATM    2  C   UNL     1      -0.942 -14.588 -37.345  1.00  0.00     0.138 C 
HETATM    3  C   UNL     1      -1.575 -13.247 -37.688  1.00  0.00     0.059 C 
HETATM    4  C   UNL     1      -3.000 -13.397 -38.278  1.00  0.00     0.073 C 
HETATM    5  O   UNL     1      -3.841 -13.876 -37.216  1.00  0.00    -0.339 OA
HETATM    6  C   UNL     1      -5.190 -13.712 -37.358  1.00  0.00     0.078 A 
HETATM    7  C   UNL     1      -5.778 -12.797 -38.237  1.00  0.00     0.005 A 
HETATM    8  C   UNL     1      -4.930 -11.911 -39.095  1.00  0.00     0.222 C 
HETATM    9  C   UNL     1      -3.453 -11.993 -38.726  1.00  0.00     0.076 C 
HETATM   10  C   UNL     1      -5.980 -14.510 -36.531  1.00  0.00     0.037 A 
HETATM   11  C   UNL     1      -7.369 -14.417 -36.586  1.00  0.00     0.003 A 
HETATM   12  C   UNL     1      -7.970 -13.513 -37.459  1.00  0.00     0.001 A 
HETATM   13  C   UNL     1      -7.181 -12.702 -38.277  1.00  0.00     0.012 A 
HETATM   14  C   UNL     1      -3.004 -14.439 -39.422  1.00  0.00     0.059 C 
HETATM   15  C   UNL     1      -2.278 -15.736 -39.052  1.00  0.00     0.138 C 
ENDROOT
BRANCH   8  16
HETATM   16  N   UNL     1      -5.111 -12.195 -40.547  1.00  0.00    -0.071 N 
HETATM   17  H   UNL     1      -4.898 -11.379 -41.132  1.00  0.00     0.275 HD
HETATM   18  H   UNL     1      -4.474 -12.942 -40.848  1.00  0.00     0.275 HD
HETATM   19  H   UNL     1      -6.067 -12.504 -40.764  1.00  0.00     0.275 HD
ENDBRANCH   8  16
BRANCH   1  20
HETATM   20  S   UNL     1       0.325 -15.223 -39.674  1.00  0.00     0.224 S 
HETATM   21  C   UNL     1       1.668 -14.752 -38.606  1.00  0.00     0.186 C 
HETATM   22  O   UNL     1      -0.006 -14.090 -40.509  1.00  0.00    -0.206 OA
HETATM   23  O   UNL     1       0.614 -16.519 -40.255  1.00  0.00    -0.206 OA
ENDBRANCH   1  20
TORSDOF 2
ENDMDL
MODEL 6
REMARK VINA RESULT:      -6.5     13.955     15.285
REMARK  2 active torsions:
REMARK  status: ('A' for Active; 'I' for Inactive)
REMARK    1  A    between atoms: S_2  and  N_3 
REMARK    2  A    between atoms: C_10  and  N_11 
ROOT
HETATM    1  N   UNL     1      -3.268 -15.170 -36.443  1.00  0.00    -0.311 N 
HETATM    2  C   UNL     1      -3.705 -13.920 -35.790  1.00  0.00     0.138 C 
HETATM    3  C   UNL     1      -3.743 -12.802 -36.821  1.00  0.00     0.059 C 
HETATM    4  C   UNL     1      -4.651 -13.140 -38.030  1.00  0.00     0.073 C 
HETATM    5  O   UNL     1      -6.002 -13.159 -37.541  1.00  0.00    -0.339 OA
HETATM    6  C   UNL     1      -7.007 -13.037 -38.460  1.00  0.00     0.078 A 
HETATM    7  C   UNL     1      -6.830 -12.518 -39.747  1.00  0.00     0.005 A 
HETATM    8  C   UNL     1      -5.485 -12.045 -40.200  1.00  0.00     0.222 C 
HETATM    9  C   UNL     1      -4.472 -12.006 -39.061  1.00  0.00     0.076 C 
HETATM   10  C   UNL     1      -8.267 -13.442 -38.025  1.00  0.00     0.037 A 
HETATM   11  C   UNL     1      -9.365 -13.352 -38.878  1.00  0.00     0.003 A 
HETATM   12  C   UNL     1      -9.206 -12.841 -40.163  1.00  0.00     0.001 A 
HETATM   13  C   UNL     1      -7.947 -12.420 -40.596  1.00  0.00     0.012 A 
HETATM   14  C   UNL     1      -4.306 -14.540 -38.590  1.00  0.00     0.059 C 
HETATM   15  C   UNL     1      -4.195 -15.610 -37.499  1.00  0.00     0.138 C 
ENDROOT
BRANCH   8  16
HETATM   16  N   UNL     1      -4.953 -12.860 -41.329  1.00  0.00    -0.071 N 
HETATM   17  H   UNL     1      -4.181 -13.470 -41.038  1.00  0.00     0.275 HD
HETATM   18  H   UNL     1      -5.686 -13.478 -41.701  1.00  0.00     0.275 HD
HETATM   19  H   UNL     1      -4.624 -12.275 -42.107  1.00  0.00     0.275 HD
ENDBRANCH   8  16
BRANCH   1  20
HETATM   20  S   UNL     1      -1.606 -15.423 -36.669  1.00  0.00     0.224 S 
HETATM   21  C   UNL     1      -1.027 -15.420 -34.987  1.00  0.00     0.186 C 
HETATM   22  O   UNL     1      -1.056 -14.265 -37.337  1.00  0.00    -0.206 OA
HETATM   23  O   UNL     1      -1.443 -16.752 -37.224  1.00  0.00    -0.206 OA
ENDBRANCH   1  20
TORSDOF 2
ENDMDL
MODEL 7
REMARK VINA RESULT:      -6.4      3.849      5.423
REMARK  2 active torsions:
REMARK  status: ('A' for Active; 'I' for Inactive)
REMARK    1  A    between atoms: S_2  and  N_3 
REMARK    2  A    between atoms: C_10  and  N_11 
ROOT
HETATM    1  N   UNL     1      -3.520   5.367 -32.967  1.00  0.00    -0.311 N 
HETATM    2  C   UNL     1      -2.783   4.092 -33.074  1.00  0.00     0.138 C 
HETATM    3  C   UNL     1      -3.159   3.196 -31.903  1.00  0.00     0.059 C 
HETATM    4  C   UNL     1      -4.685   2.946 -31.813  1.00  0.00     0.073 C 
HETATM    5  O   UNL     1      -5.042   2.141 -32.948  1.00  0.00    -0.339 OA
HETATM    6  C   UNL     1      -6.225   1.459 -32.891  1.00  0.00     0.078 A 
HETATM    7  C   UNL     1      -6.908   1.177 -31.703  1.00  0.00     0.005 A 
HETATM    8  C   UNL     1      -6.355   1.615 -30.383  1.00  0.00     0.222 C 
HETATM    9  C   UNL     1      -4.940   2.168 -30.505  1.00  0.00     0.076 C 
HETATM   10  C   UNL     1      -6.721   1.018 -34.116  1.00  0.00     0.037 A 
HETATM   11  C   UNL     1      -7.916   0.304 -34.173  1.00  0.00     0.003 A 
HETATM   12  C   UNL     1      -8.609   0.018 -33.001  1.00  0.00     0.001 A 
HETATM   13  C   UNL     1      -8.107   0.445 -31.770  1.00  0.00     0.012 A 
HETATM   14  C   UNL     1      -5.458   4.284 -31.892  1.00  0.00     0.059 C 
HETATM   15  C   UNL     1      -4.979   5.184 -33.036  1.00  0.00     0.138 C 
ENDROOT
BRANCH   8  16
HETATM   16  N   UNL     1      -7.236   2.609 -29.707  1.00  0.00    -0.071 N 
HETATM   17  H   UNL     1      -6.893   2.862 -28.774  1.00  0.00     0.275 HD
HETATM   18  H   UNL     1      -7.274   3.481 -30.249  1.00  0.00     0.275 HD
HETATM   19  H   UNL     1      -8.201   2.268 -29.612  1.00  0.00     0.275 HD
ENDBRANCH   8  16
BRANCH   1  20
HETATM   20  S   UNL     1      -2.903   6.571 -31.944  1.00  0.00     0.224 S 
HETATM   21  C   UNL     1      -1.867   7.480 -33.070  1.00  0.00     0.186 C 
HETATM   22  O   UNL     1      -2.053   5.940 -30.959  1.00  0.00    -0.206 OA
HETATM   23  O   UNL     1      -4.015   7.408 -31.543  1.00  0.00    -0.206 OA
ENDBRANCH   1  20
TORSDOF 2
ENDMDL
MODEL 8
REMARK VINA RESULT:      -6.4     13.808     15.265
REMARK  2 active torsions:
REMARK  status: ('A' for Active; 'I' for Inactive)
REMARK    1  A    between atoms: S_2  and  N_3 
REMARK    2  A    between atoms: C_10  and  N_11 
ROOT
HETATM    1  N   UNL     1      -7.045 -13.981 -40.764  1.00  0.00    -0.311 N 
HETATM    2  C   UNL     1      -6.366 -12.806 -41.346  1.00  0.00     0.138 C 
HETATM    3  C   UNL     1      -5.634 -12.053 -40.244  1.00  0.00     0.059 C 
HETATM    4  C   UNL     1      -4.628 -12.951 -39.480  1.00  0.00     0.073 C 
HETATM    5  O   UNL     1      -3.569 -13.264 -40.399  1.00  0.00    -0.339 OA
HETATM    6  C   UNL     1      -2.385 -13.696 -39.872  1.00  0.00     0.078 A 
HETATM    7  C   UNL     1      -1.999 -13.491 -38.544  1.00  0.00     0.005 A 
HETATM    8  C   UNL     1      -2.892 -12.754 -37.596  1.00  0.00     0.222 C 
HETATM    9  C   UNL     1      -4.083 -12.117 -38.302  1.00  0.00     0.076 C 
HETATM   10  C   UNL     1      -1.536 -14.349 -40.766  1.00  0.00     0.037 A 
HETATM   11  C   UNL     1      -0.298 -14.822 -40.337  1.00  0.00     0.003 A 
HETATM   12  C   UNL     1       0.099 -14.629 -39.017  1.00  0.00     0.001 A 
HETATM   13  C   UNL     1      -0.742 -13.962 -38.124  1.00  0.00     0.012 A 
HETATM   14  C   UNL     1      -5.307 -14.268 -39.037  1.00  0.00     0.059 C 
HETATM   15  C   UNL     1      -6.102 -14.938 -40.163  1.00  0.00     0.138 C 
ENDROOT
BRANCH   8  16
HETATM   16  N   UNL     1      -3.363 -13.621 -36.480  1.00  0.00    -0.071 N 
HETATM   17  H   UNL     1      -4.226 -13.269 -36.051  1.00  0.00     0.275 HD
HETATM   18  H   UNL     1      -3.575 -14.566 -36.824  1.00  0.00     0.275 HD
HETATM   19  H   UNL     1      -2.655 -13.719 -35.740  1.00  0.00     0.275 HD
ENDBRANCH   8  16
BRANCH   1  20
HETATM   20  S   UNL     1      -8.552 -13.753 -40.020  1.00  0.00     0.224 S 
HETATM   21  C   UNL     1      -9.536 -14.976 -40.858  1.00  0.00     0.186 C 
HETATM   22  O   UNL     1      -9.049 -12.446 -40.387  1.00  0.00    -0.206 OA
HETATM   23  O   UNL     1      -8.408 -14.133 -38.629  1.00  0.00    -0.206 OA
ENDBRANCH   1  20
TORSDOF 2
ENDMDL
MODEL 9
REMARK VINA RESULT:      -6.3      3.784      6.542
REMARK  2 active torsions:
REMARK  status: ('A' for Active; 'I' for Inactive)
REMARK    1  A    between atoms: S_2  and  N_3 
REMARK    2  A    between atoms: C_10  and  N_11 
ROOT
HETATM    1  N   UNL     1      -7.013  -0.163 -32.798  1.00  0.00    -0.311 N 
HETATM    2  C   UNL     1      -7.740   0.169 -31.557  1.00  0.00     0.138 C 
HETATM    3  C   UNL     1      -8.393   1.535 -31.707  1.00  0.00     0.059 C 
HETATM    4  C   UNL     1      -9.335   1.609 -32.935  1.00  0.00     0.073 C 
HETATM    5  O   UNL     1     -10.457   0.756 -32.651  1.00  0.00    -0.339 OA
HETATM    6  C   UNL     1     -11.597   0.952 -33.379  1.00  0.00     0.078 A 
HETATM    7  C   UNL     1     -11.886   2.128 -34.078  1.00  0.00     0.005 A 
HETATM    8  C   UNL     1     -10.931   3.279 -34.062  1.00  0.00     0.222 C 
HETATM    9  C   UNL     1      -9.798   3.075 -33.062  1.00  0.00     0.076 C 
HETATM   10  C   UNL     1     -12.504  -0.106 -33.363  1.00  0.00     0.037 A 
HETATM   11  C   UNL     1     -13.705  -0.010 -34.063  1.00  0.00     0.003 A 
HETATM   12  C   UNL     1     -14.006   1.152 -34.767  1.00  0.00     0.001 A 
HETATM   13  C   UNL     1     -13.106   2.219 -34.772  1.00  0.00     0.012 A 
HETATM   14  C   UNL     1      -8.618   1.080 -34.200  1.00  0.00     0.059 C 
HETATM   15  C   UNL     1      -7.903  -0.256 -33.967  1.00  0.00     0.138 C 
ENDROOT
BRANCH   8  16
HETATM   16  N   UNL     1     -10.374   3.566 -35.414  1.00  0.00    -0.071 N 
HETATM   17  H   UNL     1     -10.750   4.433 -35.814  1.00  0.00     0.275 HD
HETATM   18  H   UNL     1      -9.354   3.690 -35.363  1.00  0.00     0.275 HD
HETATM   19  H   UNL     1     -10.555   2.802 -36.077  1.00  0.00     0.275 HD
ENDBRANCH   8  16
BRANCH   1  20
HETATM   20  S   UNL     1      -5.456   0.476 -33.015  1.00  0.00     0.224 S 
HETATM   21  C   UNL     1      -4.837   0.444 -31.347  1.00  0.00     0.186 C 
HETATM   22  O   UNL     1      -5.584   1.857 -33.423  1.00  0.00    -0.206 OA
HETATM   23  O   UNL     1      -4.709  -0.473 -33.816  1.00  0.00    -0.206 OA
ENDBRANCH   1  20
TORSDOF 2
ENDMDL
MODEL 10
REMARK VINA RESULT:      -6.3      5.163      7.688
REMARK  2 active torsions:
REMARK  status: ('A' for Active; 'I' for Inactive)
REMARK    1  A    between atoms: S_2  and  N_3 
REMARK    2  A    between atoms: C_10  and  N_11 
ROOT
HETATM    1  N   UNL     1      -5.804   2.347 -31.612  1.00  0.00    -0.311 N 
HETATM    2  C   UNL     1      -4.526   2.066 -30.931  1.00  0.00     0.138 C 
HETATM    3  C   UNL     1      -3.373   2.423 -31.858  1.00  0.00     0.059 C 
HETATM    4  C   UNL     1      -3.432   3.896 -32.336  1.00  0.00     0.073 C 
HETATM    5  O   UNL     1      -3.172   4.717 -31.185  1.00  0.00    -0.339 OA
HETATM    6  C   UNL     1      -2.777   6.006 -31.407  1.00  0.00     0.078 A 
HETATM    7  C   UNL     1      -2.242   6.463 -32.616  1.00  0.00     0.005 A 
HETATM    8  C   UNL     1      -2.061   5.529 -33.770  1.00  0.00     0.222 C 
HETATM    9  C   UNL     1      -2.313   4.076 -33.383  1.00  0.00     0.076 C 
HETATM   10  C   UNL     1      -2.910   6.868 -30.319  1.00  0.00     0.037 A 
HETATM   11  C   UNL     1      -2.528   8.203 -30.432  1.00  0.00     0.003 A 
HETATM   12  C   UNL     1      -1.998   8.674 -31.629  1.00  0.00     0.001 A 
HETATM   13  C   UNL     1      -1.848   7.809 -32.716  1.00  0.00     0.012 A 
HETATM   14  C   UNL     1      -4.841   4.233 -32.878  1.00  0.00     0.059 C 
HETATM   15  C   UNL     1      -5.966   3.773 -31.944  1.00  0.00     0.138 C 
ENDROOT
BRANCH   8  16
HETATM   16  N   UNL     1      -2.912   5.903 -34.935  1.00  0.00    -0.071 N 
HETATM   17  H   UNL     1      -3.712   5.271 -35.050  1.00  0.00     0.275 HD
HETATM   18  H   UNL     1      -3.302   6.845 -34.806  1.00  0.00     0.275 HD
HETATM   19  H   UNL     1      -2.381   5.911 -35.815  1.00  0.00     0.275 HD
ENDBRANCH   8  16
BRANCH   1  20
HETATM   20  S   UNL     1      -6.413   1.191 -32.694  1.00  0.00     0.224 S 
HETATM   21  C   UNL     1      -8.132   1.163 -32.235  1.00  0.00     0.186 C 
HETATM   22  O   UNL     1      -5.836  -0.093 -32.360  1.00  0.00    -0.206 OA
HETATM   23  O   UNL     1      -6.287   1.740 -34.029  1.00  0.00    -0.206 OA
ENDBRANCH   1  20
TORSDOF 2
ENDMDL
