MODEL 1
REMARK VINA RESULT:      -7.8      0.000      0.000
REMARK  2 active torsions:
REMARK  status: ('A' for Active; 'I' for Inactive)
REMARK    1  A    between atoms: C_3  and  C_4 
REMARK    2  A    between atoms: C_19  and  O_20 
ROOT
HETATM    1  C   UNL     1      -6.001   0.118 -31.295  1.00  0.00     0.137 C 
HETATM    2  N   UNL     1      -7.480   0.073 -31.097  1.00  0.00    -0.278 NA
HETATM    3  C   UNL     1      -8.241   0.649 -32.156  1.00  0.00     0.036 A 
HETATM    4  C   UNL     1      -8.293   0.096 -33.457  1.00  0.00     0.053 A 
HETATM    5  N   UNL     1      -7.522  -1.019 -33.864  1.00  0.00    -0.356 N 
HETATM    6  C   UNL     1      -6.240  -1.292 -33.443  1.00  0.00     0.041 A 
HETATM    7  C   UNL     1      -5.577  -0.791 -32.389  1.00  0.00     0.056 A 
HETATM    8  C   UNL     1      -4.244  -1.410 -32.387  1.00  0.00     0.251 A 
HETATM    9  O   UNL     1      -3.370  -1.242 -31.559  1.00  0.00    -0.268 OA
HETATM   10  N   UNL     1      -4.169  -2.226 -33.485  1.00  0.00    -0.351 N 
HETATM   11  C   UNL     1      -5.385  -2.252 -34.225  1.00  0.00     0.180 A 
HETATM   12  C   UNL     1      -9.002   1.790 -31.860  1.00  0.00     0.026 A 
HETATM   13  C   UNL     1      -9.818   2.379 -32.825  1.00  0.00     0.002 A 
HETATM   14  C   UNL     1      -9.893   1.826 -34.098  1.00  0.00     0.002 A 
HETATM   15  C   UNL     1      -9.139   0.693 -34.409  1.00  0.00     0.031 A 
HETATM   16  H   UNL     1      -7.739  -0.918 -31.107  1.00  0.00     0.128 HD
HETATM   17  H   UNL     1      -7.741  -1.343 -34.801  1.00  0.00     0.166 HD
HETATM   18  H   UNL     1      -3.342  -2.777 -33.672  1.00  0.00     0.163 HD
ENDROOT
BRANCH   1  19
HETATM   19  C   UNL     1      -5.501   1.557 -31.307  1.00  0.00    -0.002 A 
HETATM   20  C   UNL     1      -4.722   2.086 -32.351  1.00  0.00     0.012 A 
HETATM   21  C   UNL     1      -4.227   3.393 -32.288  1.00  0.00     0.001 A 
HETATM   22  C   UNL     1      -4.497   4.194 -31.179  1.00  0.00     0.003 A 
HETATM   23  C   UNL     1      -5.283   3.698 -30.143  1.00  0.00     0.037 A 
HETATM   24  C   UNL     1      -5.789   2.405 -30.222  1.00  0.00     0.073 A 
BRANCH  24  25
HETATM   25  O   UNL     1      -6.616   2.003 -29.206  1.00  0.00    -0.360 OA
HETATM   26  H   UNL     1      -6.577   1.023 -29.190  1.00  0.00     0.217 HD
ENDBRANCH  24  25
ENDBRANCH   1  19
TORSDOF 2
ENDMDL
MODEL 2
REMARK VINA RESULT:      -7.7      2.462      5.110
REMARK  2 active torsions:
REMARK  status: ('A' for Active; 'I' for Inactive)
REMARK    1  A    between atoms: C_3  and  C_4 
REMARK    2  A    between atoms: C_19  and  O_20 
ROOT
HETATM    1  C   UNL     1      -8.143   0.727 -32.141  1.00  0.00     0.137 C 
HETATM    2  N   UNL     1      -7.409   1.837 -31.463  1.00  0.00    -0.278 NA
HETATM    3  C   UNL     1      -6.850   2.808 -32.345  1.00  0.00     0.036 A 
HETATM    4  C   UNL     1      -7.640   3.673 -33.139  1.00  0.00     0.053 A 
HETATM    5  N   UNL     1      -9.051   3.596 -33.213  1.00  0.00    -0.356 N 
HETATM    6  C   UNL     1      -9.784   2.432 -33.169  1.00  0.00     0.041 A 
HETATM    7  C   UNL     1      -9.402   1.213 -32.757  1.00  0.00     0.056 A 
HETATM    8  C   UNL     1     -10.562   0.324 -32.914  1.00  0.00     0.251 A 
HETATM    9  O   UNL     1     -10.620  -0.850 -32.604  1.00  0.00    -0.268 OA
HETATM   10  N   UNL     1     -11.577   1.065 -33.460  1.00  0.00    -0.351 N 
HETATM   11  C   UNL     1     -11.210   2.428 -33.649  1.00  0.00     0.180 A 
HETATM   12  C   UNL     1      -5.453   2.925 -32.378  1.00  0.00     0.026 A 
HETATM   13  C   UNL     1      -4.832   3.889 -33.172  1.00  0.00     0.002 A 
HETATM   14  C   UNL     1      -5.602   4.758 -33.934  1.00  0.00     0.002 A 
HETATM   15  C   UNL     1      -6.994   4.653 -33.914  1.00  0.00     0.031 A 
HETATM   16  H   UNL     1      -8.109   2.355 -30.925  1.00  0.00     0.128 HD
HETATM   17  H   UNL     1      -9.471   4.343 -33.757  1.00  0.00     0.166 HD
HETATM   18  H   UNL     1     -12.486   0.660 -33.634  1.00  0.00     0.163 HD
ENDROOT
BRANCH   1  19
HETATM   19  C   UNL     1      -7.192  -0.112 -32.986  1.00  0.00    -0.002 A 
HETATM   20  C   UNL     1      -7.400  -0.354 -34.355  1.00  0.00     0.012 A 
HETATM   21  C   UNL     1      -6.538  -1.187 -35.077  1.00  0.00     0.001 A 
HETATM   22  C   UNL     1      -5.457  -1.797 -34.443  1.00  0.00     0.003 A 
HETATM   23  C   UNL     1      -5.220  -1.557 -33.093  1.00  0.00     0.037 A 
HETATM   24  C   UNL     1      -6.069  -0.710 -32.387  1.00  0.00     0.073 A 
BRANCH  24  25
HETATM   25  O   UNL     1      -5.739  -0.455 -31.081  1.00  0.00    -0.360 OA
HETATM   26  H   UNL     1      -4.771  -0.605 -31.009  1.00  0.00     0.217 HD
ENDBRANCH  24  25
ENDBRANCH   1  19
TORSDOF 2
ENDMDL
MODEL 3
REMARK VINA RESULT:      -7.6     15.031     16.535
REMARK  2 active torsions:
REMARK  status: ('A' for Active; 'I' for Inactive)
REMARK    1  A    between atoms: C_3  and  C_4 
REMARK    2  A    between atoms: C_19  and  O_20 
ROOT
HETATM    1  C   UNL     1      -2.992 -13.253 -38.327  1.00  0.00     0.137 C 
HETATM    2  N   UNL     1      -3.712 -12.040 -38.818  1.00  0.00    -0.278 NA
HETATM    3  C   UNL     1      -5.078 -12.258 -39.162  1.00  0.00     0.036 A 
HETATM    4  C   UNL     1      -6.070 -12.592 -38.210  1.00  0.00     0.053 A 
HETATM    5  N   UNL     1      -5.791 -12.839 -36.845  1.00  0.00    -0.356 N 
HETATM    6  C   UNL     1      -4.658 -13.457 -36.367  1.00  0.00     0.041 A 
HETATM    7  C   UNL     1      -3.490 -13.671 -36.993  1.00  0.00     0.056 A 
HETATM    8  C   UNL     1      -2.614 -14.369 -36.041  1.00  0.00     0.251 A 
HETATM    9  O   UNL     1      -1.458 -14.693 -36.226  1.00  0.00    -0.268 OA
HETATM   10  N   UNL     1      -3.336 -14.574 -34.894  1.00  0.00    -0.351 N 
HETATM   11  C   UNL     1      -4.645 -14.020 -34.972  1.00  0.00     0.180 A 
HETATM   12  C   UNL     1      -5.443 -12.084 -40.506  1.00  0.00     0.026 A 
HETATM   13  C   UNL     1      -6.769 -12.222 -40.914  1.00  0.00     0.002 A 
HETATM   14  C   UNL     1      -7.752 -12.525 -39.980  1.00  0.00     0.002 A 
HETATM   15  C   UNL     1      -7.405 -12.704 -38.639  1.00  0.00     0.031 A 
HETATM   16  H   UNL     1      -3.750 -11.391 -38.027  1.00  0.00     0.128 HD
HETATM   17  H   UNL     1      -6.623 -12.979 -36.280  1.00  0.00     0.166 HD
HETATM   18  H   UNL     1      -2.920 -15.020 -34.087  1.00  0.00     0.163 HD
ENDROOT
BRANCH   1  19
HETATM   19  C   UNL     1      -2.884 -14.300 -39.428  1.00  0.00    -0.002 A 
HETATM   20  C   UNL     1      -3.711 -15.436 -39.484  1.00  0.00     0.012 A 
HETATM   21  C   UNL     1      -3.532 -16.407 -40.475  1.00  0.00     0.001 A 
HETATM   22  C   UNL     1      -2.522 -16.264 -41.425  1.00  0.00     0.003 A 
HETATM   23  C   UNL     1      -1.704 -15.138 -41.401  1.00  0.00     0.037 A 
HETATM   24  C   UNL     1      -1.901 -14.166 -40.425  1.00  0.00     0.073 A 
BRANCH  24  25
HETATM   25  O   UNL     1      -1.114 -13.047 -40.502  1.00  0.00    -0.360 OA
HETATM   26  H   UNL     1      -0.387 -13.178 -39.856  1.00  0.00     0.217 HD
ENDBRANCH  24  25
ENDBRANCH   1  19
TORSDOF 2
ENDMDL
MODEL 4
REMARK VINA RESULT:      -7.3     14.635     16.315
REMARK  2 active torsions:
REMARK  status: ('A' for Active; 'I' for Inactive)
REMARK    1  A    between atoms: C_3  and  C_4 
REMARK    2  A    between atoms: C_19  and  O_20 
ROOT
HETATM    1  C   UNL     1      -5.479 -12.594 -37.737  1.00  0.00     0.137 C 
HETATM    2  N   UNL     1      -4.072 -12.095 -37.679  1.00  0.00    -0.278 NA
HETATM    3  C   UNL     1      -3.094 -13.014 -38.158  1.00  0.00     0.036 A 
HETATM    4  C   UNL     1      -3.008 -13.414 -39.512  1.00  0.00     0.053 A 
HETATM    5  N   UNL     1      -3.940 -13.022 -40.503  1.00  0.00    -0.356 N 
HETATM    6  C   UNL     1      -5.290 -12.850 -40.297  1.00  0.00     0.041 A 
HETATM    7  C   UNL     1      -5.952 -12.708 -39.139  1.00  0.00     0.056 A 
HETATM    8  C   UNL     1      -7.375 -12.556 -39.473  1.00  0.00     0.251 A 
HETATM    9  O   UNL     1      -8.285 -12.359 -38.691  1.00  0.00    -0.268 OA
HETATM   10  N   UNL     1      -7.490 -12.661 -40.834  1.00  0.00    -0.351 N 
HETATM   11  C   UNL     1      -6.229 -12.828 -41.473  1.00  0.00     0.180 A 
HETATM   12  C   UNL     1      -2.154 -13.498 -37.235  1.00  0.00     0.026 A 
HETATM   13  C   UNL     1      -1.130 -14.355 -37.636  1.00  0.00     0.002 A 
HETATM   14  C   UNL     1      -1.025 -14.732 -38.969  1.00  0.00     0.002 A 
HETATM   15  C   UNL     1      -1.954 -14.261 -39.899  1.00  0.00     0.031 A 
HETATM   16  H   UNL     1      -4.023 -11.307 -38.332  1.00  0.00     0.128 HD
HETATM   17  H   UNL     1      -3.687 -13.322 -41.439  1.00  0.00     0.166 HD
HETATM   18  H   UNL     1      -8.386 -12.561 -41.293  1.00  0.00     0.163 HD
ENDROOT
BRANCH   1  19
HETATM   19  C   UNL     1      -5.668 -13.783 -36.803  1.00  0.00    -0.002 A 
HETATM   20  C   UNL     1      -6.103 -15.043 -37.251  1.00  0.00     0.012 A 
HETATM   21  C   UNL     1      -6.329 -16.088 -36.347  1.00  0.00     0.001 A 
HETATM   22  C   UNL     1      -6.129 -15.892 -34.982  1.00  0.00     0.003 A 
HETATM   23  C   UNL     1      -5.679 -14.659 -34.518  1.00  0.00     0.037 A 
HETATM   24  C   UNL     1      -5.437 -13.631 -35.424  1.00  0.00     0.073 A 
BRANCH  24  25
HETATM   25  O   UNL     1      -4.924 -12.468 -34.912  1.00  0.00    -0.360 OA
HETATM   26  H   UNL     1      -4.053 -12.699 -34.524  1.00  0.00     0.217 HD
ENDBRANCH  24  25
ENDBRANCH   1  19
TORSDOF 2
ENDMDL
MODEL 5
REMARK VINA RESULT:      -7.2      4.497      7.290
REMARK  2 active torsions:
REMARK  status: ('A' for Active; 'I' for Inactive)
REMARK    1  A    between atoms: C_3  and  C_4 
REMARK    2  A    between atoms: C_19  and  O_20 
ROOT
HETATM    1  C   UNL     1     -11.955   1.626 -34.456  1.00  0.00     0.137 C 
HETATM    2  N   UNL     1     -11.924   2.470 -35.688  1.00  0.00    -0.278 NA
HETATM    3  C   UNL     1     -11.713   3.860 -35.452  1.00  0.00     0.036 A 
HETATM    4  C   UNL     1     -10.501   4.380 -34.938  1.00  0.00     0.053 A 
HETATM    5  N   UNL     1      -9.421   3.571 -34.514  1.00  0.00    -0.356 N 
HETATM    6  C   UNL     1      -9.543   2.349 -33.892  1.00  0.00     0.041 A 
HETATM    7  C   UNL     1     -10.613   1.541 -33.828  1.00  0.00     0.056 A 
HETATM    8  C   UNL     1     -10.214   0.361 -33.047  1.00  0.00     0.251 A 
HETATM    9  O   UNL     1     -10.899  -0.615 -32.811  1.00  0.00    -0.268 OA
HETATM   10  N   UNL     1      -8.919   0.554 -32.645  1.00  0.00    -0.351 N 
HETATM   11  C   UNL     1      -8.374   1.773 -33.139  1.00  0.00     0.180 A 
HETATM   12  C   UNL     1     -12.750   4.740 -35.796  1.00  0.00     0.026 A 
HETATM   13  C   UNL     1     -12.600   6.118 -35.651  1.00  0.00     0.002 A 
HETATM   14  C   UNL     1     -11.405   6.637 -35.170  1.00  0.00     0.002 A 
HETATM   15  C   UNL     1     -10.364   5.775 -34.820  1.00  0.00     0.031 A 
HETATM   16  H   UNL     1     -11.098   2.173 -36.216  1.00  0.00     0.128 HD
HETATM   17  H   UNL     1      -8.595   4.100 -34.254  1.00  0.00     0.166 HD
HETATM   18  H   UNL     1      -8.426  -0.150 -32.112  1.00  0.00     0.163 HD
ENDROOT
BRANCH   1  19
HETATM   19  C   UNL     1     -13.148   1.991 -33.581  1.00  0.00    -0.002 A 
HETATM   20  C   UNL     1     -13.069   2.927 -32.535  1.00  0.00     0.012 A 
HETATM   21  C   UNL     1     -14.174   3.180 -31.713  1.00  0.00     0.001 A 
HETATM   22  C   UNL     1     -15.374   2.502 -31.919  1.00  0.00     0.003 A 
HETATM   23  C   UNL     1     -15.481   1.586 -32.962  1.00  0.00     0.037 A 
HETATM   24  C   UNL     1     -14.385   1.354 -33.788  1.00  0.00     0.073 A 
BRANCH  24  25
HETATM   25  O   UNL     1     -14.578   0.498 -34.841  1.00  0.00    -0.360 OA
HETATM   26  H   UNL     1     -13.838  -0.145 -34.811  1.00  0.00     0.217 HD
ENDBRANCH  24  25
ENDBRANCH   1  19
TORSDOF 2
ENDMDL
MODEL 6
REMARK VINA RESULT:      -7.1      4.123      6.537
REMARK  2 active torsions:
REMARK  status: ('A' for Active; 'I' for Inactive)
REMARK    1  A    between atoms: C_3  and  C_4 
REMARK    2  A    between atoms: C_19  and  O_20 
ROOT
HETATM    1  C   UNL     1      -9.821   3.068 -34.600  1.00  0.00     0.137 C 
HETATM    2  N   UNL     1     -11.025   2.513 -35.288  1.00  0.00    -0.278 NA
HETATM    3  C   UNL     1     -12.153   2.307 -34.443  1.00  0.00     0.036 A 
HETATM    4  C   UNL     1     -12.862   3.367 -33.830  1.00  0.00     0.053 A 
HETATM    5  N   UNL     1     -12.466   4.723 -33.914  1.00  0.00    -0.356 N 
HETATM    6  C   UNL     1     -11.164   5.168 -33.933  1.00  0.00     0.041 A 
HETATM    7  C   UNL     1     -10.042   4.475 -34.182  1.00  0.00     0.056 A 
HETATM    8  C   UNL     1      -8.921   5.420 -34.078  1.00  0.00     0.251 A 
HETATM    9  O   UNL     1      -7.748   5.176 -34.281  1.00  0.00    -0.268 OA
HETATM   10  N   UNL     1      -9.442   6.637 -33.725  1.00  0.00    -0.351 N 
HETATM   11  C   UNL     1     -10.862   6.610 -33.623  1.00  0.00     0.180 A 
HETATM   12  C   UNL     1     -12.592   0.986 -34.258  1.00  0.00     0.026 A 
HETATM   13  C   UNL     1     -13.722   0.706 -33.492  1.00  0.00     0.002 A 
HETATM   14  C   UNL     1     -14.438   1.744 -32.909  1.00  0.00     0.002 A 
HETATM   15  C   UNL     1     -14.013   3.063 -33.080  1.00  0.00     0.031 A 
HETATM   16  H   UNL     1     -11.331   3.232 -35.951  1.00  0.00     0.128 HD
HETATM   17  H   UNL     1     -13.130   5.366 -33.494  1.00  0.00     0.166 HD
HETATM   18  H   UNL     1      -8.850   7.450 -33.621  1.00  0.00     0.163 HD
ENDROOT
BRANCH   1  19
HETATM   19  C   UNL     1      -9.281   2.078 -33.575  1.00  0.00    -0.002 A 
HETATM   20  C   UNL     1      -9.341   2.306 -32.189  1.00  0.00     0.012 A 
HETATM   21  C   UNL     1      -8.771   1.400 -31.287  1.00  0.00     0.001 A 
HETATM   22  C   UNL     1      -8.126   0.256 -31.753  1.00  0.00     0.003 A 
HETATM   23  C   UNL     1      -8.072  -0.000 -33.120  1.00  0.00     0.037 A 
HETATM   24  C   UNL     1      -8.659   0.894 -34.010  1.00  0.00     0.073 A 
BRANCH  24  25
HETATM   25  O   UNL     1      -8.637   0.547 -35.336  1.00  0.00    -0.360 OA
HETATM   26  H   UNL     1      -8.431  -0.412 -35.365  1.00  0.00     0.217 HD
ENDBRANCH  24  25
ENDBRANCH   1  19
TORSDOF 2
ENDMDL
MODEL 7
REMARK VINA RESULT:      -7.0      2.318      3.708
REMARK  2 active torsions:
REMARK  status: ('A' for Active; 'I' for Inactive)
REMARK    1  A    between atoms: C_3  and  C_4 
REMARK    2  A    between atoms: C_19  and  O_20 
ROOT
HETATM    1  C   UNL     1      -6.541   1.743 -31.401  1.00  0.00     0.137 C 
HETATM    2  N   UNL     1      -6.913   2.281 -30.058  1.00  0.00    -0.278 NA
HETATM    3  C   UNL     1      -7.863   3.343 -30.083  1.00  0.00     0.036 A 
HETATM    4  C   UNL     1      -9.204   3.168 -30.502  1.00  0.00     0.053 A 
HETATM    5  N   UNL     1      -9.706   1.954 -31.028  1.00  0.00    -0.356 N 
HETATM    6  C   UNL     1      -8.999   1.082 -31.823  1.00  0.00     0.041 A 
HETATM    7  C   UNL     1      -7.673   1.009 -32.019  1.00  0.00     0.056 A 
HETATM    8  C   UNL     1      -7.437  -0.095 -32.959  1.00  0.00     0.251 A 
HETATM    9  O   UNL     1      -6.358  -0.499 -33.345  1.00  0.00    -0.268 OA
HETATM   10  N   UNL     1      -8.661  -0.600 -33.313  1.00  0.00    -0.351 N 
HETATM   11  C   UNL     1      -9.732   0.052 -32.640  1.00  0.00     0.180 A 
HETATM   12  C   UNL     1      -7.442   4.601 -29.626  1.00  0.00     0.026 A 
HETATM   13  C   UNL     1      -8.326   5.676 -29.566  1.00  0.00     0.002 A 
HETATM   14  C   UNL     1      -9.650   5.505 -29.951  1.00  0.00     0.002 A 
HETATM   15  C   UNL     1     -10.085   4.261 -30.411  1.00  0.00     0.031 A 
HETATM   16  H   UNL     1      -7.394   1.520 -29.570  1.00  0.00     0.128 HD
HETATM   17  H   UNL     1     -10.707   1.969 -31.197  1.00  0.00     0.166 HD
HETATM   18  H   UNL     1      -8.740  -1.391 -33.939  1.00  0.00     0.163 HD
ENDROOT
BRANCH   1  19
HETATM   19  C   UNL     1      -5.820   2.803 -32.226  1.00  0.00    -0.002 A 
HETATM   20  C   UNL     1      -6.335   3.311 -33.431  1.00  0.00     0.012 A 
HETATM   21  C   UNL     1      -5.606   4.233 -34.191  1.00  0.00     0.001 A 
HETATM   22  C   UNL     1      -4.350   4.660 -33.763  1.00  0.00     0.003 A 
HETATM   23  C   UNL     1      -3.829   4.185 -32.564  1.00  0.00     0.037 A 
HETATM   24  C   UNL     1      -4.568   3.284 -31.803  1.00  0.00     0.073 A 
BRANCH  24  25
HETATM   25  O   UNL     1      -4.033   2.913 -30.596  1.00  0.00    -0.360 OA
HETATM   26  H   UNL     1      -4.701   3.146 -29.916  1.00  0.00     0.217 HD
ENDBRANCH  24  25
ENDBRANCH   1  19
TORSDOF 2
ENDMDL
MODEL 8
REMARK VINA RESULT:      -7.0     14.774     17.111
REMARK  2 active torsions:
REMARK  status: ('A' for Active; 'I' for Inactive)
REMARK    1  A    between atoms: C_3  and  C_4 
REMARK    2  A    between atoms: C_19  and  O_20 
ROOT
HETATM    1  C   UNL     1      -7.078 -14.820 -38.370  1.00  0.00     0.137 C 
HETATM    2  N   UNL     1      -6.448 -15.805 -39.300  1.00  0.00    -0.278 NA
HETATM    3  C   UNL     1      -5.787 -15.225 -40.423  1.00  0.00     0.036 A 
HETATM    4  C   UNL     1      -4.623 -14.430 -40.306  1.00  0.00     0.053 A 
HETATM    5  N   UNL     1      -4.057 -14.049 -39.066  1.00  0.00    -0.356 N 
HETATM    6  C   UNL     1      -4.771 -13.753 -37.927  1.00  0.00     0.041 A 
HETATM    7  C   UNL     1      -6.050 -14.037 -37.639  1.00  0.00     0.056 A 
HETATM    8  C   UNL     1      -6.318 -13.501 -36.297  1.00  0.00     0.251 A 
HETATM    9  O   UNL     1      -7.356 -13.602 -35.672  1.00  0.00    -0.268 OA
HETATM   10  N   UNL     1      -5.176 -12.878 -35.869  1.00  0.00    -0.351 N 
HETATM   11  C   UNL     1      -4.113 -12.988 -36.810  1.00  0.00     0.180 A 
HETATM   12  C   UNL     1      -6.306 -15.506 -41.696  1.00  0.00     0.026 A 
HETATM   13  C   UNL     1      -5.685 -15.024 -42.847  1.00  0.00     0.002 A 
HETATM   14  C   UNL     1      -4.526 -14.264 -42.741  1.00  0.00     0.002 A 
HETATM   15  C   UNL     1      -3.999 -13.973 -41.481  1.00  0.00     0.031 A 
HETATM   16  H   UNL     1      -5.698 -16.258 -38.770  1.00  0.00     0.128 HD
HETATM   17  H   UNL     1      -3.175 -13.554 -39.157  1.00  0.00     0.166 HD
HETATM   18  H   UNL     1      -5.122 -12.455 -34.952  1.00  0.00     0.163 HD
ENDROOT
BRANCH   1  19
HETATM   19  C   UNL     1      -8.211 -14.073 -39.062  1.00  0.00    -0.002 A 
HETATM   20  C   UNL     1      -8.160 -12.695 -39.337  1.00  0.00     0.012 A 
HETATM   21  C   UNL     1      -9.252 -12.036 -39.912  1.00  0.00     0.001 A 
HETATM   22  C   UNL     1     -10.416 -12.739 -40.218  1.00  0.00     0.003 A 
HETATM   23  C   UNL     1     -10.482 -14.107 -39.973  1.00  0.00     0.037 A 
HETATM   24  C   UNL     1      -9.384 -14.760 -39.420  1.00  0.00     0.073 A 
BRANCH  24  25
HETATM   25  O   UNL     1      -9.486 -16.119 -39.273  1.00  0.00    -0.360 OA
HETATM   26  H   UNL     1      -9.236 -16.508 -40.139  1.00  0.00     0.217 HD
ENDBRANCH  24  25
ENDBRANCH   1  19
TORSDOF 2
ENDMDL
MODEL 9
REMARK VINA RESULT:      -7.0     15.012     16.387
REMARK  2 active torsions:
REMARK  status: ('A' for Active; 'I' for Inactive)
REMARK    1  A    between atoms: C_3  and  C_4 
REMARK    2  A    between atoms: C_19  and  O_20 
ROOT
HETATM    1  C   UNL     1      -4.810 -12.910 -37.709  1.00  0.00     0.137 C 
HETATM    2  N   UNL     1      -5.427 -12.396 -38.969  1.00  0.00    -0.278 NA
HETATM    3  C   UNL     1      -5.573 -13.369 -40.000  1.00  0.00     0.036 A 
HETATM    4  C   UNL     1      -6.448 -14.476 -39.898  1.00  0.00     0.053 A 
HETATM    5  N   UNL     1      -7.187 -14.783 -38.731  1.00  0.00    -0.356 N 
HETATM    6  C   UNL     1      -6.745 -14.595 -37.441  1.00  0.00     0.041 A 
HETATM    7  C   UNL     1      -5.724 -13.842 -37.004  1.00  0.00     0.056 A 
HETATM    8  C   UNL     1      -5.678 -13.988 -35.542  1.00  0.00     0.251 A 
HETATM    9  O   UNL     1      -4.916 -13.422 -34.782  1.00  0.00    -0.268 OA
HETATM   10  N   UNL     1      -6.664 -14.870 -35.186  1.00  0.00    -0.351 N 
HETATM   11  C   UNL     1      -7.426 -15.311 -36.306  1.00  0.00     0.180 A 
HETATM   12  C   UNL     1      -4.840 -13.176 -41.181  1.00  0.00     0.026 A 
HETATM   13  C   UNL     1      -4.970 -14.051 -42.258  1.00  0.00     0.002 A 
HETATM   14  C   UNL     1      -5.847 -15.126 -42.174  1.00  0.00     0.002 A 
HETATM   15  C   UNL     1      -6.581 -15.333 -41.005  1.00  0.00     0.031 A 
HETATM   16  H   UNL     1      -6.387 -12.133 -38.729  1.00  0.00     0.128 HD
HETATM   17  H   UNL     1      -7.833 -15.557 -38.851  1.00  0.00     0.166 HD
HETATM   18  H   UNL     1      -6.833 -15.103 -34.217  1.00  0.00     0.163 HD
ENDROOT
BRANCH   1  19
HETATM   19  C   UNL     1      -3.369 -13.343 -37.951  1.00  0.00    -0.002 A 
HETATM   20  C   UNL     1      -2.929 -14.665 -37.766  1.00  0.00     0.012 A 
HETATM   21  C   UNL     1      -1.582 -15.004 -37.934  1.00  0.00     0.001 A 
HETATM   22  C   UNL     1      -0.650 -14.028 -38.285  1.00  0.00     0.003 A 
HETATM   23  C   UNL     1      -1.067 -12.717 -38.493  1.00  0.00     0.037 A 
HETATM   24  C   UNL     1      -2.411 -12.391 -38.345  1.00  0.00     0.073 A 
BRANCH  24  25
HETATM   25  O   UNL     1      -2.768 -11.101 -38.637  1.00  0.00    -0.360 OA
HETATM   26  H   UNL     1      -3.422 -10.835 -37.955  1.00  0.00     0.217 HD
ENDBRANCH  24  25
ENDBRANCH   1  19
TORSDOF 2
ENDMDL
MODEL 10
REMARK VINA RESULT:      -7.0     14.955     16.211
REMARK  2 active torsions:
REMARK  status: ('A' for Active; 'I' for Inactive)
REMARK    1  A    between atoms: C_3  and  C_4 
REMARK    2  A    between atoms: C_19  and  O_20 
ROOT
HETATM    1  C   UNL     1      -5.481 -14.421 -38.993  1.00  0.00     0.137 C 
HETATM    2  N   UNL     1      -5.837 -15.365 -37.892  1.00  0.00    -0.278 NA
HETATM    3  C   UNL     1      -6.011 -14.754 -36.616  1.00  0.00     0.036 A 
HETATM    4  C   UNL     1      -7.064 -13.854 -36.328  1.00  0.00     0.053 A 
HETATM    5  N   UNL     1      -7.987 -13.395 -37.298  1.00  0.00    -0.356 N 
HETATM    6  C   UNL     1      -7.688 -13.139 -38.617  1.00  0.00     0.041 A 
HETATM    7  C   UNL     1      -6.620 -13.531 -39.329  1.00  0.00     0.056 A 
HETATM    8  C   UNL     1      -6.786 -12.991 -40.685  1.00  0.00     0.251 A 
HETATM    9  O   UNL     1      -6.043 -13.171 -41.631  1.00  0.00    -0.268 OA
HETATM   10  N   UNL     1      -7.942 -12.257 -40.696  1.00  0.00    -0.351 N 
HETATM   11  C   UNL     1      -8.618 -12.292 -39.443  1.00  0.00     0.180 A 
HETATM   12  C   UNL     1      -5.111 -15.110 -35.599  1.00  0.00     0.026 A 
HETATM   13  C   UNL     1      -5.247 -14.600 -34.309  1.00  0.00     0.002 A 
HETATM   14  C   UNL     1      -6.294 -13.736 -34.013  1.00  0.00     0.002 A 
HETATM   15  C   UNL     1      -7.196 -13.370 -35.014  1.00  0.00     0.031 A 
HETATM   16  H   UNL     1      -6.763 -15.737 -38.124  1.00  0.00     0.128 HD
HETATM   17  H   UNL     1      -8.732 -12.825 -36.911  1.00  0.00     0.166 HD
HETATM   18  H   UNL     1      -8.271 -11.810 -41.541  1.00  0.00     0.163 HD
ENDROOT
BRANCH   1  19
HETATM   19  C   UNL     1      -4.113 -13.795 -38.745  1.00  0.00    -0.002 A 
HETATM   20  C   UNL     1      -3.935 -12.420 -38.509  1.00  0.00     0.012 A 
HETATM   21  C   UNL     1      -2.654 -11.878 -38.354  1.00  0.00     0.001 A 
HETATM   22  C   UNL     1      -1.530 -12.697 -38.438  1.00  0.00     0.003 A 
HETATM   23  C   UNL     1      -1.683 -14.064 -38.652  1.00  0.00     0.037 A 
HETATM   24  C   UNL     1      -2.960 -14.599 -38.784  1.00  0.00     0.073 A 
BRANCH  24  25
HETATM   25  O   UNL     1      -3.047 -15.961 -38.917  1.00  0.00    -0.360 OA
HETATM   26  H   UNL     1      -2.776 -16.164 -39.838  1.00  0.00     0.217 HD
ENDBRANCH  24  25
ENDBRANCH   1  19
TORSDOF 2
ENDMDL
