MODEL 1
REMARK VINA RESULT:      -9.5      0.000      0.000
REMARK  4 active torsions:
REMARK  status: ('A' for Active; 'I' for Inactive)
REMARK    1  A    between atoms: C_2  and  C_3 
REMARK    2  A    between atoms: C_3  and  C_4 
REMARK       I    between atoms: C_4  and  N_5 
REMARK    3  A    between atoms: N_5  and  C_6 
REMARK    4  A    between atoms: C_13  and  C_14 
REMARK       I    between atoms: C_14  and  N_15 
ROOT
HETATM    1  C   UNL     1      -8.978   1.466 -32.469  1.00  0.00     0.035 A 
HETATM    2  C   UNL     1     -10.167   0.802 -32.772  1.00  0.00     0.046 A 
HETATM    3  C   UNL     1     -11.019   1.302 -33.782  1.00  0.00     0.030 A 
HETATM    4  C   UNL     1     -10.631   2.428 -34.492  1.00  0.00     0.063 A 
HETATM    5  N   UNL     1     -11.649   2.669 -35.373  1.00  0.00    -0.277 N 
HETATM    6  H   UNL     1     -11.708   3.418 -36.055  1.00  0.00     0.189 HD
HETATM    7  N   UNL     1     -12.686   1.819 -35.271  1.00  0.00    -0.168 NA
HETATM    8  C   UNL     1     -12.309   0.967 -34.291  1.00  0.00     0.156 A 
HETATM    9  C   UNL     1      -9.435   3.101 -34.249  1.00  0.00     0.034 A 
HETATM   10  C   UNL     1      -8.632   2.607 -33.210  1.00  0.00     0.032 A 
ENDROOT
BRANCH   1  11
HETATM   11  N   UNL     1      -8.147   1.151 -31.384  1.00  0.00    -0.326 N 
HETATM   12  C   UNL     1      -6.936   0.517 -31.243  1.00  0.00     0.235 C 
HETATM   13  O   UNL     1      -6.606   0.155 -30.112  1.00  0.00    -0.272 OA
HETATM   14  H   UNL     1      -8.514   1.385 -30.469  1.00  0.00     0.169 HD
BRANCH  12  15
HETATM   15  C   UNL     1      -5.923   0.428 -32.361  1.00  0.00     0.068 A 
HETATM   16  C   UNL     1      -4.660   1.281 -32.354  1.00  0.00     0.026 A 
HETATM   17  C   UNL     1      -5.784   1.711 -33.221  1.00  0.00     0.026 A 
BRANCH  15  18
HETATM   18  C   UNL     1      -6.003  -0.855 -33.200  1.00  0.00    -0.040 A 
HETATM   19  C   UNL     1      -4.836  -1.599 -33.471  1.00  0.00     0.010 A 
HETATM   20  C   UNL     1      -4.867  -2.768 -34.236  1.00  0.00     0.024 A 
HETATM   21  C   UNL     1      -6.075  -3.211 -34.758  1.00  0.00     0.034 A 
HETATM   22  C   UNL     1      -7.246  -2.496 -34.517  1.00  0.00     0.024 A 
HETATM   23 CL   UNL     1      -6.123  -4.646 -35.704  1.00  0.00    -0.084 Cl
HETATM   24  C   UNL     1      -7.208  -1.329 -33.744  1.00  0.00     0.010 A 
ENDBRANCH  15  18
ENDBRANCH  12  15
ENDBRANCH   1  11
BRANCH   8  25
HETATM   25  C   UNL     1     -13.188  -0.118 -33.835  1.00  0.00     0.270 C 
HETATM   26  N   UNL     1     -14.511   0.069 -34.130  1.00  0.00    -0.365 N 
HETATM   27  H   UNL     1     -14.788   0.921 -34.605  1.00  0.00     0.159 HD
HETATM   28  H   UNL     1     -15.194  -0.602 -33.817  1.00  0.00     0.159 HD
HETATM   29  O   UNL     1     -12.803  -1.111 -33.225  1.00  0.00    -0.266 OA
ENDBRANCH   8  25
TORSDOF 4
ENDMDL
MODEL 2
REMARK VINA RESULT:      -9.2      1.971      2.877
REMARK  4 active torsions:
REMARK  status: ('A' for Active; 'I' for Inactive)
REMARK    1  A    between atoms: C_2  and  C_3 
REMARK    2  A    between atoms: C_3  and  C_4 
REMARK       I    between atoms: C_4  and  N_5 
REMARK    3  A    between atoms: N_5  and  C_6 
REMARK    4  A    between atoms: C_13  and  C_14 
REMARK       I    between atoms: C_14  and  N_15 
ROOT
HETATM    1  C   UNL     1      -8.626   1.369 -31.835  1.00  0.00     0.035 A 
HETATM    2  C   UNL     1      -8.779   2.602 -32.470  1.00  0.00     0.046 A 
HETATM    3  C   UNL     1      -9.715   2.744 -33.520  1.00  0.00     0.030 A 
HETATM    4  C   UNL     1     -10.502   1.658 -33.871  1.00  0.00     0.063 A 
HETATM    5  N   UNL     1     -11.282   2.096 -34.906  1.00  0.00    -0.277 N 
HETATM    6  H   UNL     1     -11.981   1.567 -35.416  1.00  0.00     0.189 HD
HETATM    7  N   UNL     1     -11.043   3.364 -35.285  1.00  0.00    -0.168 NA
HETATM    8  C   UNL     1     -10.076   3.777 -34.435  1.00  0.00     0.156 A 
HETATM    9  C   UNL     1     -10.409   0.420 -33.238  1.00  0.00     0.034 A 
HETATM   10  C   UNL     1      -9.440   0.297 -32.230  1.00  0.00     0.032 A 
ENDROOT
BRANCH   1  11
HETATM   11  N   UNL     1      -7.621   1.077 -30.900  1.00  0.00    -0.326 N 
HETATM   12  C   UNL     1      -6.375   0.500 -30.965  1.00  0.00     0.235 C 
HETATM   13  O   UNL     1      -5.856   0.136 -29.907  1.00  0.00    -0.272 OA
HETATM   14  H   UNL     1      -7.851   1.279 -29.934  1.00  0.00     0.169 HD
BRANCH  12  15
HETATM   15  C   UNL     1      -5.548   0.477 -32.228  1.00  0.00     0.068 A 
HETATM   16  C   UNL     1      -4.327   1.376 -32.391  1.00  0.00     0.026 A 
HETATM   17  C   UNL     1      -5.587   1.785 -33.059  1.00  0.00     0.026 A 
BRANCH  15  18
HETATM   18  C   UNL     1      -5.716  -0.787 -33.084  1.00  0.00    -0.040 A 
HETATM   19  C   UNL     1      -4.612  -1.632 -33.324  1.00  0.00     0.010 A 
HETATM   20  C   UNL     1      -4.724  -2.787 -34.103  1.00  0.00     0.024 A 
HETATM   21  C   UNL     1      -5.949  -3.113 -34.670  1.00  0.00     0.034 A 
HETATM   22  C   UNL     1      -7.057  -2.297 -34.460  1.00  0.00     0.024 A 
HETATM   23 CL   UNL     1      -6.095  -4.530 -35.633  1.00  0.00    -0.084 Cl
HETATM   24  C   UNL     1      -6.940  -1.145 -33.673  1.00  0.00     0.010 A 
ENDBRANCH  15  18
ENDBRANCH  12  15
ENDBRANCH   1  11
BRANCH   8  25
HETATM   25  C   UNL     1      -9.492   5.122 -34.531  1.00  0.00     0.270 C 
HETATM   26  N   UNL     1     -10.406   6.119 -34.739  1.00  0.00    -0.365 N 
HETATM   27  H   UNL     1     -11.385   5.869 -34.832  1.00  0.00     0.159 HD
HETATM   28  H   UNL     1     -10.093   7.068 -34.862  1.00  0.00     0.159 HD
HETATM   29  O   UNL     1      -8.291   5.362 -34.452  1.00  0.00    -0.266 OA
ENDBRANCH   8  25
TORSDOF 4
ENDMDL
MODEL 3
REMARK VINA RESULT:      -8.8      2.195      2.898
REMARK  4 active torsions:
REMARK  status: ('A' for Active; 'I' for Inactive)
REMARK    1  A    between atoms: C_2  and  C_3 
REMARK    2  A    between atoms: C_3  and  C_4 
REMARK       I    between atoms: C_4  and  N_5 
REMARK    3  A    between atoms: N_5  and  C_6 
REMARK    4  A    between atoms: C_13  and  C_14 
REMARK       I    between atoms: C_14  and  N_15 
ROOT
HETATM    1  C   UNL     1     -10.397   2.927 -33.616  1.00  0.00     0.035 A 
HETATM    2  C   UNL     1     -11.520   2.150 -33.902  1.00  0.00     0.046 A 
HETATM    3  C   UNL     1     -12.701   2.307 -33.142  1.00  0.00     0.030 A 
HETATM    4  C   UNL     1     -12.737   3.273 -32.147  1.00  0.00     0.063 A 
HETATM    5  N   UNL     1     -13.983   3.176 -31.593  1.00  0.00    -0.277 N 
HETATM    6  H   UNL     1     -14.363   3.730 -30.833  1.00  0.00     0.189 HD
HETATM    7  N   UNL     1     -14.750   2.202 -32.115  1.00  0.00    -0.168 NA
HETATM    8  C   UNL     1     -13.969   1.657 -33.075  1.00  0.00     0.156 A 
HETATM    9  C   UNL     1     -11.652   4.097 -31.853  1.00  0.00     0.034 A 
HETATM   10  C   UNL     1     -10.479   3.886 -32.595  1.00  0.00     0.032 A 
ENDROOT
BRANCH   1  11
HETATM   11  N   UNL     1      -9.133   2.739 -34.196  1.00  0.00    -0.326 N 
HETATM   12  C   UNL     1      -8.008   2.028 -33.857  1.00  0.00     0.235 C 
HETATM   13  O   UNL     1      -6.959   2.299 -34.446  1.00  0.00    -0.272 OA
HETATM   14  H   UNL     1      -8.953   3.278 -35.035  1.00  0.00     0.169 HD
BRANCH  12  15
HETATM   15  C   UNL     1      -8.046   0.816 -32.956  1.00  0.00     0.068 A 
HETATM   16  C   UNL     1      -9.263   0.511 -32.090  1.00  0.00     0.026 A 
HETATM   17  C   UNL     1      -8.082   1.129 -31.438  1.00  0.00     0.026 A 
BRANCH  15  18
HETATM   18  C   UNL     1      -7.042  -0.287 -33.321  1.00  0.00    -0.040 A 
HETATM   19  C   UNL     1      -7.404  -1.303 -34.230  1.00  0.00     0.010 A 
HETATM   20  C   UNL     1      -6.521  -2.327 -34.582  1.00  0.00     0.024 A 
HETATM   21  C   UNL     1      -5.253  -2.361 -34.016  1.00  0.00     0.034 A 
HETATM   22  C   UNL     1      -4.865  -1.378 -33.108  1.00  0.00     0.024 A 
HETATM   23 CL   UNL     1      -4.160  -3.620 -34.439  1.00  0.00    -0.084 Cl
HETATM   24  C   UNL     1      -5.753  -0.351 -32.766  1.00  0.00     0.010 A 
ENDBRANCH  15  18
ENDBRANCH  12  15
ENDBRANCH   1  11
BRANCH   8  25
HETATM   25  C   UNL     1     -14.425   0.515 -33.881  1.00  0.00     0.270 C 
HETATM   26  N   UNL     1     -13.877  -0.684 -33.516  1.00  0.00    -0.365 N 
HETATM   27  H   UNL     1     -13.203  -0.700 -32.757  1.00  0.00     0.159 HD
HETATM   28  H   UNL     1     -14.096  -1.516 -34.040  1.00  0.00     0.159 HD
HETATM   29  O   UNL     1     -15.213   0.600 -34.817  1.00  0.00    -0.266 OA
ENDBRANCH   8  25
TORSDOF 4
ENDMDL
MODEL 4
REMARK VINA RESULT:      -8.7      4.254      7.272
REMARK  4 active torsions:
REMARK  status: ('A' for Active; 'I' for Inactive)
REMARK    1  A    between atoms: C_2  and  C_3 
REMARK    2  A    between atoms: C_3  and  C_4 
REMARK       I    between atoms: C_4  and  N_5 
REMARK    3  A    between atoms: N_5  and  C_6 
REMARK    4  A    between atoms: C_13  and  C_14 
REMARK       I    between atoms: C_14  and  N_15 
ROOT
HETATM    1  C   UNL     1      -6.557   0.919 -34.244  1.00  0.00     0.035 A 
HETATM    2  C   UNL     1      -5.463   0.644 -33.423  1.00  0.00     0.046 A 
HETATM    3  C   UNL     1      -4.941  -0.668 -33.359  1.00  0.00     0.030 A 
HETATM    4  C   UNL     1      -5.501  -1.655 -34.154  1.00  0.00     0.063 A 
HETATM    5  N   UNL     1      -4.803  -2.795 -33.864  1.00  0.00    -0.277 N 
HETATM    6  H   UNL     1      -4.940  -3.718 -34.261  1.00  0.00     0.189 HD
HETATM    7  N   UNL     1      -3.859  -2.643 -32.918  1.00  0.00    -0.168 NA
HETATM    8  C   UNL     1      -3.933  -1.331 -32.596  1.00  0.00     0.156 A 
HETATM    9  C   UNL     1      -6.570  -1.416 -35.017  1.00  0.00     0.034 A 
HETATM   10  C   UNL     1      -7.096  -0.114 -35.025  1.00  0.00     0.032 A 
ENDROOT
BRANCH   1  11
HETATM   11  N   UNL     1      -7.251   2.139 -34.259  1.00  0.00    -0.326 N 
HETATM   12  C   UNL     1      -7.337   3.216 -33.410  1.00  0.00     0.235 C 
HETATM   13  O   UNL     1      -8.260   4.014 -33.586  1.00  0.00    -0.272 OA
HETATM   14  H   UNL     1      -7.886   2.271 -35.038  1.00  0.00     0.169 HD
BRANCH  12  15
HETATM   15  C   UNL     1      -6.252   3.564 -32.417  1.00  0.00     0.068 A 
HETATM   16  C   UNL     1      -6.292   3.040 -30.985  1.00  0.00     0.026 A 
HETATM   17  C   UNL     1      -6.714   4.443 -31.226  1.00  0.00     0.026 A 
BRANCH  15  18
HETATM   18  C   UNL     1      -4.936   4.042 -33.045  1.00  0.00    -0.040 A 
HETATM   19  C   UNL     1      -4.954   4.839 -34.209  1.00  0.00     0.010 A 
HETATM   20  C   UNL     1      -3.777   5.288 -34.813  1.00  0.00     0.024 A 
HETATM   21  C   UNL     1      -2.550   4.934 -34.268  1.00  0.00     0.034 A 
HETATM   22  C   UNL     1      -2.495   4.140 -33.124  1.00  0.00     0.024 A 
HETATM   23 CL   UNL     1      -1.095   5.477 -35.007  1.00  0.00    -0.084 Cl
HETATM   24  C   UNL     1      -3.679   3.700 -32.520  1.00  0.00     0.010 A 
ENDBRANCH  15  18
ENDBRANCH  12  15
ENDBRANCH   1  11
BRANCH   8  25
HETATM   25  C   UNL     1      -3.078  -0.745 -31.555  1.00  0.00     0.270 C 
HETATM   26  N   UNL     1      -1.828  -1.296 -31.479  1.00  0.00    -0.365 N 
HETATM   27  H   UNL     1      -1.593  -2.057 -32.107  1.00  0.00     0.159 HD
HETATM   28  H   UNL     1      -1.187  -0.988 -30.765  1.00  0.00     0.159 HD
HETATM   29  O   UNL     1      -3.430   0.149 -30.793  1.00  0.00    -0.266 OA
ENDBRANCH   8  25
TORSDOF 4
ENDMDL
MODEL 5
REMARK VINA RESULT:      -8.6      2.827      3.636
REMARK  4 active torsions:
REMARK  status: ('A' for Active; 'I' for Inactive)
REMARK    1  A    between atoms: C_2  and  C_3 
REMARK    2  A    between atoms: C_3  and  C_4 
REMARK       I    between atoms: C_4  and  N_5 
REMARK    3  A    between atoms: N_5  and  C_6 
REMARK    4  A    between atoms: C_13  and  C_14 
REMARK       I    between atoms: C_14  and  N_15 
ROOT
HETATM    1  C   UNL     1     -10.804   2.122 -34.198  1.00  0.00     0.035 A 
HETATM    2  C   UNL     1     -11.297   2.811 -33.090  1.00  0.00     0.046 A 
HETATM    3  C   UNL     1     -12.691   2.904 -32.877  1.00  0.00     0.030 A 
HETATM    4  C   UNL     1     -13.549   2.262 -33.756  1.00  0.00     0.063 A 
HETATM    5  N   UNL     1     -14.809   2.542 -33.302  1.00  0.00    -0.277 N 
HETATM    6  H   UNL     1     -15.689   2.235 -33.702  1.00  0.00     0.189 HD
HETATM    7  N   UNL     1     -14.845   3.344 -32.223  1.00  0.00    -0.168 NA
HETATM    8  C   UNL     1     -13.542   3.575 -31.949  1.00  0.00     0.156 A 
HETATM    9  C   UNL     1     -13.100   1.530 -34.854  1.00  0.00     0.034 A 
HETATM   10  C   UNL     1     -11.712   1.495 -35.065  1.00  0.00     0.032 A 
ENDROOT
BRANCH   1  11
HETATM   11  N   UNL     1      -9.457   2.107 -34.590  1.00  0.00    -0.326 N 
HETATM   12  C   UNL     1      -8.312   1.525 -34.101  1.00  0.00     0.235 C 
HETATM   13  O   UNL     1      -7.231   1.939 -34.526  1.00  0.00    -0.272 OA
HETATM   14  H   UNL     1      -9.226   2.692 -35.385  1.00  0.00     0.169 HD
BRANCH  12  15
HETATM   15  C   UNL     1      -8.329   0.286 -33.236  1.00  0.00     0.068 A 
HETATM   16  C   UNL     1      -9.588  -0.142 -32.492  1.00  0.00     0.026 A 
HETATM   17  C   UNL     1      -8.526   0.550 -31.721  1.00  0.00     0.026 A 
BRANCH  15  18
HETATM   18  C   UNL     1      -7.208  -0.720 -33.533  1.00  0.00    -0.040 A 
HETATM   19  C   UNL     1      -5.959  -0.599 -32.889  1.00  0.00     0.010 A 
HETATM   20  C   UNL     1      -4.912  -1.491 -33.138  1.00  0.00     0.024 A 
HETATM   21  C   UNL     1      -5.094  -2.521 -34.053  1.00  0.00     0.034 A 
HETATM   22  C   UNL     1      -6.311  -2.664 -34.713  1.00  0.00     0.024 A 
HETATM   23 CL   UNL     1      -3.810  -3.620 -34.369  1.00  0.00    -0.084 Cl
HETATM   24  C   UNL     1      -7.358  -1.770 -34.454  1.00  0.00     0.010 A 
ENDBRANCH  15  18
ENDBRANCH  12  15
ENDBRANCH   1  11
BRANCH   8  25
HETATM   25  C   UNL     1     -13.132   4.451 -30.842  1.00  0.00     0.270 C 
HETATM   26  N   UNL     1     -12.543   3.796 -29.796  1.00  0.00    -0.365 N 
HETATM   27  H   UNL     1     -12.451   2.787 -29.843  1.00  0.00     0.159 HD
HETATM   28  H   UNL     1     -12.270   4.308 -28.973  1.00  0.00     0.159 HD
HETATM   29  O   UNL     1     -13.306   5.665 -30.820  1.00  0.00    -0.266 OA
ENDBRANCH   8  25
TORSDOF 4
ENDMDL
MODEL 6
REMARK VINA RESULT:      -8.6      3.528      7.119
REMARK  4 active torsions:
REMARK  status: ('A' for Active; 'I' for Inactive)
REMARK    1  A    between atoms: C_2  and  C_3 
REMARK    2  A    between atoms: C_3  and  C_4 
REMARK       I    between atoms: C_4  and  N_5 
REMARK    3  A    between atoms: N_5  and  C_6 
REMARK    4  A    between atoms: C_13  and  C_14 
REMARK       I    between atoms: C_14  and  N_15 
ROOT
HETATM    1  C   UNL     1      -7.579   0.283 -32.162  1.00  0.00     0.035 A 
HETATM    2  C   UNL     1      -6.242  -0.040 -31.937  1.00  0.00     0.046 A 
HETATM    3  C   UNL     1      -5.581  -0.953 -32.790  1.00  0.00     0.030 A 
HETATM    4  C   UNL     1      -6.269  -1.479 -33.873  1.00  0.00     0.063 A 
HETATM    5  N   UNL     1      -5.386  -2.323 -34.488  1.00  0.00    -0.277 N 
HETATM    6  H   UNL     1      -5.547  -2.884 -35.318  1.00  0.00     0.189 HD
HETATM    7  N   UNL     1      -4.193  -2.422 -33.876  1.00  0.00    -0.168 NA
HETATM    8  C   UNL     1      -4.299  -1.578 -32.824  1.00  0.00     0.156 A 
HETATM    9  C   UNL     1      -7.595  -1.154 -34.158  1.00  0.00     0.034 A 
HETATM   10  C   UNL     1      -8.236  -0.280 -33.267  1.00  0.00     0.032 A 
ENDROOT
BRANCH   1  11
HETATM   11  N   UNL     1      -8.370   1.046 -31.289  1.00  0.00    -0.326 N 
HETATM   12  C   UNL     1      -9.089   2.212 -31.401  1.00  0.00     0.235 C 
HETATM   13  O   UNL     1      -9.450   2.765 -30.360  1.00  0.00    -0.272 OA
HETATM   14  H   UNL     1      -8.402   0.719 -30.330  1.00  0.00     0.169 HD
BRANCH  12  15
HETATM   15  C   UNL     1      -9.617   2.725 -32.720  1.00  0.00     0.068 A 
HETATM   16  C   UNL     1      -8.673   3.190 -33.823  1.00  0.00     0.026 A 
HETATM   17  C   UNL     1      -9.339   4.225 -32.996  1.00  0.00     0.026 A 
BRANCH  15  18
HETATM   18  C   UNL     1     -11.060   2.309 -33.040  1.00  0.00    -0.040 A 
HETATM   19  C   UNL     1     -11.317   1.079 -33.680  1.00  0.00     0.010 A 
HETATM   20  C   UNL     1     -12.615   0.668 -33.994  1.00  0.00     0.024 A 
HETATM   21  C   UNL     1     -13.688   1.494 -33.681  1.00  0.00     0.034 A 
HETATM   22  C   UNL     1     -13.469   2.719 -33.057  1.00  0.00     0.024 A 
HETATM   23 CL   UNL     1     -15.289   0.999 -34.068  1.00  0.00    -0.084 Cl
HETATM   24  C   UNL     1     -12.166   3.121 -32.739  1.00  0.00     0.010 A 
ENDBRANCH  15  18
ENDBRANCH  12  15
ENDBRANCH   1  11
BRANCH   8  25
HETATM   25  C   UNL     1      -3.205  -1.411 -31.858  1.00  0.00     0.270 C 
HETATM   26  N   UNL     1      -2.572  -2.575 -31.518  1.00  0.00    -0.365 N 
HETATM   27  H   UNL     1      -2.903  -3.445 -31.922  1.00  0.00     0.159 HD
HETATM   28  H   UNL     1      -1.838  -2.564 -30.828  1.00  0.00     0.159 HD
HETATM   29  O   UNL     1      -2.873  -0.336 -31.368  1.00  0.00    -0.266 OA
ENDBRANCH   8  25
TORSDOF 4
ENDMDL
MODEL 7
REMARK VINA RESULT:      -8.5      2.133      2.871
REMARK  4 active torsions:
REMARK  status: ('A' for Active; 'I' for Inactive)
REMARK    1  A    between atoms: C_2  and  C_3 
REMARK    2  A    between atoms: C_3  and  C_4 
REMARK       I    between atoms: C_4  and  N_5 
REMARK    3  A    between atoms: N_5  and  C_6 
REMARK    4  A    between atoms: C_13  and  C_14 
REMARK       I    between atoms: C_14  and  N_15 
ROOT
HETATM    1  C   UNL     1      -6.744   3.153 -32.760  1.00  0.00     0.035 A 
HETATM    2  C   UNL     1      -7.909   2.531 -33.207  1.00  0.00     0.046 A 
HETATM    3  C   UNL     1      -9.172   3.011 -32.789  1.00  0.00     0.030 A 
HETATM    4  C   UNL     1      -9.228   4.130 -31.972  1.00  0.00     0.063 A 
HETATM    5  N   UNL     1     -10.559   4.336 -31.733  1.00  0.00    -0.277 N 
HETATM    6  H   UNL     1     -10.977   5.071 -31.172  1.00  0.00     0.189 HD
HETATM    7  N   UNL     1     -11.373   3.424 -32.293  1.00  0.00    -0.168 NA
HETATM    8  C   UNL     1     -10.528   2.597 -32.950  1.00  0.00     0.156 A 
HETATM    9  C   UNL     1      -8.091   4.805 -31.533  1.00  0.00     0.034 A 
HETATM   10  C   UNL     1      -6.851   4.278 -31.929  1.00  0.00     0.032 A 
ENDROOT
BRANCH   1  11
HETATM   11  N   UNL     1      -5.447   2.663 -32.981  1.00  0.00    -0.326 N 
HETATM   12  C   UNL     1      -4.704   1.626 -32.471  1.00  0.00     0.235 C 
HETATM   13  O   UNL     1      -3.488   1.635 -32.679  1.00  0.00    -0.272 OA
HETATM   14  H   UNL     1      -4.878   3.204 -33.622  1.00  0.00     0.169 HD
BRANCH  12  15
HETATM   15  C   UNL     1      -5.329   0.396 -31.855  1.00  0.00     0.068 A 
HETATM   16  C   UNL     1      -6.124   0.478 -30.557  1.00  0.00     0.026 A 
HETATM   17  C   UNL     1      -4.730  -0.027 -30.489  1.00  0.00     0.026 A 
BRANCH  15  18
HETATM   18  C   UNL     1      -5.517  -0.782 -32.822  1.00  0.00    -0.040 A 
HETATM   19  C   UNL     1      -6.794  -1.070 -33.347  1.00  0.00     0.010 A 
HETATM   20  C   UNL     1      -7.007  -2.137 -34.224  1.00  0.00     0.024 A 
HETATM   21  C   UNL     1      -5.940  -2.949 -34.585  1.00  0.00     0.034 A 
HETATM   22  C   UNL     1      -4.667  -2.698 -34.078  1.00  0.00     0.024 A 
HETATM   23 CL   UNL     1      -6.193  -4.267 -35.660  1.00  0.00    -0.084 Cl
HETATM   24  C   UNL     1      -4.460  -1.623 -33.205  1.00  0.00     0.010 A 
ENDBRANCH  15  18
ENDBRANCH  12  15
ENDBRANCH   1  11
BRANCH   8  25
HETATM   25  C   UNL     1     -11.016   1.421 -33.682  1.00  0.00     0.270 C 
HETATM   26  N   UNL     1     -10.876   0.240 -33.006  1.00  0.00    -0.365 N 
HETATM   27  H   UNL     1     -10.442   0.253 -32.089  1.00  0.00     0.159 HD
HETATM   28  H   UNL     1     -11.143  -0.625 -33.447  1.00  0.00     0.159 HD
HETATM   29  O   UNL     1     -11.496   1.459 -34.811  1.00  0.00    -0.266 OA
ENDBRANCH   8  25
TORSDOF 4
ENDMDL
MODEL 8
REMARK VINA RESULT:      -8.5      3.632      6.584
REMARK  4 active torsions:
REMARK  status: ('A' for Active; 'I' for Inactive)
REMARK    1  A    between atoms: C_2  and  C_3 
REMARK    2  A    between atoms: C_3  and  C_4 
REMARK       I    between atoms: C_4  and  N_5 
REMARK    3  A    between atoms: N_5  and  C_6 
REMARK    4  A    between atoms: C_13  and  C_14 
REMARK       I    between atoms: C_14  and  N_15 
ROOT
HETATM    1  C   UNL     1      -6.857   3.144 -33.021  1.00  0.00     0.035 A 
HETATM    2  C   UNL     1      -5.748   3.662 -33.691  1.00  0.00     0.046 A 
HETATM    3  C   UNL     1      -4.556   3.934 -32.981  1.00  0.00     0.030 A 
HETATM    4  C   UNL     1      -4.496   3.634 -31.629  1.00  0.00     0.063 A 
HETATM    5  N   UNL     1      -3.245   4.015 -31.229  1.00  0.00    -0.277 N 
HETATM    6  H   UNL     1      -2.849   3.944 -30.298  1.00  0.00     0.189 HD
HETATM    7  N   UNL     1      -2.498   4.574 -32.197  1.00  0.00    -0.168 NA
HETATM    8  C   UNL     1      -3.297   4.529 -33.288  1.00  0.00     0.156 A 
HETATM    9  C   UNL     1      -5.567   3.080 -30.928  1.00  0.00     0.034 A 
HETATM   10  C   UNL     1      -6.750   2.864 -31.650  1.00  0.00     0.032 A 
ENDROOT
BRANCH   1  11
HETATM   11  N   UNL     1      -8.130   2.992 -33.592  1.00  0.00    -0.326 N 
HETATM   12  C   UNL     1      -8.945   1.921 -33.869  1.00  0.00     0.235 C 
HETATM   13  O   UNL     1      -9.895   2.106 -34.634  1.00  0.00    -0.272 OA
HETATM   14  H   UNL     1      -8.558   3.842 -33.939  1.00  0.00     0.169 HD
BRANCH  12  15
HETATM   15  C   UNL     1      -8.848   0.606 -33.133  1.00  0.00     0.068 A 
HETATM   16  C   UNL     1     -10.082  -0.056 -32.529  1.00  0.00     0.026 A 
HETATM   17  C   UNL     1      -9.170   0.679 -31.618  1.00  0.00     0.026 A 
BRANCH  15  18
HETATM   18  C   UNL     1      -7.587  -0.213 -33.443  1.00  0.00    -0.040 A 
HETATM   19  C   UNL     1      -7.433  -0.827 -34.703  1.00  0.00     0.010 A 
HETATM   20  C   UNL     1      -6.303  -1.586 -35.021  1.00  0.00     0.024 A 
HETATM   21  C   UNL     1      -5.304  -1.755 -34.071  1.00  0.00     0.034 A 
HETATM   22  C   UNL     1      -5.428  -1.169 -32.813  1.00  0.00     0.024 A 
HETATM   23 CL   UNL     1      -3.912  -2.690 -34.450  1.00  0.00    -0.084 Cl
HETATM   24  C   UNL     1      -6.560  -0.405 -32.504  1.00  0.00     0.010 A 
ENDBRANCH  15  18
ENDBRANCH  12  15
ENDBRANCH   1  11
BRANCH   8  25
HETATM   25  C   UNL     1      -2.866   5.081 -34.580  1.00  0.00     0.270 C 
HETATM   26  N   UNL     1      -1.511   5.084 -34.766  1.00  0.00    -0.365 N 
HETATM   27  H   UNL     1      -0.917   4.738 -34.020  1.00  0.00     0.159 HD
HETATM   28  H   UNL     1      -1.121   5.484 -35.604  1.00  0.00     0.159 HD
HETATM   29  O   UNL     1      -3.630   5.525 -35.431  1.00  0.00    -0.266 OA
ENDBRANCH   8  25
TORSDOF 4
ENDMDL
MODEL 9
REMARK VINA RESULT:      -8.4      4.315      6.819
REMARK  4 active torsions:
REMARK  status: ('A' for Active; 'I' for Inactive)
REMARK    1  A    between atoms: C_2  and  C_3 
REMARK    2  A    between atoms: C_3  and  C_4 
REMARK       I    between atoms: C_4  and  N_5 
REMARK    3  A    between atoms: N_5  and  C_6 
REMARK    4  A    between atoms: C_13  and  C_14 
REMARK       I    between atoms: C_14  and  N_15 
ROOT
HETATM    1  C   UNL     1      -5.184   3.179 -32.235  1.00  0.00     0.035 A 
HETATM    2  C   UNL     1      -4.020   3.917 -32.019  1.00  0.00     0.046 A 
HETATM    3  C   UNL     1      -3.489   4.720 -33.054  1.00  0.00     0.030 A 
HETATM    4  C   UNL     1      -4.168   4.796 -34.261  1.00  0.00     0.063 A 
HETATM    5  N   UNL     1      -3.414   5.623 -35.048  1.00  0.00    -0.277 N 
HETATM    6  H   UNL     1      -3.607   5.906 -36.003  1.00  0.00     0.189 HD
HETATM    7  N   UNL     1      -2.282   6.061 -34.470  1.00  0.00    -0.168 NA
HETATM    8  C   UNL     1      -2.316   5.510 -33.235  1.00  0.00     0.156 A 
HETATM    9  C   UNL     1      -5.354   4.106 -34.507  1.00  0.00     0.034 A 
HETATM   10  C   UNL     1      -5.831   3.283 -33.476  1.00  0.00     0.032 A 
ENDROOT
BRANCH   1  11
HETATM   11  N   UNL     1      -5.702   2.232 -31.339  1.00  0.00    -0.326 N 
HETATM   12  C   UNL     1      -5.658   0.861 -31.245  1.00  0.00     0.235 C 
HETATM   13  O   UNL     1      -6.457   0.313 -30.483  1.00  0.00    -0.272 OA
HETATM   14  H   UNL     1      -6.294   2.603 -30.604  1.00  0.00     0.169 HD
BRANCH  12  15
HETATM   15  C   UNL     1      -4.560   0.033 -31.869  1.00  0.00     0.068 A 
HETATM   16  C   UNL     1      -3.172  -0.042 -31.244  1.00  0.00     0.026 A 
HETATM   17  C   UNL     1      -3.359   0.845 -32.419  1.00  0.00     0.026 A 
BRANCH  15  18
HETATM   18  C   UNL     1      -5.048  -1.054 -32.838  1.00  0.00    -0.040 A 
HETATM   19  C   UNL     1      -4.196  -2.122 -33.192  1.00  0.00     0.010 A 
HETATM   20  C   UNL     1      -4.601  -3.126 -34.075  1.00  0.00     0.024 A 
HETATM   21  C   UNL     1      -5.871  -3.073 -34.635  1.00  0.00     0.034 A 
HETATM   22  C   UNL     1      -6.734  -2.028 -34.315  1.00  0.00     0.024 A 
HETATM   23 CL   UNL     1      -6.377  -4.302 -35.727  1.00  0.00    -0.084 Cl
HETATM   24  C   UNL     1      -6.324  -1.029 -33.423  1.00  0.00     0.010 A 
ENDBRANCH  15  18
ENDBRANCH  12  15
ENDBRANCH   1  11
BRANCH   8  25
HETATM   25  C   UNL     1      -1.225   5.714 -32.272  1.00  0.00     0.270 C 
HETATM   26  N   UNL     1      -1.164   6.978 -31.752  1.00  0.00    -0.365 N 
HETATM   27  H   UNL     1      -1.836   7.668 -32.070  1.00  0.00     0.159 HD
HETATM   28  H   UNL     1      -0.421   7.224 -31.117  1.00  0.00     0.159 HD
HETATM   29  O   UNL     1      -0.413   4.852 -31.954  1.00  0.00    -0.266 OA
ENDBRANCH   8  25
TORSDOF 4
ENDMDL
MODEL 10
REMARK VINA RESULT:      -8.4      2.472      3.749
REMARK  4 active torsions:
REMARK  status: ('A' for Active; 'I' for Inactive)
REMARK    1  A    between atoms: C_2  and  C_3 
REMARK    2  A    between atoms: C_3  and  C_4 
REMARK       I    between atoms: C_4  and  N_5 
REMARK    3  A    between atoms: N_5  and  C_6 
REMARK    4  A    between atoms: C_13  and  C_14 
REMARK       I    between atoms: C_14  and  N_15 
ROOT
HETATM    1  C   UNL     1      -5.050   3.383 -32.977  1.00  0.00     0.035 A 
HETATM    2  C   UNL     1      -6.300   2.946 -33.415  1.00  0.00     0.046 A 
HETATM    3  C   UNL     1      -7.322   3.885 -33.685  1.00  0.00     0.030 A 
HETATM    4  C   UNL     1      -7.045   5.237 -33.552  1.00  0.00     0.063 A 
HETATM    5  N   UNL     1      -8.213   5.878 -33.863  1.00  0.00    -0.277 N 
HETATM    6  H   UNL     1      -8.382   6.878 -33.872  1.00  0.00     0.189 HD
HETATM    7  N   UNL     1      -9.238   5.056 -34.151  1.00  0.00    -0.168 NA
HETATM    8  C   UNL     1      -8.701   3.820 -34.045  1.00  0.00     0.156 A 
HETATM    9  C   UNL     1      -5.799   5.719 -33.153  1.00  0.00     0.034 A 
HETATM   10  C   UNL     1      -4.819   4.761 -32.849  1.00  0.00     0.032 A 
ENDROOT
BRANCH   1  11
HETATM   11  N   UNL     1      -4.025   2.536 -32.528  1.00  0.00    -0.326 N 
HETATM   12  C   UNL     1      -3.967   1.439 -31.701  1.00  0.00     0.235 C 
HETATM   13  O   UNL     1      -2.858   1.090 -31.289  1.00  0.00    -0.272 OA
HETATM   14  H   UNL     1      -3.089   2.789 -32.820  1.00  0.00     0.169 HD
BRANCH  12  15
HETATM   15  C   UNL     1      -5.155   0.543 -31.445  1.00  0.00     0.068 A 
HETATM   16  C   UNL     1      -6.310   0.993 -30.557  1.00  0.00     0.026 A 
HETATM   17  C   UNL     1      -5.309   0.063 -29.979  1.00  0.00     0.026 A 
BRANCH  15  18
HETATM   18  C   UNL     1      -5.343  -0.584 -32.471  1.00  0.00    -0.040 A 
HETATM   19  C   UNL     1      -6.598  -0.782 -33.084  1.00  0.00     0.010 A 
HETATM   20  C   UNL     1      -6.810  -1.800 -34.017  1.00  0.00     0.024 A 
HETATM   21  C   UNL     1      -5.765  -2.653 -34.348  1.00  0.00     0.034 A 
HETATM   22  C   UNL     1      -4.515  -2.491 -33.756  1.00  0.00     0.024 A 
HETATM   23 CL   UNL     1      -6.017  -3.912 -35.492  1.00  0.00    -0.084 Cl
HETATM   24  C   UNL     1      -4.308  -1.464 -32.826  1.00  0.00     0.010 A 
ENDBRANCH  15  18
ENDBRANCH  12  15
ENDBRANCH   1  11
BRANCH   8  25
HETATM   25  C   UNL     1      -9.509   2.610 -34.251  1.00  0.00     0.270 C 
HETATM   26  N   UNL     1     -10.528   2.761 -35.151  1.00  0.00    -0.365 N 
HETATM   27  H   UNL     1     -10.665   3.669 -35.582  1.00  0.00     0.159 HD
HETATM   28  H   UNL     1     -11.162   1.998 -35.322  1.00  0.00     0.159 HD
HETATM   29  O   UNL     1      -9.322   1.547 -33.668  1.00  0.00    -0.266 OA
ENDBRANCH   8  25
TORSDOF 4
ENDMDL
