MODEL 1
REMARK VINA RESULT:      -8.0      0.000      0.000
REMARK  6 active torsions:
REMARK  status: ('A' for Active; 'I' for Inactive)
REMARK    1  A    between atoms: C_2  and  C_3 
REMARK    2  A    between atoms: C_5  and  C_6 
REMARK       I    between atoms: C_6  and  N_7 
REMARK    3  A    between atoms: N_7  and  C_8 
REMARK    4  A    between atoms: C_8  and  C_9 
REMARK    5  A    between atoms: C_9  and  C_10 
REMARK    6  A    between atoms: C_19  and  O_20 
ROOT
HETATM    1  C   UNL     1      -8.982   1.025 -33.011  1.00  0.00     0.254 C 
HETATM    2  N   UNL     1      -8.586  -0.258 -33.315  1.00  0.00    -0.356 N 
HETATM    3  O   UNL     1      -8.312   1.768 -32.300  1.00  0.00    -0.268 OA
HETATM    4  H   UNL     1      -9.172  -0.778 -33.962  1.00  0.00     0.162 HD
ENDROOT
BRANCH   1   5
HETATM    5  C   UNL     1     -10.279   1.496 -33.595  1.00  0.00     0.065 A 
HETATM    6  C   UNL     1     -11.377   0.623 -33.487  1.00  0.00     0.027 A 
HETATM    7  C   UNL     1     -12.637   0.966 -33.998  1.00  0.00    -0.057 A 
HETATM    8  C   UNL     1     -12.800   2.209 -34.618  1.00  0.00     0.010 A 
HETATM    9  C   UNL     1     -11.722   3.088 -34.735  1.00  0.00     0.038 A 
HETATM   10  C   UNL     1     -10.468   2.735 -34.226  1.00  0.00     0.081 A 
BRANCH   7  11
HETATM   11  C   UNL     1     -13.803   0.022 -33.847  1.00  0.00     0.034 C 
HETATM   12  C   UNL     1     -15.111   0.665 -34.285  1.00  0.00     0.010 C 
ENDBRANCH   7  11
BRANCH  10  13
HETATM   13  O   UNL     1      -9.436   3.631 -34.355  1.00  0.00    -0.360 OA
HETATM   14  H   UNL     1      -9.244   3.748 -35.303  1.00  0.00     0.217 HD
ENDBRANCH  10  13
ENDBRANCH   1   5
BRANCH   2  15
HETATM   15  C   UNL     1      -7.307  -0.783 -32.878  1.00  0.00     0.136 C 
BRANCH  15  16
HETATM   16  C   UNL     1      -6.208  -0.838 -33.979  1.00  0.00    -0.004 C 
HETATM   17  C   UNL     1      -6.717  -0.186 -35.286  1.00  0.00     0.021 C 
HETATM   18  C   UNL     1      -4.980  -0.018 -33.514  1.00  0.00     0.021 C 
BRANCH  16  19
HETATM   19  C   UNL     1      -5.866  -2.321 -34.245  1.00  0.00    -0.046 A 
HETATM   20  C   UNL     1      -6.849  -3.202 -34.726  1.00  0.00     0.027 A 
HETATM   21  C   UNL     1      -6.530  -4.535 -34.949  1.00  0.00     0.116 A 
HETATM   22  N   UNL     1      -5.309  -5.060 -34.731  1.00  0.00    -0.273 NA
HETATM   23  C   UNL     1      -4.372  -4.214 -34.261  1.00  0.00     0.116 A 
HETATM   24  C   UNL     1      -4.597  -2.866 -34.006  1.00  0.00     0.027 A 
ENDBRANCH  16  19
ENDBRANCH  15  16
ENDBRANCH   2  15
TORSDOF 6
ENDMDL
MODEL 2
REMARK VINA RESULT:      -8.0      5.146      8.409
REMARK  6 active torsions:
REMARK  status: ('A' for Active; 'I' for Inactive)
REMARK    1  A    between atoms: C_2  and  C_3 
REMARK    2  A    between atoms: C_5  and  C_6 
REMARK       I    between atoms: C_6  and  N_7 
REMARK    3  A    between atoms: N_7  and  C_8 
REMARK    4  A    between atoms: C_8  and  C_9 
REMARK    5  A    between atoms: C_9  and  C_10 
REMARK    6  A    between atoms: C_19  and  O_20 
ROOT
HETATM    1  C   UNL     1      -3.718   1.945 -31.865  1.00  0.00     0.254 C 
HETATM    2  N   UNL     1      -4.679   2.836 -32.284  1.00  0.00    -0.356 N 
HETATM    3  O   UNL     1      -2.752   2.289 -31.190  1.00  0.00    -0.268 OA
HETATM    4  H   UNL     1      -5.476   2.451 -32.785  1.00  0.00     0.162 HD
ENDROOT
BRANCH   1   5
HETATM    5  C   UNL     1      -3.897   0.510 -32.261  1.00  0.00     0.065 A 
HETATM    6  C   UNL     1      -4.942   0.226 -33.158  1.00  0.00     0.027 A 
HETATM    7  C   UNL     1      -5.195  -1.082 -33.594  1.00  0.00    -0.057 A 
HETATM    8  C   UNL     1      -4.381  -2.120 -33.130  1.00  0.00     0.010 A 
HETATM    9  C   UNL     1      -3.339  -1.857 -32.239  1.00  0.00     0.038 A 
HETATM   10  C   UNL     1      -3.098  -0.549 -31.806  1.00  0.00     0.081 A 
BRANCH   7  11
HETATM   11  C   UNL     1      -6.307  -1.356 -34.575  1.00  0.00     0.034 C 
HETATM   12  C   UNL     1      -6.687  -2.830 -34.602  1.00  0.00     0.010 C 
ENDBRANCH   7  11
BRANCH  10  13
HETATM   13  O   UNL     1      -2.059  -0.332 -30.935  1.00  0.00    -0.360 OA
HETATM   14  H   UNL     1      -2.427  -0.051 -30.078  1.00  0.00     0.217 HD
ENDBRANCH  10  13
ENDBRANCH   1   5
BRANCH   2  15
HETATM   15  C   UNL     1      -4.652   4.229 -31.882  1.00  0.00     0.136 C 
BRANCH  15  16
HETATM   16  C   UNL     1      -4.832   5.252 -33.041  1.00  0.00    -0.004 C 
HETATM   17  C   UNL     1      -5.522   4.582 -34.253  1.00  0.00     0.021 C 
HETATM   18  C   UNL     1      -5.760   6.398 -32.569  1.00  0.00     0.021 C 
BRANCH  16  19
HETATM   19  C   UNL     1      -3.433   5.756 -33.461  1.00  0.00    -0.046 A 
HETATM   20  C   UNL     1      -2.921   6.955 -32.935  1.00  0.00     0.027 A 
HETATM   21  C   UNL     1      -1.667   7.400 -33.331  1.00  0.00     0.116 A 
HETATM   22  N   UNL     1      -0.882   6.748 -34.209  1.00  0.00    -0.273 NA
HETATM   23  C   UNL     1      -1.381   5.604 -34.718  1.00  0.00     0.116 A 
HETATM   24  C   UNL     1      -2.624   5.079 -34.384  1.00  0.00     0.027 A 
ENDBRANCH  16  19
ENDBRANCH  15  16
ENDBRANCH   2  15
TORSDOF 6
ENDMDL
MODEL 3
REMARK VINA RESULT:      -7.9      4.998      8.245
REMARK  6 active torsions:
REMARK  status: ('A' for Active; 'I' for Inactive)
REMARK    1  A    between atoms: C_2  and  C_3 
REMARK    2  A    between atoms: C_5  and  C_6 
REMARK       I    between atoms: C_6  and  N_7 
REMARK    3  A    between atoms: N_7  and  C_8 
REMARK    4  A    between atoms: C_8  and  C_9 
REMARK    5  A    between atoms: C_9  and  C_10 
REMARK    6  A    between atoms: C_19  and  O_20 
ROOT
HETATM    1  C   UNL     1      -3.416   0.656 -31.875  1.00  0.00     0.254 C 
HETATM    2  N   UNL     1      -3.766   1.907 -32.329  1.00  0.00    -0.356 N 
HETATM    3  O   UNL     1      -2.666   0.491 -30.918  1.00  0.00    -0.268 OA
HETATM    4  H   UNL     1      -4.442   1.947 -33.088  1.00  0.00     0.162 HD
ENDROOT
BRANCH   1   5
HETATM    5  C   UNL     1      -3.997  -0.521 -32.598  1.00  0.00     0.065 A 
HETATM    6  C   UNL     1      -5.097  -0.269 -33.438  1.00  0.00     0.027 A 
HETATM    7  C   UNL     1      -5.715  -1.300 -34.161  1.00  0.00    -0.057 A 
HETATM    8  C   UNL     1      -5.216  -2.601 -34.046  1.00  0.00     0.010 A 
HETATM    9  C   UNL     1      -4.126  -2.870 -33.217  1.00  0.00     0.038 A 
HETATM   10  C   UNL     1      -3.519  -1.836 -32.496  1.00  0.00     0.081 A 
BRANCH   7  11
HETATM   11  C   UNL     1      -6.877  -0.999 -35.073  1.00  0.00     0.034 C 
HETATM   12  C   UNL     1      -7.088   0.499 -35.244  1.00  0.00     0.010 C 
ENDBRANCH   7  11
BRANCH  10  13
HETATM   13  O   UNL     1      -2.444  -2.141 -31.698  1.00  0.00    -0.360 OA
HETATM   14  H   UNL     1      -1.635  -2.095 -32.237  1.00  0.00     0.217 HD
ENDBRANCH  10  13
ENDBRANCH   1   5
BRANCH   2  15
HETATM   15  C   UNL     1      -3.334   3.112 -31.649  1.00  0.00     0.136 C 
BRANCH  15  16
HETATM   16  C   UNL     1      -4.023   4.423 -32.130  1.00  0.00    -0.004 C 
HETATM   17  C   UNL     1      -5.214   4.097 -33.063  1.00  0.00     0.021 C 
HETATM   18  C   UNL     1      -4.602   5.171 -30.904  1.00  0.00     0.021 C 
BRANCH  16  19
HETATM   19  C   UNL     1      -2.981   5.261 -32.901  1.00  0.00    -0.046 A 
HETATM   20  C   UNL     1      -2.825   6.631 -32.626  1.00  0.00     0.027 A 
HETATM   21  C   UNL     1      -1.891   7.374 -33.336  1.00  0.00     0.116 A 
HETATM   22  N   UNL     1      -1.101   6.863 -34.299  1.00  0.00    -0.273 NA
HETATM   23  C   UNL     1      -1.260   5.552 -34.566  1.00  0.00     0.116 A 
HETATM   24  C   UNL     1      -2.168   4.728 -33.910  1.00  0.00     0.027 A 
ENDBRANCH  16  19
ENDBRANCH  15  16
ENDBRANCH   2  15
TORSDOF 6
ENDMDL
MODEL 4
REMARK VINA RESULT:      -7.8      1.934      7.348
REMARK  6 active torsions:
REMARK  status: ('A' for Active; 'I' for Inactive)
REMARK    1  A    between atoms: C_2  and  C_3 
REMARK    2  A    between atoms: C_5  and  C_6 
REMARK       I    between atoms: C_6  and  N_7 
REMARK    3  A    between atoms: N_7  and  C_8 
REMARK    4  A    between atoms: C_8  and  C_9 
REMARK    5  A    between atoms: C_9  and  C_10 
REMARK    6  A    between atoms: C_19  and  O_20 
ROOT
HETATM    1  C   UNL     1      -6.526   0.273 -33.981  1.00  0.00     0.254 C 
HETATM    2  N   UNL     1      -7.824  -0.071 -34.282  1.00  0.00    -0.356 N 
HETATM    3  O   UNL     1      -6.153   1.441 -33.917  1.00  0.00    -0.268 OA
HETATM    4  H   UNL     1      -8.056  -1.060 -34.250  1.00  0.00     0.162 HD
ENDROOT
BRANCH   1   5
HETATM    5  C   UNL     1      -5.565  -0.847 -33.720  1.00  0.00     0.065 A 
HETATM    6  C   UNL     1      -5.849  -2.081 -34.332  1.00  0.00     0.027 A 
HETATM    7  C   UNL     1      -5.014  -3.194 -34.155  1.00  0.00    -0.057 A 
HETATM    8  C   UNL     1      -3.872  -3.064 -33.361  1.00  0.00     0.010 A 
HETATM    9  C   UNL     1      -3.573  -1.846 -32.745  1.00  0.00     0.038 A 
HETATM   10  C   UNL     1      -4.415  -0.744 -32.924  1.00  0.00     0.081 A 
BRANCH   7  11
HETATM   11  C   UNL     1      -5.329  -4.499 -34.842  1.00  0.00     0.034 C 
HETATM   12  C   UNL     1      -6.743  -4.514 -35.405  1.00  0.00     0.010 C 
ENDBRANCH   7  11
BRANCH  10  13
HETATM   13  O   UNL     1      -4.082   0.437 -32.307  1.00  0.00    -0.360 OA
HETATM   14  H   UNL     1      -3.620   1.004 -32.951  1.00  0.00     0.217 HD
ENDBRANCH  10  13
ENDBRANCH   1   5
BRANCH   2  15
HETATM   15  C   UNL     1      -8.854   0.933 -34.463  1.00  0.00     0.136 C 
BRANCH  15  16
HETATM   16  C   UNL     1      -9.872   1.050 -33.290  1.00  0.00    -0.004 C 
HETATM   17  C   UNL     1      -9.848  -0.231 -32.424  1.00  0.00     0.021 C 
HETATM   18  C   UNL     1      -9.455   2.224 -32.371  1.00  0.00     0.021 C 
BRANCH  16  19
HETATM   19  C   UNL     1     -11.282   1.237 -33.892  1.00  0.00    -0.046 A 
HETATM   20  C   UNL     1     -12.305   0.317 -33.607  1.00  0.00     0.027 A 
HETATM   21  C   UNL     1     -13.565   0.492 -34.164  1.00  0.00     0.116 A 
HETATM   22  N   UNL     1     -13.886   1.511 -34.984  1.00  0.00    -0.273 NA
HETATM   23  C   UNL     1     -12.900   2.386 -35.262  1.00  0.00     0.116 A 
HETATM   24  C   UNL     1     -11.609   2.293 -34.753  1.00  0.00     0.027 A 
ENDBRANCH  16  19
ENDBRANCH  15  16
ENDBRANCH   2  15
TORSDOF 6
ENDMDL
MODEL 5
REMARK VINA RESULT:      -7.8      4.761      7.781
REMARK  6 active torsions:
REMARK  status: ('A' for Active; 'I' for Inactive)
REMARK    1  A    between atoms: C_2  and  C_3 
REMARK    2  A    between atoms: C_5  and  C_6 
REMARK       I    between atoms: C_6  and  N_7 
REMARK    3  A    between atoms: N_7  and  C_8 
REMARK    4  A    between atoms: C_8  and  C_9 
REMARK    5  A    between atoms: C_9  and  C_10 
REMARK    6  A    between atoms: C_19  and  O_20 
ROOT
HETATM    1  C   UNL     1      -4.505   3.757 -33.273  1.00  0.00     0.254 C 
HETATM    2  N   UNL     1      -4.417   2.566 -32.590  1.00  0.00    -0.356 N 
HETATM    3  O   UNL     1      -5.537   4.120 -33.830  1.00  0.00    -0.268 OA
HETATM    4  H   UNL     1      -3.542   2.378 -32.106  1.00  0.00     0.162 HD
ENDROOT
BRANCH   1   5
HETATM    5  C   UNL     1      -3.279   4.618 -33.309  1.00  0.00     0.065 A 
HETATM    6  C   UNL     1      -2.430   4.559 -32.189  1.00  0.00     0.027 A 
HETATM    7  C   UNL     1      -1.256   5.322 -32.121  1.00  0.00    -0.057 A 
HETATM    8  C   UNL     1      -0.923   6.150 -33.198  1.00  0.00     0.010 A 
HETATM    9  C   UNL     1      -1.753   6.221 -34.318  1.00  0.00     0.038 A 
HETATM   10  C   UNL     1      -2.925   5.460 -34.374  1.00  0.00     0.081 A 
BRANCH   7  11
HETATM   11  C   UNL     1      -0.351   5.223 -30.919  1.00  0.00     0.034 C 
HETATM   12  C   UNL     1       0.372   6.533 -30.645  1.00  0.00     0.010 C 
ENDBRANCH   7  11
BRANCH  10  13
HETATM   13  O   UNL     1      -3.710   5.553 -35.497  1.00  0.00    -0.360 OA
HETATM   14  H   UNL     1      -4.643   5.595 -35.219  1.00  0.00     0.217 HD
ENDBRANCH  10  13
ENDBRANCH   1   5
BRANCH   2  15
HETATM   15  C   UNL     1      -5.567   1.701 -32.415  1.00  0.00     0.136 C 
BRANCH  15  16
HETATM   16  C   UNL     1      -5.260   0.319 -31.769  1.00  0.00    -0.004 C 
HETATM   17  C   UNL     1      -3.831   0.304 -31.177  1.00  0.00     0.021 C 
HETATM   18  C   UNL     1      -6.238   0.079 -30.593  1.00  0.00     0.021 C 
BRANCH  16  19
HETATM   19  C   UNL     1      -5.372  -0.762 -32.866  1.00  0.00    -0.046 A 
HETATM   20  C   UNL     1      -6.579  -0.945 -33.563  1.00  0.00     0.027 A 
HETATM   21  C   UNL     1      -6.668  -1.930 -34.539  1.00  0.00     0.116 A 
HETATM   22  N   UNL     1      -5.651  -2.746 -34.875  1.00  0.00    -0.273 NA
HETATM   23  C   UNL     1      -4.500  -2.573 -34.198  1.00  0.00     0.116 A 
HETATM   24  C   UNL     1      -4.316  -1.618 -33.205  1.00  0.00     0.027 A 
ENDBRANCH  16  19
ENDBRANCH  15  16
ENDBRANCH   2  15
TORSDOF 6
ENDMDL
MODEL 6
REMARK VINA RESULT:      -7.8      1.621      2.638
REMARK  6 active torsions:
REMARK  status: ('A' for Active; 'I' for Inactive)
REMARK    1  A    between atoms: C_2  and  C_3 
REMARK    2  A    between atoms: C_5  and  C_6 
REMARK       I    between atoms: C_6  and  N_7 
REMARK    3  A    between atoms: N_7  and  C_8 
REMARK    4  A    between atoms: C_8  and  C_9 
REMARK    5  A    between atoms: C_9  and  C_10 
REMARK    6  A    between atoms: C_19  and  O_20 
ROOT
HETATM    1  C   UNL     1     -10.123   0.086 -33.122  1.00  0.00     0.254 C 
HETATM    2  N   UNL     1      -8.855   0.492 -33.469  1.00  0.00    -0.356 N 
HETATM    3  O   UNL     1     -10.328  -0.893 -32.411  1.00  0.00    -0.268 OA
HETATM    4  H   UNL     1      -8.779   1.350 -34.009  1.00  0.00     0.162 HD
ENDROOT
BRANCH   1   5
HETATM    5  C   UNL     1     -11.268   0.899 -33.645  1.00  0.00     0.065 A 
HETATM    6  C   UNL     1     -10.954   2.154 -34.198  1.00  0.00     0.027 A 
HETATM    7  C   UNL     1     -11.951   2.994 -34.717  1.00  0.00    -0.057 A 
HETATM    8  C   UNL     1     -13.280   2.564 -34.690  1.00  0.00     0.010 A 
HETATM    9  C   UNL     1     -13.611   1.321 -34.145  1.00  0.00     0.038 A 
HETATM   10  C   UNL     1     -12.611   0.493 -33.625  1.00  0.00     0.081 A 
BRANCH   7  11
HETATM   11  C   UNL     1     -11.584   4.323 -35.326  1.00  0.00     0.034 C 
HETATM   12  C   UNL     1     -12.817   5.154 -35.653  1.00  0.00     0.010 C 
ENDBRANCH   7  11
BRANCH  10  13
HETATM   13  O   UNL     1     -12.977  -0.724 -33.105  1.00  0.00    -0.360 OA
HETATM   14  H   UNL     1     -13.569  -1.166 -33.739  1.00  0.00     0.217 HD
ENDBRANCH  10  13
ENDBRANCH   1   5
BRANCH   2  15
HETATM   15  C   UNL     1      -7.675  -0.167 -32.945  1.00  0.00     0.136 C 
BRANCH  15  16
HETATM   16  C   UNL     1      -6.463  -0.222 -33.921  1.00  0.00    -0.004 C 
HETATM   17  C   UNL     1      -6.816   0.466 -35.261  1.00  0.00     0.021 C 
HETATM   18  C   UNL     1      -5.281   0.568 -33.307  1.00  0.00     0.021 C 
BRANCH  16  19
HETATM   19  C   UNL     1      -6.118  -1.704 -34.179  1.00  0.00    -0.046 A 
HETATM   20  C   UNL     1      -4.786  -2.149 -34.103  1.00  0.00     0.027 A 
HETATM   21  C   UNL     1      -4.490  -3.483 -34.349  1.00  0.00     0.116 A 
HETATM   22  N   UNL     1      -5.414  -4.410 -34.666  1.00  0.00    -0.273 NA
HETATM   23  C   UNL     1      -6.687  -3.977 -34.748  1.00  0.00     0.116 A 
HETATM   24  C   UNL     1      -7.080  -2.664 -34.520  1.00  0.00     0.027 A 
ENDBRANCH  16  19
ENDBRANCH  15  16
ENDBRANCH   2  15
TORSDOF 6
ENDMDL
MODEL 7
REMARK VINA RESULT:      -7.6      4.756      8.226
REMARK  6 active torsions:
REMARK  status: ('A' for Active; 'I' for Inactive)
REMARK    1  A    between atoms: C_2  and  C_3 
REMARK    2  A    between atoms: C_5  and  C_6 
REMARK       I    between atoms: C_6  and  N_7 
REMARK    3  A    between atoms: N_7  and  C_8 
REMARK    4  A    between atoms: C_8  and  C_9 
REMARK    5  A    between atoms: C_9  and  C_10 
REMARK    6  A    between atoms: C_19  and  O_20 
ROOT
HETATM    1  C   UNL     1      -3.868   0.605 -32.222  1.00  0.00     0.254 C 
HETATM    2  N   UNL     1      -3.889   1.912 -32.653  1.00  0.00    -0.356 N 
HETATM    3  O   UNL     1      -3.316   0.266 -31.179  1.00  0.00    -0.268 OA
HETATM    4  H   UNL     1      -4.423   2.109 -33.495  1.00  0.00     0.162 HD
ENDROOT
BRANCH   1   5
HETATM    5  C   UNL     1      -4.560  -0.409 -33.081  1.00  0.00     0.065 A 
HETATM    6  C   UNL     1      -3.967  -1.682 -33.161  1.00  0.00     0.027 A 
HETATM    7  C   UNL     1      -4.534  -2.705 -33.936  1.00  0.00    -0.057 A 
HETATM    8  C   UNL     1      -5.719  -2.449 -34.632  1.00  0.00     0.010 A 
HETATM    9  C   UNL     1      -6.322  -1.192 -34.565  1.00  0.00     0.038 A 
HETATM   10  C   UNL     1      -5.746  -0.177 -33.794  1.00  0.00     0.081 A 
BRANCH   7  11
HETATM   11  C   UNL     1      -3.891  -4.068 -33.985  1.00  0.00     0.034 C 
HETATM   12  C   UNL     1      -4.883  -5.146 -34.395  1.00  0.00     0.010 C 
ENDBRANCH   7  11
BRANCH  10  13
HETATM   13  O   UNL     1      -6.374   1.043 -33.748  1.00  0.00    -0.360 OA
HETATM   14  H   UNL     1      -6.759   1.226 -34.624  1.00  0.00     0.217 HD
ENDBRANCH  10  13
ENDBRANCH   1   5
BRANCH   2  15
HETATM   15  C   UNL     1      -3.329   2.985 -31.855  1.00  0.00     0.136 C 
BRANCH  15  16
HETATM   16  C   UNL     1      -3.946   4.390 -32.116  1.00  0.00    -0.004 C 
HETATM   17  C   UNL     1      -5.236   4.266 -32.961  1.00  0.00     0.021 C 
HETATM   18  C   UNL     1      -4.352   5.026 -30.764  1.00  0.00     0.021 C 
BRANCH  16  19
HETATM   19  C   UNL     1      -2.909   5.238 -32.884  1.00  0.00    -0.046 A 
HETATM   20  C   UNL     1      -2.671   6.574 -32.518  1.00  0.00     0.027 A 
HETATM   21  C   UNL     1      -1.743   7.328 -33.225  1.00  0.00     0.116 A 
HETATM   22  N   UNL     1      -1.034   6.856 -34.269  1.00  0.00    -0.273 NA
HETATM   23  C   UNL     1      -1.272   5.578 -34.622  1.00  0.00     0.116 A 
HETATM   24  C   UNL     1      -2.181   4.748 -33.976  1.00  0.00     0.027 A 
ENDBRANCH  16  19
ENDBRANCH  15  16
ENDBRANCH   2  15
TORSDOF 6
ENDMDL
MODEL 8
REMARK VINA RESULT:      -7.6      3.964      6.878
REMARK  6 active torsions:
REMARK  status: ('A' for Active; 'I' for Inactive)
REMARK    1  A    between atoms: C_2  and  C_3 
REMARK    2  A    between atoms: C_5  and  C_6 
REMARK       I    between atoms: C_6  and  N_7 
REMARK    3  A    between atoms: N_7  and  C_8 
REMARK    4  A    between atoms: C_8  and  C_9 
REMARK    5  A    between atoms: C_9  and  C_10 
REMARK    6  A    between atoms: C_19  and  O_20 
ROOT
HETATM    1  C   UNL     1      -4.926   2.665 -32.366  1.00  0.00     0.254 C 
HETATM    2  N   UNL     1      -5.193   1.614 -33.212  1.00  0.00    -0.356 N 
HETATM    3  O   UNL     1      -5.339   2.700 -31.210  1.00  0.00    -0.268 OA
HETATM    4  H   UNL     1      -4.757   1.642 -34.130  1.00  0.00     0.162 HD
ENDROOT
BRANCH   1   5
HETATM    5  C   UNL     1      -4.092   3.786 -32.909  1.00  0.00     0.065 A 
HETATM    6  C   UNL     1      -2.853   4.015 -32.283  1.00  0.00     0.027 A 
HETATM    7  C   UNL     1      -1.995   5.038 -32.713  1.00  0.00    -0.057 A 
HETATM    8  C   UNL     1      -2.381   5.836 -33.794  1.00  0.00     0.010 A 
HETATM    9  C   UNL     1      -3.607   5.623 -34.428  1.00  0.00     0.038 A 
HETATM   10  C   UNL     1      -4.459   4.604 -33.988  1.00  0.00     0.081 A 
BRANCH   7  11
HETATM   11  C   UNL     1      -0.662   5.247 -32.040  1.00  0.00     0.034 C 
HETATM   12  C   UNL     1      -0.323   6.724 -31.904  1.00  0.00     0.010 C 
ENDBRANCH   7  11
BRANCH  10  13
HETATM   13  O   UNL     1      -5.652   4.423 -34.643  1.00  0.00    -0.360 OA
HETATM   14  H   UNL     1      -6.327   4.165 -33.990  1.00  0.00     0.217 HD
ENDBRANCH  10  13
ENDBRANCH   1   5
BRANCH   2  15
HETATM   15  C   UNL     1      -5.912   0.439 -32.762  1.00  0.00     0.136 C 
BRANCH  15  16
HETATM   16  C   UNL     1      -6.785  -0.255 -33.848  1.00  0.00    -0.004 C 
HETATM   17  C   UNL     1      -8.243  -0.407 -33.355  1.00  0.00     0.021 C 
HETATM   18  C   UNL     1      -6.827   0.637 -35.113  1.00  0.00     0.021 C 
BRANCH  16  19
HETATM   19  C   UNL     1      -6.189  -1.652 -34.127  1.00  0.00    -0.046 A 
HETATM   20  C   UNL     1      -7.013  -2.702 -34.567  1.00  0.00     0.027 A 
HETATM   21  C   UNL     1      -6.465  -3.957 -34.802  1.00  0.00     0.116 A 
HETATM   22  N   UNL     1      -5.161  -4.248 -34.633  1.00  0.00    -0.273 NA
HETATM   23  C   UNL     1      -4.377  -3.241 -34.201  1.00  0.00     0.116 A 
HETATM   24  C   UNL     1      -4.834  -1.955 -33.938  1.00  0.00     0.027 A 
ENDBRANCH  16  19
ENDBRANCH  15  16
ENDBRANCH   2  15
TORSDOF 6
ENDMDL
MODEL 9
REMARK VINA RESULT:      -7.4      4.469      7.608
REMARK  6 active torsions:
REMARK  status: ('A' for Active; 'I' for Inactive)
REMARK    1  A    between atoms: C_2  and  C_3 
REMARK    2  A    between atoms: C_5  and  C_6 
REMARK       I    between atoms: C_6  and  N_7 
REMARK    3  A    between atoms: N_7  and  C_8 
REMARK    4  A    between atoms: C_8  and  C_9 
REMARK    5  A    between atoms: C_9  and  C_10 
REMARK    6  A    between atoms: C_19  and  O_20 
ROOT
HETATM    1  C   UNL     1      -6.233   0.570 -32.520  1.00  0.00     0.254 C 
HETATM    2  N   UNL     1      -5.612   1.786 -32.689  1.00  0.00    -0.356 N 
HETATM    3  O   UNL     1      -7.406   0.474 -32.173  1.00  0.00    -0.268 OA
HETATM    4  H   UNL     1      -4.657   1.770 -33.039  1.00  0.00     0.162 HD
ENDROOT
BRANCH   1   5
HETATM    5  C   UNL     1      -5.415  -0.658 -32.785  1.00  0.00     0.065 A 
HETATM    6  C   UNL     1      -5.824  -1.472 -33.857  1.00  0.00     0.027 A 
HETATM    7  C   UNL     1      -5.129  -2.643 -34.191  1.00  0.00    -0.057 A 
HETATM    8  C   UNL     1      -4.001  -2.998 -33.445  1.00  0.00     0.010 A 
HETATM    9  C   UNL     1      -3.581  -2.202 -32.377  1.00  0.00     0.038 A 
HETATM   10  C   UNL     1      -4.284  -1.038 -32.048  1.00  0.00     0.081 A 
BRANCH   7  11
HETATM   11  C   UNL     1      -5.574  -3.485 -35.360  1.00  0.00     0.034 C 
HETATM   12  C   UNL     1      -6.654  -4.481 -34.961  1.00  0.00     0.010 C 
ENDBRANCH   7  11
BRANCH  10  13
HETATM   13  O   UNL     1      -3.833  -0.280 -30.996  1.00  0.00    -0.360 OA
HETATM   14  H   UNL     1      -2.941  -0.586 -30.753  1.00  0.00     0.217 HD
ENDBRANCH  10  13
ENDBRANCH   1   5
BRANCH   2  15
HETATM   15  C   UNL     1      -6.334   3.035 -32.548  1.00  0.00     0.136 C 
BRANCH  15  16
HETATM   16  C   UNL     1      -5.487   4.229 -32.017  1.00  0.00    -0.004 C 
HETATM   17  C   UNL     1      -6.379   5.476 -31.811  1.00  0.00     0.021 C 
HETATM   18  C   UNL     1      -4.900   3.860 -30.633  1.00  0.00     0.021 C 
BRANCH  16  19
HETATM   19  C   UNL     1      -4.394   4.547 -33.061  1.00  0.00    -0.046 A 
HETATM   20  C   UNL     1      -3.034   4.420 -32.729  1.00  0.00     0.027 A 
HETATM   21  C   UNL     1      -2.063   4.720 -33.674  1.00  0.00     0.116 A 
HETATM   22  N   UNL     1      -2.337   5.138 -34.925  1.00  0.00    -0.273 NA
HETATM   23  C   UNL     1      -3.642   5.268 -35.236  1.00  0.00     0.116 A 
HETATM   24  C   UNL     1      -4.684   4.992 -34.358  1.00  0.00     0.027 A 
ENDBRANCH  16  19
ENDBRANCH  15  16
ENDBRANCH   2  15
TORSDOF 6
ENDMDL
MODEL 10
REMARK VINA RESULT:      -7.4      2.332      3.542
REMARK  6 active torsions:
REMARK  status: ('A' for Active; 'I' for Inactive)
REMARK    1  A    between atoms: C_2  and  C_3 
REMARK    2  A    between atoms: C_5  and  C_6 
REMARK       I    between atoms: C_6  and  N_7 
REMARK    3  A    between atoms: N_7  and  C_8 
REMARK    4  A    between atoms: C_8  and  C_9 
REMARK    5  A    between atoms: C_9  and  C_10 
REMARK    6  A    between atoms: C_19  and  O_20 
ROOT
HETATM    1  C   UNL     1     -10.219   0.144 -33.074  1.00  0.00     0.254 C 
HETATM    2  N   UNL     1      -8.963   0.695 -33.182  1.00  0.00    -0.356 N 
HETATM    3  O   UNL     1     -10.421  -0.925 -32.505  1.00  0.00    -0.268 OA
HETATM    4  H   UNL     1      -8.900   1.613 -33.614  1.00  0.00     0.162 HD
ENDROOT
BRANCH   1   5
HETATM    5  C   UNL     1     -11.356   0.910 -33.679  1.00  0.00     0.065 A 
HETATM    6  C   UNL     1     -11.039   2.136 -34.293  1.00  0.00     0.027 A 
HETATM    7  C   UNL     1     -12.027   2.931 -34.891  1.00  0.00    -0.057 A 
HETATM    8  C   UNL     1     -13.352   2.485 -34.882  1.00  0.00     0.010 A 
HETATM    9  C   UNL     1     -13.686   1.271 -34.277  1.00  0.00     0.038 A 
HETATM   10  C   UNL     1     -12.694   0.488 -33.679  1.00  0.00     0.081 A 
BRANCH   7  11
HETATM   11  C   UNL     1     -11.657   4.228 -35.564  1.00  0.00     0.034 C 
HETATM   12  C   UNL     1     -12.832   5.194 -35.615  1.00  0.00     0.010 C 
ENDBRANCH   7  11
BRANCH  10  13
HETATM   13  O   UNL     1     -13.062  -0.702 -33.101  1.00  0.00    -0.360 OA
HETATM   14  H   UNL     1     -12.592  -1.425 -33.553  1.00  0.00     0.217 HD
ENDBRANCH  10  13
ENDBRANCH   1   5
BRANCH   2  15
HETATM   15  C   UNL     1      -7.807   0.084 -32.555  1.00  0.00     0.136 C 
BRANCH  15  16
HETATM   16  C   UNL     1      -6.704  -0.403 -33.539  1.00  0.00    -0.004 C 
HETATM   17  C   UNL     1      -7.007  -1.842 -34.021  1.00  0.00     0.021 C 
HETATM   18  C   UNL     1      -6.707   0.503 -34.794  1.00  0.00     0.021 C 
BRANCH  16  19
HETATM   19  C   UNL     1      -5.351  -0.384 -32.795  1.00  0.00    -0.046 A 
HETATM   20  C   UNL     1      -5.271   0.094 -31.476  1.00  0.00     0.027 A 
HETATM   21  C   UNL     1      -4.045   0.116 -30.824  1.00  0.00     0.116 A 
HETATM   22  N   UNL     1      -2.892  -0.301 -31.382  1.00  0.00    -0.273 NA
HETATM   23  C   UNL     1      -2.972  -0.750 -32.650  1.00  0.00     0.116 A 
HETATM   24  C   UNL     1      -4.152  -0.808 -33.383  1.00  0.00     0.027 A 
ENDBRANCH  16  19
ENDBRANCH  15  16
ENDBRANCH   2  15
TORSDOF 6
ENDMDL
