MODEL 1
REMARK VINA RESULT:      -9.6      0.000      0.000
REMARK  7 active torsions:
REMARK  status: ('A' for Active; 'I' for Inactive)
REMARK    1  A    between atoms: C_10  and  C_11 
REMARK    2  A    between atoms: C_11  and  C_12 
REMARK       I    between atoms: C_12  and  N_13 
REMARK    3  A    between atoms: N_13  and  N_14 
REMARK       I    between atoms: N_14  and  C_15 
REMARK    4  A    between atoms: C_15  and  C_16 
REMARK    5  A    between atoms: C_16  and  C_17 
REMARK    6  A    between atoms: C_17  and  C_18 
REMARK       I    between atoms: C_18  and  N_19 
REMARK    7  A    between atoms: N_19  and  C_20 
ROOT
HETATM    1  C   UNL     1      -0.076   6.789 -28.950  1.00  0.00     0.034 A 
HETATM    2  C   UNL     1      -0.295   6.256 -27.678  1.00  0.00     0.031 A 
HETATM    3  C   UNL     1       0.388   6.765 -26.566  1.00  0.00     0.025 A 
HETATM    4  C   UNL     1       1.294   7.817 -26.716  1.00  0.00     0.044 A 
HETATM    5  C   UNL     1       1.989   8.340 -25.577  1.00  0.00     0.099 C 
HETATM    6  N   UNL     1       2.555   8.767 -24.658  1.00  0.00    -0.191 NA
HETATM    7  C   UNL     1       1.517   8.355 -27.985  1.00  0.00     0.025 A 
HETATM    8  C   UNL     1       0.839   7.841 -29.096  1.00  0.00     0.031 A 
ENDROOT
BRANCH   1   9
HETATM    9  N   UNL     1      -0.716   6.330 -30.118  1.00  0.00    -0.327 N 
HETATM   10  C   UNL     1      -0.260   5.378 -31.008  1.00  0.00     0.222 C 
HETATM   11  O   UNL     1       0.780   4.734 -30.923  1.00  0.00    -0.273 OA
HETATM   12  H   UNL     1      -1.638   6.727 -30.309  1.00  0.00     0.169 HD
BRANCH  10  13
HETATM   13  C   UNL     1      -1.211   5.145 -32.168  1.00  0.00     0.112 C 
BRANCH  13  14
HETATM   14  C   UNL     1      -2.539   5.863 -31.964  1.00  0.00     0.114 C 
BRANCH  14  15
HETATM   15  C   UNL     1      -3.689   4.890 -31.813  1.00  0.00     0.236 C 
HETATM   16  N   UNL     1      -3.599   4.109 -30.684  1.00  0.00    -0.268 N 
HETATM   17  H   UNL     1      -2.799   4.120 -30.051  1.00  0.00     0.190 HD
HETATM   18  O   UNL     1      -4.632   4.832 -32.603  1.00  0.00    -0.272 OA
BRANCH  16  19
HETATM   19  N   UNL     1      -4.490   3.043 -30.525  1.00  0.00    -0.267 N 
HETATM   20  C   UNL     1      -4.047   1.781 -30.874  1.00  0.00     0.240 C 
HETATM   21  O   UNL     1      -2.934   1.594 -31.367  1.00  0.00    -0.272 OA
HETATM   22  H   UNL     1      -5.300   3.193 -29.924  1.00  0.00     0.190 HD
BRANCH  20  23
HETATM   23  C   UNL     1      -5.060   0.683 -30.663  1.00  0.00     0.146 C 
BRANCH  23  24
HETATM   24  C   UNL     1      -5.865   0.263 -31.858  1.00  0.00    -0.015 A 
HETATM   25  C   UNL     1      -5.670  -0.823 -32.785  1.00  0.00    -0.000 A 
HETATM   26  C   UNL     1      -4.704  -1.843 -32.955  1.00  0.00     0.021 A 
HETATM   27  C   UNL     1      -6.732  -0.791 -33.690  1.00  0.00     0.043 A 
HETATM   28  C   UNL     1      -4.828  -2.784 -33.995  1.00  0.00    -0.061 A 
HETATM   29  C   UNL     1      -3.818  -3.886 -34.136  1.00  0.00     0.048 C 
HETATM   30  C   UNL     1      -5.922  -2.720 -34.858  1.00  0.00     0.009 A 
HETATM   31  C   UNL     1      -6.885  -1.718 -34.729  1.00  0.00     0.031 A 
HETATM   32  N   UNL     1      -7.524   0.277 -33.356  1.00  0.00    -0.359 N 
HETATM   33  H   UNL     1      -8.361   0.541 -33.859  1.00  0.00     0.166 HD
HETATM   34  C   UNL     1      -7.026   0.919 -32.256  1.00  0.00     0.013 A 
HETATM   35  C   UNL     1      -7.708   2.112 -31.685  1.00  0.00     0.068 C 
ENDBRANCH  23  24
ENDBRANCH  20  23
ENDBRANCH  16  19
ENDBRANCH  14  15
ENDBRANCH  13  14
ENDBRANCH  10  13
ENDBRANCH   1   9
TORSDOF 7
ENDMDL
MODEL 2
REMARK VINA RESULT:      -9.5      1.095      2.375
REMARK  7 active torsions:
REMARK  status: ('A' for Active; 'I' for Inactive)
REMARK    1  A    between atoms: C_10  and  C_11 
REMARK    2  A    between atoms: C_11  and  C_12 
REMARK       I    between atoms: C_12  and  N_13 
REMARK    3  A    between atoms: N_13  and  N_14 
REMARK       I    between atoms: N_14  and  C_15 
REMARK    4  A    between atoms: C_15  and  C_16 
REMARK    5  A    between atoms: C_16  and  C_17 
REMARK    6  A    between atoms: C_17  and  C_18 
REMARK       I    between atoms: C_18  and  N_19 
REMARK    7  A    between atoms: N_19  and  C_20 
ROOT
HETATM    1  C   UNL     1      -0.033   6.770 -28.879  1.00  0.00     0.034 A 
HETATM    2  C   UNL     1      -0.262   6.244 -27.606  1.00  0.00     0.031 A 
HETATM    3  C   UNL     1       0.405   6.764 -26.490  1.00  0.00     0.025 A 
HETATM    4  C   UNL     1       1.307   7.821 -26.637  1.00  0.00     0.044 A 
HETATM    5  C   UNL     1       1.986   8.356 -25.495  1.00  0.00     0.099 C 
HETATM    6  N   UNL     1       2.539   8.792 -24.572  1.00  0.00    -0.191 NA
HETATM    7  C   UNL     1       1.540   8.352 -27.908  1.00  0.00     0.025 A 
HETATM    8  C   UNL     1       0.876   7.826 -29.022  1.00  0.00     0.031 A 
ENDROOT
BRANCH   1   9
HETATM    9  N   UNL     1      -0.658   6.299 -30.051  1.00  0.00    -0.327 N 
HETATM   10  C   UNL     1      -0.150   5.407 -30.975  1.00  0.00     0.222 C 
HETATM   11  O   UNL     1       0.935   4.838 -30.924  1.00  0.00    -0.273 OA
HETATM   12  H   UNL     1      -1.609   6.634 -30.217  1.00  0.00     0.169 HD
BRANCH  10  13
HETATM   13  C   UNL     1      -1.100   5.139 -32.128  1.00  0.00     0.112 C 
BRANCH  13  14
HETATM   14  C   UNL     1      -2.454   5.803 -31.909  1.00  0.00     0.114 C 
BRANCH  14  15
HETATM   15  C   UNL     1      -3.576   4.787 -31.842  1.00  0.00     0.236 C 
HETATM   16  N   UNL     1      -3.500   3.962 -30.744  1.00  0.00    -0.268 N 
HETATM   17  H   UNL     1      -2.723   3.972 -30.081  1.00  0.00     0.190 HD
HETATM   18  O   UNL     1      -4.486   4.732 -32.668  1.00  0.00    -0.272 OA
BRANCH  16  19
HETATM   19  N   UNL     1      -4.359   2.862 -30.662  1.00  0.00    -0.267 N 
HETATM   20  C   UNL     1      -3.814   1.608 -30.869  1.00  0.00     0.240 C 
HETATM   21  O   UNL     1      -2.632   1.453 -31.177  1.00  0.00    -0.272 OA
HETATM   22  H   UNL     1      -5.257   3.001 -30.199  1.00  0.00     0.190 HD
BRANCH  20  23
HETATM   23  C   UNL     1      -4.801   0.473 -30.752  1.00  0.00     0.146 C 
BRANCH  23  24
HETATM   24  C   UNL     1      -5.147  -0.259 -32.016  1.00  0.00    -0.015 A 
HETATM   25  C   UNL     1      -6.205  -0.037 -32.968  1.00  0.00    -0.000 A 
HETATM   26  C   UNL     1      -7.285   0.870 -33.083  1.00  0.00     0.021 A 
HETATM   27  C   UNL     1      -6.050  -0.979 -33.987  1.00  0.00     0.043 A 
HETATM   28  C   UNL     1      -8.153   0.817 -34.191  1.00  0.00    -0.061 A 
HETATM   29  C   UNL     1      -9.267   1.815 -34.320  1.00  0.00     0.048 C 
HETATM   30  C   UNL     1      -7.939  -0.130 -35.192  1.00  0.00     0.009 A 
HETATM   31  C   UNL     1      -6.893  -1.050 -35.103  1.00  0.00     0.031 A 
HETATM   32  N   UNL     1      -4.970  -1.759 -33.664  1.00  0.00    -0.359 N 
HETATM   33  H   UNL     1      -4.641  -2.532 -34.226  1.00  0.00     0.166 HD
HETATM   34  C   UNL     1      -4.409  -1.341 -32.488  1.00  0.00     0.013 A 
HETATM   35  C   UNL     1      -3.214  -2.020 -31.919  1.00  0.00     0.068 C 
ENDBRANCH  23  24
ENDBRANCH  20  23
ENDBRANCH  16  19
ENDBRANCH  14  15
ENDBRANCH  13  14
ENDBRANCH  10  13
ENDBRANCH   1   9
TORSDOF 7
ENDMDL
MODEL 3
REMARK VINA RESULT:      -9.3      1.577      1.933
REMARK  7 active torsions:
REMARK  status: ('A' for Active; 'I' for Inactive)
REMARK    1  A    between atoms: C_10  and  C_11 
REMARK    2  A    between atoms: C_11  and  C_12 
REMARK       I    between atoms: C_12  and  N_13 
REMARK    3  A    between atoms: N_13  and  N_14 
REMARK       I    between atoms: N_14  and  C_15 
REMARK    4  A    between atoms: C_15  and  C_16 
REMARK    5  A    between atoms: C_16  and  C_17 
REMARK    6  A    between atoms: C_17  and  C_18 
REMARK       I    between atoms: C_18  and  N_19 
REMARK    7  A    between atoms: N_19  and  C_20 
ROOT
HETATM    1  C   UNL     1      -0.843   6.936 -30.598  1.00  0.00     0.034 A 
HETATM    2  C   UNL     1       0.474   7.077 -30.158  1.00  0.00     0.031 A 
HETATM    3  C   UNL     1       0.748   7.559 -28.872  1.00  0.00     0.025 A 
HETATM    4  C   UNL     1      -0.298   7.902 -28.011  1.00  0.00     0.044 A 
HETATM    5  C   UNL     1      -0.017   8.392 -26.694  1.00  0.00     0.099 C 
HETATM    6  N   UNL     1       0.204   8.790 -25.626  1.00  0.00    -0.191 NA
HETATM    7  C   UNL     1      -1.618   7.764 -28.445  1.00  0.00     0.025 A 
HETATM    8  C   UNL     1      -1.888   7.287 -29.733  1.00  0.00     0.031 A 
ENDROOT
BRANCH   1   9
HETATM    9  N   UNL     1      -1.201   6.466 -31.877  1.00  0.00    -0.327 N 
HETATM   10  C   UNL     1      -1.634   7.210 -32.957  1.00  0.00     0.222 C 
HETATM   11  O   UNL     1      -1.755   8.430 -33.005  1.00  0.00    -0.273 OA
HETATM   12  H   UNL     1      -1.099   5.460 -32.029  1.00  0.00     0.169 HD
BRANCH  10  13
HETATM   13  C   UNL     1      -1.946   6.363 -34.176  1.00  0.00     0.112 C 
BRANCH  13  14
HETATM   14  C   UNL     1      -1.833   4.873 -33.874  1.00  0.00     0.114 C 
BRANCH  14  15
HETATM   15  C   UNL     1      -3.117   4.316 -33.296  1.00  0.00     0.236 C 
HETATM   16  N   UNL     1      -2.944   3.127 -32.627  1.00  0.00    -0.268 N 
HETATM   17  H   UNL     1      -2.057   2.621 -32.592  1.00  0.00     0.190 HD
HETATM   18  O   UNL     1      -4.201   4.893 -33.381  1.00  0.00    -0.272 OA
BRANCH  16  19
HETATM   19  N   UNL     1      -4.072   2.412 -32.212  1.00  0.00    -0.267 N 
HETATM   20  C   UNL     1      -3.868   1.302 -31.414  1.00  0.00     0.240 C 
HETATM   21  O   UNL     1      -2.739   0.906 -31.122  1.00  0.00    -0.272 OA
HETATM   22  H   UNL     1      -4.976   2.879 -32.283  1.00  0.00     0.190 HD
BRANCH  20  23
HETATM   23  C   UNL     1      -5.134   0.592 -30.999  1.00  0.00     0.146 C 
BRANCH  23  24
HETATM   24  C   UNL     1      -5.950  -0.036 -32.091  1.00  0.00    -0.015 A 
HETATM   25  C   UNL     1      -5.687  -1.189 -32.912  1.00  0.00    -0.000 A 
HETATM   26  C   UNL     1      -4.626  -2.117 -33.040  1.00  0.00     0.021 A 
HETATM   27  C   UNL     1      -6.792  -1.364 -33.747  1.00  0.00     0.043 A 
HETATM   28  C   UNL     1      -4.702  -3.173 -33.968  1.00  0.00    -0.061 A 
HETATM   29  C   UNL     1      -3.588  -4.174 -34.059  1.00  0.00     0.048 C 
HETATM   30  C   UNL     1      -5.840  -3.315 -34.761  1.00  0.00     0.009 A 
HETATM   31  C   UNL     1      -6.899  -2.409 -34.673  1.00  0.00     0.031 A 
HETATM   32  N   UNL     1      -7.678  -0.354 -33.473  1.00  0.00    -0.359 N 
HETATM   33  H   UNL     1      -8.563  -0.233 -33.946  1.00  0.00     0.166 HD
HETATM   34  C   UNL     1      -7.195   0.452 -32.479  1.00  0.00     0.013 A 
HETATM   35  C   UNL     1      -7.971   1.623 -31.990  1.00  0.00     0.068 C 
ENDBRANCH  23  24
ENDBRANCH  20  23
ENDBRANCH  16  19
ENDBRANCH  14  15
ENDBRANCH  13  14
ENDBRANCH  10  13
ENDBRANCH   1   9
TORSDOF 7
ENDMDL
MODEL 4
REMARK VINA RESULT:      -8.8      2.247     10.700
REMARK  7 active torsions:
REMARK  status: ('A' for Active; 'I' for Inactive)
REMARK    1  A    between atoms: C_10  and  C_11 
REMARK    2  A    between atoms: C_11  and  C_12 
REMARK       I    between atoms: C_12  and  N_13 
REMARK    3  A    between atoms: N_13  and  N_14 
REMARK       I    between atoms: N_14  and  C_15 
REMARK    4  A    between atoms: C_15  and  C_16 
REMARK    5  A    between atoms: C_16  and  C_17 
REMARK    6  A    between atoms: C_17  and  C_18 
REMARK       I    between atoms: C_18  and  N_19 
REMARK    7  A    between atoms: N_19  and  C_20 
ROOT
HETATM    1  C   UNL     1      -5.815  -0.054 -33.811  1.00  0.00     0.034 A 
HETATM    2  C   UNL     1      -6.889  -0.685 -34.442  1.00  0.00     0.031 A 
HETATM    3  C   UNL     1      -6.828  -2.048 -34.759  1.00  0.00     0.025 A 
HETATM    4  C   UNL     1      -5.690  -2.794 -34.445  1.00  0.00     0.044 A 
HETATM    5  C   UNL     1      -5.629  -4.189 -34.767  1.00  0.00     0.099 C 
HETATM    6  N   UNL     1      -5.575  -5.319 -35.026  1.00  0.00    -0.191 NA
HETATM    7  C   UNL     1      -4.611  -2.169 -33.814  1.00  0.00     0.025 A 
HETATM    8  C   UNL     1      -4.673  -0.806 -33.504  1.00  0.00     0.031 A 
ENDROOT
BRANCH   1   9
HETATM    9  N   UNL     1      -5.796   1.311 -33.465  1.00  0.00    -0.327 N 
HETATM   10  C   UNL     1      -6.661   1.977 -32.619  1.00  0.00     0.222 C 
HETATM   11  O   UNL     1      -7.592   1.487 -31.989  1.00  0.00    -0.273 OA
HETATM   12  H   UNL     1      -5.033   1.864 -33.863  1.00  0.00     0.169 HD
BRANCH  10  13
HETATM   13  C   UNL     1      -6.346   3.457 -32.491  1.00  0.00     0.112 C 
BRANCH  13  14
HETATM   14  C   UNL     1      -5.029   3.815 -33.169  1.00  0.00     0.114 C 
BRANCH  14  15
HETATM   15  C   UNL     1      -4.058   4.465 -32.206  1.00  0.00     0.236 C 
HETATM   16  N   UNL     1      -3.699   5.742 -32.572  1.00  0.00    -0.268 N 
HETATM   17  H   UNL     1      -3.988   6.182 -33.447  1.00  0.00     0.190 HD
HETATM   18  O   UNL     1      -3.662   3.919 -31.177  1.00  0.00    -0.272 OA
BRANCH  16  19
HETATM   19  N   UNL     1      -2.667   6.380 -31.877  1.00  0.00    -0.267 N 
HETATM   20  C   UNL     1      -1.411   6.381 -32.456  1.00  0.00     0.240 C 
HETATM   21  O   UNL     1      -1.179   5.792 -33.512  1.00  0.00    -0.272 OA
HETATM   22  H   UNL     1      -2.931   7.031 -31.137  1.00  0.00     0.190 HD
BRANCH  20  23
HETATM   23  C   UNL     1      -0.355   7.099 -31.653  1.00  0.00     0.146 C 
BRANCH  23  24
HETATM   24  C   UNL     1      -0.116   6.610 -30.254  1.00  0.00    -0.015 A 
HETATM   25  C   UNL     1      -0.563   7.133 -28.988  1.00  0.00    -0.000 A 
HETATM   26  C   UNL     1      -1.326   8.249 -28.571  1.00  0.00     0.021 A 
HETATM   27  C   UNL     1      -0.092   6.273 -27.995  1.00  0.00     0.043 A 
HETATM   28  C   UNL     1      -1.598   8.464 -27.206  1.00  0.00    -0.061 A 
HETATM   29  C   UNL     1      -2.446   9.628 -26.783  1.00  0.00     0.048 C 
HETATM   30  C   UNL     1      -1.123   7.560 -26.256  1.00  0.00     0.009 A 
HETATM   31  C   UNL     1      -0.353   6.457 -26.631  1.00  0.00     0.031 A 
HETATM   32  N   UNL     1       0.632   5.287 -28.614  1.00  0.00    -0.359 N 
HETATM   33  H   UNL     1       1.098   4.535 -28.126  1.00  0.00     0.166 HD
HETATM   34  C   UNL     1       0.625   5.466 -29.970  1.00  0.00     0.013 A 
HETATM   35  C   UNL     1       1.336   4.524 -30.876  1.00  0.00     0.068 C 
ENDBRANCH  23  24
ENDBRANCH  20  23
ENDBRANCH  16  19
ENDBRANCH  14  15
ENDBRANCH  13  14
ENDBRANCH  10  13
ENDBRANCH   1   9
TORSDOF 7
ENDMDL
MODEL 5
REMARK VINA RESULT:      -8.8      2.409     10.937
REMARK  7 active torsions:
REMARK  status: ('A' for Active; 'I' for Inactive)
REMARK    1  A    between atoms: C_10  and  C_11 
REMARK    2  A    between atoms: C_11  and  C_12 
REMARK       I    between atoms: C_12  and  N_13 
REMARK    3  A    between atoms: N_13  and  N_14 
REMARK       I    between atoms: N_14  and  C_15 
REMARK    4  A    between atoms: C_15  and  C_16 
REMARK    5  A    between atoms: C_16  and  C_17 
REMARK    6  A    between atoms: C_17  and  C_18 
REMARK       I    between atoms: C_18  and  N_19 
REMARK    7  A    between atoms: N_19  and  C_20 
ROOT
HETATM    1  C   UNL     1      -5.228  -0.216 -33.332  1.00  0.00     0.034 A 
HETATM    2  C   UNL     1      -6.511  -0.480 -33.815  1.00  0.00     0.031 A 
HETATM    3  C   UNL     1      -6.815  -1.723 -34.386  1.00  0.00     0.025 A 
HETATM    4  C   UNL     1      -5.837  -2.716 -34.476  1.00  0.00     0.044 A 
HETATM    5  C   UNL     1      -6.149  -3.988 -35.057  1.00  0.00     0.099 C 
HETATM    6  N   UNL     1      -6.397  -5.019 -35.527  1.00  0.00    -0.191 NA
HETATM    7  C   UNL     1      -4.551  -2.457 -33.995  1.00  0.00     0.025 A 
HETATM    8  C   UNL     1      -4.249  -1.213 -33.430  1.00  0.00     0.031 A 
ENDROOT
BRANCH   1   9
HETATM    9  N   UNL     1      -4.841   1.008 -32.751  1.00  0.00    -0.327 N 
HETATM   10  C   UNL     1      -4.652   1.280 -31.410  1.00  0.00     0.222 C 
HETATM   11  O   UNL     1      -4.759   0.488 -30.479  1.00  0.00    -0.273 OA
HETATM   12  H   UNL     1      -4.649   1.772 -33.402  1.00  0.00     0.169 HD
BRANCH  10  13
HETATM   13  C   UNL     1      -4.249   2.719 -31.147  1.00  0.00     0.112 C 
BRANCH  13  14
HETATM   14  C   UNL     1      -3.044   3.131 -31.985  1.00  0.00     0.114 C 
BRANCH  14  15
HETATM   15  C   UNL     1      -2.634   4.564 -31.716  1.00  0.00     0.236 C 
HETATM   16  N   UNL     1      -1.618   4.677 -30.796  1.00  0.00    -0.268 N 
HETATM   17  H   UNL     1      -1.232   3.886 -30.279  1.00  0.00     0.190 HD
HETATM   18  O   UNL     1      -3.134   5.528 -32.295  1.00  0.00    -0.272 OA
BRANCH  16  19
HETATM   19  N   UNL     1      -1.277   5.946 -30.316  1.00  0.00    -0.267 N 
HETATM   20  C   UNL     1      -0.114   6.059 -29.577  1.00  0.00     0.240 C 
HETATM   21  O   UNL     1       0.573   5.079 -29.288  1.00  0.00    -0.272 OA
HETATM   22  H   UNL     1      -1.733   6.750 -30.748  1.00  0.00     0.190 HD
BRANCH  20  23
HETATM   23  C   UNL     1       0.191   7.460 -29.106  1.00  0.00     0.146 C 
BRANCH  23  24
HETATM   24  C   UNL     1      -0.311   7.844 -27.745  1.00  0.00    -0.015 A 
HETATM   25  C   UNL     1      -1.640   7.804 -27.190  1.00  0.00    -0.000 A 
HETATM   26  C   UNL     1      -2.922   7.443 -27.668  1.00  0.00     0.021 A 
HETATM   27  C   UNL     1      -1.550   8.234 -25.866  1.00  0.00     0.043 A 
HETATM   28  C   UNL     1      -4.048   7.511 -26.826  1.00  0.00    -0.061 A 
HETATM   29  C   UNL     1      -5.394   7.083 -27.335  1.00  0.00     0.048 C 
HETATM   30  C   UNL     1      -3.898   7.926 -25.503  1.00  0.00     0.009 A 
HETATM   31  C   UNL     1      -2.651   8.305 -25.003  1.00  0.00     0.031 A 
HETATM   32  N   UNL     1      -0.237   8.550 -25.625  1.00  0.00    -0.359 N 
HETATM   33  H   UNL     1       0.108   8.902 -24.742  1.00  0.00     0.166 HD
HETATM   34  C   UNL     1       0.524   8.317 -26.737  1.00  0.00     0.013 A 
HETATM   35  C   UNL     1       1.990   8.574 -26.736  1.00  0.00     0.068 C 
ENDBRANCH  23  24
ENDBRANCH  20  23
ENDBRANCH  16  19
ENDBRANCH  14  15
ENDBRANCH  13  14
ENDBRANCH  10  13
ENDBRANCH   1   9
TORSDOF 7
ENDMDL
MODEL 6
REMARK VINA RESULT:      -8.7      1.426      3.113
REMARK  7 active torsions:
REMARK  status: ('A' for Active; 'I' for Inactive)
REMARK    1  A    between atoms: C_10  and  C_11 
REMARK    2  A    between atoms: C_11  and  C_12 
REMARK       I    between atoms: C_12  and  N_13 
REMARK    3  A    between atoms: N_13  and  N_14 
REMARK       I    between atoms: N_14  and  C_15 
REMARK    4  A    between atoms: C_15  and  C_16 
REMARK    5  A    between atoms: C_16  and  C_17 
REMARK    6  A    between atoms: C_17  and  C_18 
REMARK       I    between atoms: C_18  and  N_19 
REMARK    7  A    between atoms: N_19  and  C_20 
ROOT
HETATM    1  C   UNL     1      -0.526   7.101 -28.816  1.00  0.00     0.034 A 
HETATM    2  C   UNL     1      -0.790   6.679 -27.511  1.00  0.00     0.031 A 
HETATM    3  C   UNL     1       0.050   7.058 -26.456  1.00  0.00     0.025 A 
HETATM    4  C   UNL     1       1.162   7.868 -26.697  1.00  0.00     0.044 A 
HETATM    5  C   UNL     1       2.019   8.258 -25.617  1.00  0.00     0.099 C 
HETATM    6  N   UNL     1       2.716   8.577 -24.745  1.00  0.00    -0.191 NA
HETATM    7  C   UNL     1       1.433   8.293 -28.000  1.00  0.00     0.025 A 
HETATM    8  C   UNL     1       0.595   7.908 -29.053  1.00  0.00     0.031 A 
ENDROOT
BRANCH   1   9
HETATM    9  N   UNL     1      -1.316   6.759 -29.930  1.00  0.00    -0.327 N 
HETATM   10  C   UNL     1      -1.109   5.725 -30.823  1.00  0.00     0.222 C 
HETATM   11  O   UNL     1      -0.208   4.894 -30.786  1.00  0.00    -0.273 OA
HETATM   12  H   UNL     1      -2.156   7.323 -30.075  1.00  0.00     0.169 HD
BRANCH  10  13
HETATM   13  C   UNL     1      -2.160   5.664 -31.916  1.00  0.00     0.112 C 
BRANCH  13  14
HETATM   14  C   UNL     1      -2.179   4.305 -32.607  1.00  0.00     0.114 C 
BRANCH  14  15
HETATM   15  C   UNL     1      -3.353   3.461 -32.158  1.00  0.00     0.236 C 
HETATM   16  N   UNL     1      -3.179   2.117 -32.388  1.00  0.00    -0.268 N 
HETATM   17  H   UNL     1      -2.378   1.727 -32.887  1.00  0.00     0.190 HD
HETATM   18  O   UNL     1      -4.348   3.930 -31.604  1.00  0.00    -0.272 OA
BRANCH  16  19
HETATM   19  N   UNL     1      -4.260   1.251 -32.198  1.00  0.00    -0.267 N 
HETATM   20  C   UNL     1      -3.984  -0.097 -32.064  1.00  0.00     0.240 C 
HETATM   21  O   UNL     1      -2.841  -0.543 -32.169  1.00  0.00    -0.272 OA
HETATM   22  H   UNL     1      -5.145   1.662 -31.901  1.00  0.00     0.190 HD
BRANCH  20  23
HETATM   23  C   UNL     1      -5.201  -0.964 -31.849  1.00  0.00     0.146 C 
BRANCH  23  24
HETATM   24  C   UNL     1      -6.383  -0.707 -32.739  1.00  0.00    -0.015 A 
HETATM   25  C   UNL     1      -7.505   0.180 -32.573  1.00  0.00    -0.000 A 
HETATM   26  C   UNL     1      -7.939   1.082 -31.573  1.00  0.00     0.021 A 
HETATM   27  C   UNL     1      -8.299   0.062 -33.715  1.00  0.00     0.043 A 
HETATM   28  C   UNL     1      -9.120   1.830 -31.743  1.00  0.00    -0.061 A 
HETATM   29  C   UNL     1      -9.543   2.815 -30.693  1.00  0.00     0.048 C 
HETATM   30  C   UNL     1      -9.863   1.691 -32.915  1.00  0.00     0.009 A 
HETATM   31  C   UNL     1      -9.473   0.798 -33.915  1.00  0.00     0.031 A 
HETATM   32  N   UNL     1      -7.710  -0.871 -34.530  1.00  0.00    -0.359 N 
HETATM   33  H   UNL     1      -8.085  -1.160 -35.423  1.00  0.00     0.166 HD
HETATM   34  C   UNL     1      -6.556  -1.341 -33.966  1.00  0.00     0.013 A 
HETATM   35  C   UNL     1      -5.721  -2.362 -34.655  1.00  0.00     0.068 C 
ENDBRANCH  23  24
ENDBRANCH  20  23
ENDBRANCH  16  19
ENDBRANCH  14  15
ENDBRANCH  13  14
ENDBRANCH  10  13
ENDBRANCH   1   9
TORSDOF 7
ENDMDL
MODEL 7
REMARK VINA RESULT:      -8.6     18.172     20.512
REMARK  7 active torsions:
REMARK  status: ('A' for Active; 'I' for Inactive)
REMARK    1  A    between atoms: C_10  and  C_11 
REMARK    2  A    between atoms: C_11  and  C_12 
REMARK       I    between atoms: C_12  and  N_13 
REMARK    3  A    between atoms: N_13  and  N_14 
REMARK       I    between atoms: N_14  and  C_15 
REMARK    4  A    between atoms: C_15  and  C_16 
REMARK    5  A    between atoms: C_16  and  C_17 
REMARK    6  A    between atoms: C_17  and  C_18 
REMARK       I    between atoms: C_18  and  N_19 
REMARK    7  A    between atoms: N_19  and  C_20 
ROOT
HETATM    1  C   UNL     1      -7.352 -14.516 -37.341  1.00  0.00     0.034 A 
HETATM    2  C   UNL     1      -7.042 -13.167 -37.529  1.00  0.00     0.031 A 
HETATM    3  C   UNL     1      -7.821 -12.369 -38.377  1.00  0.00     0.025 A 
HETATM    4  C   UNL     1      -8.922 -12.914 -39.043  1.00  0.00     0.044 A 
HETATM    5  C   UNL     1      -9.720 -12.096 -39.907  1.00  0.00     0.099 C 
HETATM    6  N   UNL     1     -10.370 -11.439 -40.609  1.00  0.00    -0.191 NA
HETATM    7  C   UNL     1      -9.237 -14.263 -38.859  1.00  0.00     0.025 A 
HETATM    8  C   UNL     1      -8.453 -15.058 -38.016  1.00  0.00     0.031 A 
ENDROOT
BRANCH   1   9
HETATM    9  N   UNL     1      -6.616 -15.385 -36.513  1.00  0.00    -0.327 N 
HETATM   10  C   UNL     1      -6.549 -15.378 -35.133  1.00  0.00     0.222 C 
HETATM   11  O   UNL     1      -7.149 -14.623 -34.375  1.00  0.00    -0.273 OA
HETATM   12  H   UNL     1      -6.097 -16.126 -36.989  1.00  0.00     0.169 HD
BRANCH  10  13
HETATM   13  C   UNL     1      -5.640 -16.457 -34.576  1.00  0.00     0.112 C 
BRANCH  13  14
HETATM   14  C   UNL     1      -4.375 -15.869 -33.962  1.00  0.00     0.114 C 
BRANCH  14  15
HETATM   15  C   UNL     1      -3.272 -15.709 -34.988  1.00  0.00     0.236 C 
HETATM   16  N   UNL     1      -3.042 -14.400 -35.342  1.00  0.00    -0.268 N 
HETATM   17  H   UNL     1      -3.609 -13.617 -35.014  1.00  0.00     0.190 HD
HETATM   18  O   UNL     1      -2.621 -16.655 -35.430  1.00  0.00    -0.272 OA
BRANCH  16  19
HETATM   19  N   UNL     1      -2.187 -14.129 -36.415  1.00  0.00    -0.267 N 
HETATM   20  C   UNL     1      -2.522 -13.079 -37.250  1.00  0.00     0.240 C 
HETATM   21  O   UNL     1      -3.562 -12.436 -37.105  1.00  0.00    -0.272 OA
HETATM   22  H   UNL     1      -1.247 -14.523 -36.378  1.00  0.00     0.190 HD
BRANCH  20  23
HETATM   23  C   UNL     1      -1.545 -12.842 -38.375  1.00  0.00     0.146 C 
BRANCH  23  24
HETATM   24  C   UNL     1      -1.709 -13.687 -39.606  1.00  0.00    -0.015 A 
HETATM   25  C   UNL     1      -2.835 -13.847 -40.489  1.00  0.00    -0.000 A 
HETATM   26  C   UNL     1      -4.155 -13.338 -40.545  1.00  0.00     0.021 A 
HETATM   27  C   UNL     1      -2.445 -14.722 -41.504  1.00  0.00     0.043 A 
HETATM   28  C   UNL     1      -5.022 -13.702 -41.592  1.00  0.00    -0.061 A 
HETATM   29  C   UNL     1      -6.403 -13.120 -41.661  1.00  0.00     0.048 C 
HETATM   30  C   UNL     1      -4.573 -14.563 -42.594  1.00  0.00     0.009 A 
HETATM   31  C   UNL     1      -3.283 -15.096 -42.562  1.00  0.00     0.031 A 
HETATM   32  N   UNL     1      -1.154 -15.104 -41.243  1.00  0.00    -0.359 N 
HETATM   33  H   UNL     1      -0.626 -15.748 -41.816  1.00  0.00     0.166 HD
HETATM   34  C   UNL     1      -0.691 -14.490 -40.112  1.00  0.00     0.013 A 
HETATM   35  C   UNL     1       0.690 -14.731 -39.613  1.00  0.00     0.068 C 
ENDBRANCH  23  24
ENDBRANCH  20  23
ENDBRANCH  16  19
ENDBRANCH  14  15
ENDBRANCH  13  14
ENDBRANCH  10  13
ENDBRANCH   1   9
TORSDOF 7
ENDMDL
MODEL 8
REMARK VINA RESULT:      -8.4      2.638     10.382
REMARK  7 active torsions:
REMARK  status: ('A' for Active; 'I' for Inactive)
REMARK    1  A    between atoms: C_10  and  C_11 
REMARK    2  A    between atoms: C_11  and  C_12 
REMARK       I    between atoms: C_12  and  N_13 
REMARK    3  A    between atoms: N_13  and  N_14 
REMARK       I    between atoms: N_14  and  C_15 
REMARK    4  A    between atoms: C_15  and  C_16 
REMARK    5  A    between atoms: C_16  and  C_17 
REMARK    6  A    between atoms: C_17  and  C_18 
REMARK       I    between atoms: C_18  and  N_19 
REMARK    7  A    between atoms: N_19  and  C_20 
ROOT
HETATM    1  C   UNL     1      -6.465  -0.358 -33.612  1.00  0.00     0.034 A 
HETATM    2  C   UNL     1      -7.319  -1.182 -34.347  1.00  0.00     0.031 A 
HETATM    3  C   UNL     1      -6.938  -2.490 -34.675  1.00  0.00     0.025 A 
HETATM    4  C   UNL     1      -5.697  -2.986 -34.267  1.00  0.00     0.044 A 
HETATM    5  C   UNL     1      -5.309  -4.324 -34.600  1.00  0.00     0.099 C 
HETATM    6  N   UNL     1      -4.990  -5.408 -34.867  1.00  0.00    -0.191 NA
HETATM    7  C   UNL     1      -4.838  -2.165 -33.532  1.00  0.00     0.025 A 
HETATM    8  C   UNL     1      -5.219  -0.858 -33.210  1.00  0.00     0.031 A 
ENDROOT
BRANCH   1   9
HETATM    9  N   UNL     1      -6.771   0.968 -33.248  1.00  0.00    -0.327 N 
HETATM   10  C   UNL     1      -7.732   1.395 -32.353  1.00  0.00     0.222 C 
HETATM   11  O   UNL     1      -8.479   0.686 -31.686  1.00  0.00    -0.273 OA
HETATM   12  H   UNL     1      -6.191   1.695 -33.673  1.00  0.00     0.169 HD
BRANCH  10  13
HETATM   13  C   UNL     1      -7.792   2.905 -32.219  1.00  0.00     0.112 C 
BRANCH  13  14
HETATM   14  C   UNL     1      -7.213   3.605 -33.443  1.00  0.00     0.114 C 
BRANCH  14  15
HETATM   15  C   UNL     1      -5.844   4.189 -33.163  1.00  0.00     0.236 C 
HETATM   16  N   UNL     1      -5.821   5.564 -33.191  1.00  0.00    -0.268 N 
HETATM   17  H   UNL     1      -6.623   6.138 -33.456  1.00  0.00     0.190 HD
HETATM   18  O   UNL     1      -4.859   3.500 -32.897  1.00  0.00    -0.272 OA
BRANCH  16  19
HETATM   19  N   UNL     1      -4.588   6.222 -33.139  1.00  0.00    -0.267 N 
HETATM   20  C   UNL     1      -4.262   6.877 -31.966  1.00  0.00     0.240 C 
HETATM   21  O   UNL     1      -5.042   6.942 -31.016  1.00  0.00    -0.272 OA
HETATM   22  H   UNL     1      -3.891   5.969 -33.839  1.00  0.00     0.190 HD
BRANCH  20  23
HETATM   23  C   UNL     1      -2.912   7.551 -31.984  1.00  0.00     0.146 C 
BRANCH  23  24
HETATM   24  C   UNL     1      -1.739   6.735 -31.524  1.00  0.00    -0.015 A 
HETATM   25  C   UNL     1      -1.111   6.642 -30.231  1.00  0.00    -0.000 A 
HETATM   26  C   UNL     1      -1.305   7.252 -28.969  1.00  0.00     0.021 A 
HETATM   27  C   UNL     1      -0.083   5.704 -30.336  1.00  0.00     0.043 A 
HETATM   28  C   UNL     1      -0.491   6.909 -27.872  1.00  0.00    -0.061 A 
HETATM   29  C   UNL     1      -0.738   7.532 -26.530  1.00  0.00     0.048 C 
HETATM   30  C   UNL     1       0.507   5.948 -28.027  1.00  0.00     0.009 A 
HETATM   31  C   UNL     1       0.737   5.338 -29.262  1.00  0.00     0.031 A 
HETATM   32  N   UNL     1      -0.060   5.263 -31.634  1.00  0.00    -0.359 N 
HETATM   33  H   UNL     1       0.599   4.585 -31.991  1.00  0.00     0.166 HD
HETATM   34  C   UNL     1      -1.049   5.865 -32.363  1.00  0.00     0.013 A 
HETATM   35  C   UNL     1      -1.244   5.552 -33.805  1.00  0.00     0.068 C 
ENDBRANCH  23  24
ENDBRANCH  20  23
ENDBRANCH  16  19
ENDBRANCH  14  15
ENDBRANCH  13  14
ENDBRANCH  10  13
ENDBRANCH   1   9
TORSDOF 7
ENDMDL
MODEL 9
REMARK VINA RESULT:      -8.4      2.113      3.261
REMARK  7 active torsions:
REMARK  status: ('A' for Active; 'I' for Inactive)
REMARK    1  A    between atoms: C_10  and  C_11 
REMARK    2  A    between atoms: C_11  and  C_12 
REMARK       I    between atoms: C_12  and  N_13 
REMARK    3  A    between atoms: N_13  and  N_14 
REMARK       I    between atoms: N_14  and  C_15 
REMARK    4  A    between atoms: C_15  and  C_16 
REMARK    5  A    between atoms: C_16  and  C_17 
REMARK    6  A    between atoms: C_17  and  C_18 
REMARK       I    between atoms: C_18  and  N_19 
REMARK    7  A    between atoms: N_19  and  C_20 
ROOT
HETATM    1  C   UNL     1      -0.590   7.491 -30.069  1.00  0.00     0.034 A 
HETATM    2  C   UNL     1      -1.650   7.954 -29.287  1.00  0.00     0.031 A 
HETATM    3  C   UNL     1      -1.421   8.433 -27.990  1.00  0.00     0.025 A 
HETATM    4  C   UNL     1      -0.127   8.455 -27.465  1.00  0.00     0.044 A 
HETATM    5  C   UNL     1       0.107   8.948 -26.140  1.00  0.00     0.099 C 
HETATM    6  N   UNL     1       0.302   9.346 -25.068  1.00  0.00    -0.191 NA
HETATM    7  C   UNL     1       0.937   7.993 -28.243  1.00  0.00     0.025 A 
HETATM    8  C   UNL     1       0.705   7.510 -29.536  1.00  0.00     0.031 A 
ENDROOT
BRANCH   1   9
HETATM    9  N   UNL     1      -0.738   6.989 -31.377  1.00  0.00    -0.327 N 
HETATM   10  C   UNL     1      -1.338   7.610 -32.455  1.00  0.00     0.222 C 
HETATM   11  O   UNL     1      -1.828   8.734 -32.473  1.00  0.00    -0.273 OA
HETATM   12  H   UNL     1      -0.324   6.071 -31.554  1.00  0.00     0.169 HD
BRANCH  10  13
HETATM   13  C   UNL     1      -1.328   6.761 -33.713  1.00  0.00     0.112 C 
BRANCH  13  14
HETATM   14  C   UNL     1      -1.062   5.293 -33.401  1.00  0.00     0.114 C 
BRANCH  14  15
HETATM   15  C   UNL     1      -2.271   4.619 -32.787  1.00  0.00     0.236 C 
HETATM   16  N   UNL     1      -3.396   4.691 -33.576  1.00  0.00    -0.268 N 
HETATM   17  H   UNL     1      -3.441   5.217 -34.450  1.00  0.00     0.190 HD
HETATM   18  O   UNL     1      -2.239   4.031 -31.707  1.00  0.00    -0.272 OA
BRANCH  16  19
HETATM   19  N   UNL     1      -4.623   4.279 -33.046  1.00  0.00    -0.267 N 
HETATM   20  C   UNL     1      -5.598   5.242 -32.867  1.00  0.00     0.240 C 
HETATM   21  O   UNL     1      -5.390   6.433 -33.102  1.00  0.00    -0.272 OA
HETATM   22  H   UNL     1      -4.834   3.282 -33.071  1.00  0.00     0.190 HD
BRANCH  20  23
HETATM   23  C   UNL     1      -6.896   4.718 -32.304  1.00  0.00     0.146 C 
BRANCH  23  24
HETATM   24  C   UNL     1      -6.815   3.491 -31.443  1.00  0.00    -0.015 A 
HETATM   25  C   UNL     1      -6.617   2.109 -31.797  1.00  0.00    -0.000 A 
HETATM   26  C   UNL     1      -6.458   1.389 -33.005  1.00  0.00     0.021 A 
HETATM   27  C   UNL     1      -6.582   1.377 -30.609  1.00  0.00     0.043 A 
HETATM   28  C   UNL     1      -6.264  -0.005 -32.992  1.00  0.00    -0.061 A 
HETATM   29  C   UNL     1      -6.052  -0.747 -34.279  1.00  0.00     0.048 C 
HETATM   30  C   UNL     1      -6.213  -0.684 -31.774  1.00  0.00     0.009 A 
HETATM   31  C   UNL     1      -6.383  -0.008 -30.564  1.00  0.00     0.031 A 
HETATM   32  N   UNL     1      -6.777   2.259 -29.577  1.00  0.00    -0.359 N 
HETATM   33  H   UNL     1      -6.810   1.993 -28.602  1.00  0.00     0.166 HD
HETATM   34  C   UNL     1      -6.913   3.534 -30.055  1.00  0.00     0.013 A 
HETATM   35  C   UNL     1      -7.129   4.683 -29.135  1.00  0.00     0.068 C 
ENDBRANCH  23  24
ENDBRANCH  20  23
ENDBRANCH  16  19
ENDBRANCH  14  15
ENDBRANCH  13  14
ENDBRANCH  10  13
ENDBRANCH   1   9
TORSDOF 7
ENDMDL
MODEL 10
REMARK VINA RESULT:      -8.3     17.916     21.059
REMARK  7 active torsions:
REMARK  status: ('A' for Active; 'I' for Inactive)
REMARK    1  A    between atoms: C_10  and  C_11 
REMARK    2  A    between atoms: C_11  and  C_12 
REMARK       I    between atoms: C_12  and  N_13 
REMARK    3  A    between atoms: N_13  and  N_14 
REMARK       I    between atoms: N_14  and  C_15 
REMARK    4  A    between atoms: C_15  and  C_16 
REMARK    5  A    between atoms: C_16  and  C_17 
REMARK    6  A    between atoms: C_17  and  C_18 
REMARK       I    between atoms: C_18  and  N_19 
REMARK    7  A    between atoms: N_19  and  C_20 
ROOT
HETATM    1  C   UNL     1      -4.283 -14.474 -41.429  1.00  0.00     0.034 A 
HETATM    2  C   UNL     1      -5.488 -14.711 -40.766  1.00  0.00     0.031 A 
HETATM    3  C   UNL     1      -6.519 -15.420 -41.396  1.00  0.00     0.025 A 
HETATM    4  C   UNL     1      -6.350 -15.903 -42.696  1.00  0.00     0.044 A 
HETATM    5  C   UNL     1      -7.403 -16.632 -43.339  1.00  0.00     0.099 C 
HETATM    6  N   UNL     1      -8.253 -17.222 -43.864  1.00  0.00    -0.191 NA
HETATM    7  C   UNL     1      -5.146 -15.669 -43.365  1.00  0.00     0.025 A 
HETATM    8  C   UNL     1      -4.121 -14.954 -42.735  1.00  0.00     0.031 A 
ENDROOT
BRANCH   1   9
HETATM    9  N   UNL     1      -3.202 -13.764 -40.869  1.00  0.00    -0.327 N 
HETATM   10  C   UNL     1      -2.280 -14.224 -39.948  1.00  0.00     0.222 C 
HETATM   11  O   UNL     1      -2.220 -15.353 -39.472  1.00  0.00    -0.273 OA
HETATM   12  H   UNL     1      -3.069 -12.809 -41.208  1.00  0.00     0.169 HD
BRANCH  10  13
HETATM   13  C   UNL     1      -1.258 -13.173 -39.555  1.00  0.00     0.112 C 
BRANCH  13  14
HETATM   14  C   UNL     1      -1.515 -12.632 -38.153  1.00  0.00     0.114 C 
BRANCH  14  15
HETATM   15  C   UNL     1      -2.990 -12.404 -37.899  1.00  0.00     0.236 C 
HETATM   16  N   UNL     1      -3.446 -13.010 -36.751  1.00  0.00    -0.268 N 
HETATM   17  H   UNL     1      -2.873 -13.623 -36.169  1.00  0.00     0.190 HD
HETATM   18  O   UNL     1      -3.701 -11.711 -38.626  1.00  0.00    -0.272 OA
BRANCH  16  19
HETATM   19  N   UNL     1      -4.822 -13.039 -36.501  1.00  0.00    -0.267 N 
HETATM   20  C   UNL     1      -5.515 -14.178 -36.866  1.00  0.00     0.240 C 
HETATM   21  O   UNL     1      -4.968 -15.116 -37.449  1.00  0.00    -0.272 OA
HETATM   22  H   UNL     1      -5.192 -12.361 -35.835  1.00  0.00     0.190 HD
BRANCH  20  23
HETATM   23  C   UNL     1      -6.990 -14.138 -36.553  1.00  0.00     0.146 C 
BRANCH  23  24
HETATM   24  C   UNL     1      -7.906 -14.849 -37.506  1.00  0.00    -0.015 A 
HETATM   25  C   UNL     1      -8.803 -14.330 -38.507  1.00  0.00    -0.000 A 
HETATM   26  C   UNL     1      -9.181 -13.041 -38.952  1.00  0.00     0.021 A 
HETATM   27  C   UNL     1      -9.391 -15.424 -39.144  1.00  0.00     0.043 A 
HETATM   28  C   UNL     1     -10.107 -12.886 -40.001  1.00  0.00    -0.061 A 
HETATM   29  C   UNL     1     -10.465 -11.513 -40.491  1.00  0.00     0.048 C 
HETATM   30  C   UNL     1     -10.647 -14.014 -40.618  1.00  0.00     0.009 A 
HETATM   31  C   UNL     1     -10.309 -15.300 -40.194  1.00  0.00     0.031 A 
HETATM   32  N   UNL     1      -8.903 -16.557 -38.546  1.00  0.00    -0.359 N 
HETATM   33  H   UNL     1      -9.174 -17.496 -38.806  1.00  0.00     0.166 HD
HETATM   34  C   UNL     1      -8.007 -16.236 -37.565  1.00  0.00     0.013 A 
HETATM   35  C   UNL     1      -7.326 -17.290 -36.766  1.00  0.00     0.068 C 
ENDBRANCH  23  24
ENDBRANCH  20  23
ENDBRANCH  16  19
ENDBRANCH  14  15
ENDBRANCH  13  14
ENDBRANCH  10  13
ENDBRANCH   1   9
TORSDOF 7
ENDMDL
