MODEL 1
REMARK VINA RESULT:     -10.0      0.000      0.000
REMARK  8 active torsions:
REMARK  status: ('A' for Active; 'I' for Inactive)
REMARK    1  A    between atoms: C_4  and  S_5 
REMARK    2  A    between atoms: S_5  and  C_6 
REMARK    3  A    between atoms: C_6  and  C_7 
REMARK       I    between atoms: C_7  and  N_8 
REMARK    4  A    between atoms: N_8  and  C_9 
REMARK    5  A    between atoms: C_11  and  C_12 
REMARK    6  A    between atoms: C_23  and  C_24 
REMARK    7  A    between atoms: C_30  and  C_31 
REMARK       I    between atoms: C_31  and  N_32 
REMARK    8  A    between atoms: N_32  and  C_33 
ROOT
HETATM    1  C   UNL     1      -2.912  -0.012 -31.034  1.00  0.00     0.069 C 
HETATM    2  C   UNL     1      -3.711   1.135 -31.606  1.00  0.00     0.019 C 
HETATM    3  N   UNL     1      -3.063   2.361 -31.612  1.00  0.00    -0.353 N 
HETATM    4  C   UNL     1      -3.511   3.482 -32.287  1.00  0.00     0.087 C 
HETATM    5  C   UNL     1      -4.781   3.500 -32.751  1.00  0.00     0.055 C 
HETATM    6  C   UNL     1      -5.401   4.752 -33.350  1.00  0.00     0.019 C 
HETATM    7  N   UNL     1      -5.915   5.790 -33.847  1.00  0.00    -0.096 N 
HETATM    8  C   UNL     1      -5.693   2.279 -32.611  1.00  0.00     0.104 C 
HETATM    9  C   UNL     1      -4.963   1.029 -32.114  1.00  0.00     0.046 C 
HETATM   10  H   UNL     1      -2.057   2.343 -31.451  1.00  0.00     0.166 HD
ENDROOT
BRANCH   4  11
HETATM   11  S   UNL     1      -2.378   4.764 -32.654  1.00  0.00    -0.102 SA
BRANCH  11  12
HETATM   12  C   UNL     1      -1.215   4.686 -31.254  1.00  0.00     0.184 C 
BRANCH  12  13
HETATM   13  C   UNL     1      -1.083   6.022 -30.510  1.00  0.00     0.231 C 
HETATM   14  N   UNL     1      -0.572   5.934 -29.229  1.00  0.00    -0.327 N 
HETATM   15  H   UNL     1      -0.399   4.989 -28.903  1.00  0.00     0.169 HD
HETATM   16  O   UNL     1      -1.414   7.064 -31.073  1.00  0.00    -0.272 OA
BRANCH  14  17
HETATM   17  C   UNL     1      -0.297   6.964 -28.309  1.00  0.00     0.035 A 
HETATM   18  C   UNL     1      -1.135   7.312 -27.249  1.00  0.00     0.045 A 
HETATM   19  C   UNL     1      -0.796   8.368 -26.383  1.00  0.00     0.050 A 
HETATM   20  C   UNL     1       0.410   9.057 -26.580  1.00  0.00     0.016 A 
HETATM   21  C   UNL     1       1.250   8.715 -27.636  1.00  0.00     0.003 A 
HETATM   22  C   UNL     1       0.893   7.678 -28.499  1.00  0.00     0.029 A 
BRANCH  19  23
HETATM   23  C   UNL     1      -1.697   8.740 -25.230  1.00  0.00     0.417 C 
HETATM   24  F   UNL     1      -2.663   9.641 -25.558  1.00  0.00    -0.166 F 
HETATM   25  F   UNL     1      -2.345   7.661 -24.711  1.00  0.00    -0.166 F 
HETATM   26  F   UNL     1      -1.013   9.296 -24.190  1.00  0.00    -0.166 F 
ENDBRANCH  19  23
ENDBRANCH  14  17
ENDBRANCH  12  13
ENDBRANCH  11  12
ENDBRANCH   4  11
BRANCH   8  27
HETATM   27  C   UNL     1      -6.919   2.630 -31.769  1.00  0.00    -0.042 A 
HETATM   28  C   UNL     1      -6.756   3.069 -30.446  1.00  0.00     0.027 A 
HETATM   29  C   UNL     1      -7.883   3.378 -29.702  1.00  0.00     0.116 A 
HETATM   30  N   UNL     1      -9.140   3.290 -30.180  1.00  0.00    -0.273 NA
HETATM   31  C   UNL     1      -9.284   2.844 -31.446  1.00  0.00     0.116 A 
HETATM   32  C   UNL     1      -8.222   2.501 -32.267  1.00  0.00     0.027 A 
ENDBRANCH   8  27
BRANCH   9  33
HETATM   33  C   UNL     1      -5.514  -0.333 -32.437  1.00  0.00     0.255 C 
HETATM   34  N   UNL     1      -5.033  -0.909 -33.591  1.00  0.00    -0.323 N 
HETATM   35  H   UNL     1      -4.413  -0.371 -34.178  1.00  0.00     0.169 HD
HETATM   36  O   UNL     1      -6.277  -0.870 -31.639  1.00  0.00    -0.268 OA
BRANCH  34  37
HETATM   37  C   UNL     1      -5.285  -2.219 -34.057  1.00  0.00     0.035 A 
HETATM   38  C   UNL     1      -6.485  -2.625 -34.646  1.00  0.00     0.029 A 
HETATM   39  C   UNL     1      -6.659  -3.948 -35.065  1.00  0.00     0.002 A 
HETATM   40  C   UNL     1      -5.640  -4.880 -34.888  1.00  0.00     0.000 A 
HETATM   41  C   UNL     1      -4.440  -4.487 -34.304  1.00  0.00     0.002 A 
HETATM   42  C   UNL     1      -4.259  -3.161 -33.900  1.00  0.00     0.029 A 
ENDBRANCH  34  37
ENDBRANCH   9  33
TORSDOF 8
ENDMDL
MODEL 2
REMARK VINA RESULT:      -9.9      4.168      5.073
REMARK  8 active torsions:
REMARK  status: ('A' for Active; 'I' for Inactive)
REMARK    1  A    between atoms: C_4  and  S_5 
REMARK    2  A    between atoms: S_5  and  C_6 
REMARK    3  A    between atoms: C_6  and  C_7 
REMARK       I    between atoms: C_7  and  N_8 
REMARK    4  A    between atoms: N_8  and  C_9 
REMARK    5  A    between atoms: C_11  and  C_12 
REMARK    6  A    between atoms: C_23  and  C_24 
REMARK    7  A    between atoms: C_30  and  C_31 
REMARK       I    between atoms: C_31  and  N_32 
REMARK    8  A    between atoms: N_32  and  C_33 
ROOT
HETATM    1  C   UNL     1      -6.016   0.643 -29.397  1.00  0.00     0.069 C 
HETATM    2  C   UNL     1      -6.587   1.844 -30.111  1.00  0.00     0.019 C 
HETATM    3  N   UNL     1      -7.004   2.879 -29.286  1.00  0.00    -0.353 N 
HETATM    4  C   UNL     1      -7.342   4.146 -29.726  1.00  0.00     0.087 C 
HETATM    5  C   UNL     1      -7.551   4.344 -31.047  1.00  0.00     0.055 C 
HETATM    6  C   UNL     1      -8.089   5.659 -31.588  1.00  0.00     0.019 C 
HETATM    7  N   UNL     1      -8.535   6.749 -32.037  1.00  0.00    -0.096 N 
HETATM    8  C   UNL     1      -7.343   3.215 -32.060  1.00  0.00     0.104 C 
HETATM    9  C   UNL     1      -6.689   1.971 -31.457  1.00  0.00     0.046 C 
HETATM   10  H   UNL     1      -6.688   2.841 -28.318  1.00  0.00     0.166 HD
ENDROOT
BRANCH   4  11
HETATM   11  S   UNL     1      -7.330   5.473 -28.585  1.00  0.00    -0.102 SA
BRANCH  11  12
HETATM   12  C   UNL     1      -5.551   5.771 -28.333  1.00  0.00     0.184 C 
BRANCH  12  13
HETATM   13  C   UNL     1      -4.873   6.418 -29.548  1.00  0.00     0.231 C 
HETATM   14  N   UNL     1      -3.686   5.831 -29.941  1.00  0.00    -0.327 N 
HETATM   15  H   UNL     1      -3.365   5.075 -29.345  1.00  0.00     0.169 HD
HETATM   16  O   UNL     1      -5.406   7.381 -30.096  1.00  0.00    -0.272 OA
BRANCH  14  17
HETATM   17  C   UNL     1      -2.848   6.159 -31.025  1.00  0.00     0.035 A 
HETATM   18  C   UNL     1      -2.853   5.488 -32.249  1.00  0.00     0.045 A 
HETATM   19  C   UNL     1      -1.970   5.867 -33.277  1.00  0.00     0.050 A 
HETATM   20  C   UNL     1      -1.098   6.947 -33.071  1.00  0.00     0.016 A 
HETATM   21  C   UNL     1      -1.090   7.620 -31.852  1.00  0.00     0.003 A 
HETATM   22  C   UNL     1      -1.956   7.222 -30.834  1.00  0.00     0.029 A 
BRANCH  19  23
HETATM   23  C   UNL     1      -1.978   5.148 -34.604  1.00  0.00     0.417 C 
HETATM   24  F   UNL     1      -3.007   5.511 -35.419  1.00  0.00    -0.166 F 
HETATM   25  F   UNL     1      -0.838   5.362 -35.316  1.00  0.00    -0.166 F 
HETATM   26  F   UNL     1      -2.079   3.795 -34.465  1.00  0.00    -0.166 F 
ENDBRANCH  19  23
ENDBRANCH  14  17
ENDBRANCH  12  13
ENDBRANCH  11  12
ENDBRANCH   4  11
BRANCH   8  27
HETATM   27  C   UNL     1      -8.654   2.910 -32.785  1.00  0.00    -0.042 A 
HETATM   28  C   UNL     1      -9.524   1.934 -32.276  1.00  0.00     0.027 A 
HETATM   29  C   UNL     1     -10.704   1.674 -32.954  1.00  0.00     0.116 A 
HETATM   30  N   UNL     1     -11.074   2.315 -34.080  1.00  0.00    -0.273 NA
HETATM   31  C   UNL     1     -10.217   3.234 -34.573  1.00  0.00     0.116 A 
HETATM   32  C   UNL     1      -9.010   3.559 -33.974  1.00  0.00     0.027 A 
ENDBRANCH   8  27
BRANCH   9  33
HETATM   33  C   UNL     1      -5.921   1.029 -32.343  1.00  0.00     0.255 C 
HETATM   34  N   UNL     1      -6.448  -0.237 -32.462  1.00  0.00    -0.323 N 
HETATM   35  H   UNL     1      -7.254  -0.480 -31.905  1.00  0.00     0.169 HD
HETATM   36  O   UNL     1      -4.942   1.451 -32.954  1.00  0.00    -0.268 OA
BRANCH  34  37
HETATM   37  C   UNL     1      -6.002  -1.268 -33.319  1.00  0.00     0.035 A 
HETATM   38  C   UNL     1      -4.667  -1.659 -33.449  1.00  0.00     0.029 A 
HETATM   39  C   UNL     1      -4.308  -2.679 -34.336  1.00  0.00     0.002 A 
HETATM   40  C   UNL     1      -5.278  -3.310 -35.110  1.00  0.00     0.000 A 
HETATM   41  C   UNL     1      -6.611  -2.931 -34.988  1.00  0.00     0.002 A 
HETATM   42  C   UNL     1      -6.973  -1.922 -34.090  1.00  0.00     0.029 A 
ENDBRANCH  34  37
ENDBRANCH   9  33
TORSDOF 8
ENDMDL
MODEL 3
REMARK VINA RESULT:      -9.8      6.095      9.561
REMARK  8 active torsions:
REMARK  status: ('A' for Active; 'I' for Inactive)
REMARK    1  A    between atoms: C_4  and  S_5 
REMARK    2  A    between atoms: S_5  and  C_6 
REMARK    3  A    between atoms: C_6  and  C_7 
REMARK       I    between atoms: C_7  and  N_8 
REMARK    4  A    between atoms: N_8  and  C_9 
REMARK    5  A    between atoms: C_11  and  C_12 
REMARK    6  A    between atoms: C_23  and  C_24 
REMARK    7  A    between atoms: C_30  and  C_31 
REMARK       I    between atoms: C_31  and  N_32 
REMARK    8  A    between atoms: N_32  and  C_33 
ROOT
HETATM    1  C   UNL     1      -9.338   2.337 -34.268  1.00  0.00     0.069 C 
HETATM    2  C   UNL     1      -8.430   3.280 -33.515  1.00  0.00     0.019 C 
HETATM    3  N   UNL     1      -8.913   4.572 -33.365  1.00  0.00    -0.353 N 
HETATM    4  C   UNL     1      -8.362   5.524 -32.527  1.00  0.00     0.087 C 
HETATM    5  C   UNL     1      -7.127   5.309 -32.018  1.00  0.00     0.055 C 
HETATM    6  C   UNL     1      -6.386   6.377 -31.230  1.00  0.00     0.019 C 
HETATM    7  N   UNL     1      -5.770   7.262 -30.578  1.00  0.00    -0.096 N 
HETATM    8  C   UNL     1      -6.375   4.004 -32.289  1.00  0.00     0.104 C 
HETATM    9  C   UNL     1      -7.231   2.941 -32.980  1.00  0.00     0.046 C 
HETATM   10  H   UNL     1      -9.903   4.711 -33.564  1.00  0.00     0.166 HD
ENDROOT
BRANCH   4  11
HETATM   11  S   UNL     1      -9.339   6.888 -32.030  1.00  0.00    -0.102 SA
BRANCH  11  12
HETATM   12  C   UNL     1     -10.208   6.248 -30.563  1.00  0.00     0.184 C 
BRANCH  12  13
HETATM   13  C   UNL     1     -10.910   4.908 -30.819  1.00  0.00     0.231 C 
HETATM   14  N   UNL     1     -12.079   4.986 -31.551  1.00  0.00    -0.327 N 
HETATM   15  H   UNL     1     -12.373   5.928 -31.786  1.00  0.00     0.169 HD
HETATM   16  O   UNL     1     -10.409   3.871 -30.387  1.00  0.00    -0.272 OA
BRANCH  14  17
HETATM   17  C   UNL     1     -12.929   3.949 -31.981  1.00  0.00     0.035 A 
HETATM   18  C   UNL     1     -12.539   2.924 -32.844  1.00  0.00     0.045 A 
HETATM   19  C   UNL     1     -13.456   1.933 -33.241  1.00  0.00     0.050 A 
HETATM   20  C   UNL     1     -14.766   1.969 -32.739  1.00  0.00     0.016 A 
HETATM   21  C   UNL     1     -15.160   2.989 -31.878  1.00  0.00     0.003 A 
HETATM   22  C   UNL     1     -14.247   3.976 -31.507  1.00  0.00     0.029 A 
BRANCH  19  23
HETATM   23  C   UNL     1     -13.034   0.819 -34.168  1.00  0.00     0.417 C 
HETATM   24  F   UNL     1     -12.477   1.254 -35.331  1.00  0.00    -0.166 F 
HETATM   25  F   UNL     1     -12.119  -0.011 -33.597  1.00  0.00    -0.166 F 
HETATM   26  F   UNL     1     -14.078   0.021 -34.536  1.00  0.00    -0.166 F 
ENDBRANCH  19  23
ENDBRANCH  14  17
ENDBRANCH  12  13
ENDBRANCH  11  12
ENDBRANCH   4  11
BRANCH   8  27
HETATM   27  C   UNL     1      -5.070   4.294 -33.030  1.00  0.00    -0.042 A 
HETATM   28  C   UNL     1      -5.103   4.874 -34.307  1.00  0.00     0.027 A 
HETATM   29  C   UNL     1      -3.907   5.123 -34.959  1.00  0.00     0.116 A 
HETATM   30  N   UNL     1      -2.698   4.847 -34.430  1.00  0.00    -0.273 NA
HETATM   31  C   UNL     1      -2.679   4.268 -33.211  1.00  0.00     0.116 A 
HETATM   32  C   UNL     1      -3.821   3.970 -32.484  1.00  0.00     0.027 A 
ENDBRANCH   8  27
BRANCH   9  33
HETATM   33  C   UNL     1      -6.880   1.487 -32.826  1.00  0.00     0.255 C 
HETATM   34  N   UNL     1      -6.268   0.906 -33.915  1.00  0.00    -0.323 N 
HETATM   35  H   UNL     1      -6.161   1.451 -34.757  1.00  0.00     0.169 HD
HETATM   36  O   UNL     1      -7.080   0.936 -31.747  1.00  0.00    -0.268 OA
BRANCH  34  37
HETATM   37  C   UNL     1      -5.727  -0.397 -33.992  1.00  0.00     0.035 A 
HETATM   38  C   UNL     1      -4.502  -0.773 -33.436  1.00  0.00     0.029 A 
HETATM   39  C   UNL     1      -4.030  -2.082 -33.574  1.00  0.00     0.002 A 
HETATM   40  C   UNL     1      -4.773  -3.025 -34.279  1.00  0.00     0.000 A 
HETATM   41  C   UNL     1      -5.996  -2.663 -34.835  1.00  0.00     0.002 A 
HETATM   42  C   UNL     1      -6.476  -1.359 -34.684  1.00  0.00     0.029 A 
ENDBRANCH  34  37
ENDBRANCH   9  33
TORSDOF 8
ENDMDL
MODEL 4
REMARK VINA RESULT:      -9.6      5.153      7.013
REMARK  8 active torsions:
REMARK  status: ('A' for Active; 'I' for Inactive)
REMARK    1  A    between atoms: C_4  and  S_5 
REMARK    2  A    between atoms: S_5  and  C_6 
REMARK    3  A    between atoms: C_6  and  C_7 
REMARK       I    between atoms: C_7  and  N_8 
REMARK    4  A    between atoms: N_8  and  C_9 
REMARK    5  A    between atoms: C_11  and  C_12 
REMARK    6  A    between atoms: C_23  and  C_24 
REMARK    7  A    between atoms: C_30  and  C_31 
REMARK       I    between atoms: C_31  and  N_32 
REMARK    8  A    between atoms: N_32  and  C_33 
ROOT
HETATM    1  C   UNL     1      -8.870   2.530 -30.468  1.00  0.00     0.069 C 
HETATM    2  C   UNL     1      -9.788   3.045 -31.551  1.00  0.00     0.019 C 
HETATM    3  N   UNL     1     -10.176   4.369 -31.416  1.00  0.00    -0.353 N 
HETATM    4  C   UNL     1     -10.819   5.102 -32.396  1.00  0.00     0.087 C 
HETATM    5  C   UNL     1     -11.356   4.450 -33.453  1.00  0.00     0.055 C 
HETATM    6  C   UNL     1     -12.222   5.161 -34.481  1.00  0.00     0.019 C 
HETATM    7  N   UNL     1     -12.939   5.749 -35.333  1.00  0.00    -0.096 N 
HETATM    8  C   UNL     1     -11.194   2.937 -33.615  1.00  0.00     0.104 C 
HETATM    9  C   UNL     1     -10.215   2.320 -32.614  1.00  0.00     0.046 C 
HETATM   10  H   UNL     1      -9.645   4.931 -30.752  1.00  0.00     0.166 HD
ENDROOT
BRANCH   4  11
HETATM   11  S   UNL     1     -10.775   6.850 -32.318  1.00  0.00    -0.102 SA
BRANCH  11  12
HETATM   12  C   UNL     1      -9.218   7.252 -33.172  1.00  0.00     0.184 C 
BRANCH  12  13
HETATM   13  C   UNL     1      -8.002   6.531 -32.574  1.00  0.00     0.231 C 
HETATM   14  N   UNL     1      -7.197   5.879 -33.488  1.00  0.00    -0.327 N 
HETATM   15  H   UNL     1      -7.534   5.900 -34.445  1.00  0.00     0.169 HD
HETATM   16  O   UNL     1      -7.808   6.578 -31.361  1.00  0.00    -0.272 OA
BRANCH  14  17
HETATM   17  C   UNL     1      -6.004   5.164 -33.270  1.00  0.00     0.035 A 
HETATM   18  C   UNL     1      -4.754   5.561 -33.750  1.00  0.00     0.045 A 
HETATM   19  C   UNL     1      -3.610   4.780 -33.503  1.00  0.00     0.050 A 
HETATM   20  C   UNL     1      -3.731   3.606 -32.744  1.00  0.00     0.016 A 
HETATM   21  C   UNL     1      -4.974   3.206 -32.262  1.00  0.00     0.003 A 
HETATM   22  C   UNL     1      -6.104   3.979 -32.530  1.00  0.00     0.029 A 
BRANCH  19  23
HETATM   23  C   UNL     1      -2.257   5.211 -34.014  1.00  0.00     0.417 C 
HETATM   24  F   UNL     1      -1.222   4.832 -33.216  1.00  0.00    -0.166 F 
HETATM   25  F   UNL     1      -1.987   4.707 -35.250  1.00  0.00    -0.166 F 
HETATM   26  F   UNL     1      -2.151   6.565 -34.136  1.00  0.00    -0.166 F 
ENDBRANCH  19  23
ENDBRANCH  14  17
ENDBRANCH  12  13
ENDBRANCH  11  12
ENDBRANCH   4  11
BRANCH   8  27
HETATM   27  C   UNL     1     -12.563   2.257 -33.608  1.00  0.00    -0.042 A 
HETATM   28  C   UNL     1     -13.511   2.601 -32.631  1.00  0.00     0.027 A 
HETATM   29  C   UNL     1     -14.743   1.968 -32.645  1.00  0.00     0.116 A 
HETATM   30  N   UNL     1     -15.093   1.038 -33.555  1.00  0.00    -0.273 NA
HETATM   31  C   UNL     1     -14.165   0.699 -34.474  1.00  0.00     0.116 A 
HETATM   32  C   UNL     1     -12.903   1.266 -34.538  1.00  0.00     0.027 A 
ENDBRANCH   8  27
BRANCH   9  33
HETATM   33  C   UNL     1      -9.520   1.030 -32.951  1.00  0.00     0.255 C 
HETATM   34  N   UNL     1      -8.232   1.154 -33.420  1.00  0.00    -0.323 N 
HETATM   35  H   UNL     1      -7.862   2.080 -33.578  1.00  0.00     0.169 HD
HETATM   36  O   UNL     1     -10.093  -0.032 -32.724  1.00  0.00    -0.268 OA
BRANCH  34  37
HETATM   37  C   UNL     1      -7.320   0.109 -33.690  1.00  0.00     0.035 A 
HETATM   38  C   UNL     1      -7.372  -0.706 -34.823  1.00  0.00     0.029 A 
HETATM   39  C   UNL     1      -6.439  -1.732 -35.004  1.00  0.00     0.002 A 
HETATM   40  C   UNL     1      -5.451  -1.960 -34.050  1.00  0.00     0.000 A 
HETATM   41  C   UNL     1      -5.387  -1.152 -32.918  1.00  0.00     0.002 A 
HETATM   42  C   UNL     1      -6.310  -0.117 -32.744  1.00  0.00     0.029 A 
ENDBRANCH  34  37
ENDBRANCH   9  33
TORSDOF 8
ENDMDL
MODEL 5
REMARK VINA RESULT:      -9.4      3.160      5.452
REMARK  8 active torsions:
REMARK  status: ('A' for Active; 'I' for Inactive)
REMARK    1  A    between atoms: C_4  and  S_5 
REMARK    2  A    between atoms: S_5  and  C_6 
REMARK    3  A    between atoms: C_6  and  C_7 
REMARK       I    between atoms: C_7  and  N_8 
REMARK    4  A    between atoms: N_8  and  C_9 
REMARK    5  A    between atoms: C_11  and  C_12 
REMARK    6  A    between atoms: C_23  and  C_24 
REMARK    7  A    between atoms: C_30  and  C_31 
REMARK       I    between atoms: C_31  and  N_32 
REMARK    8  A    between atoms: N_32  and  C_33 
ROOT
HETATM    1  C   UNL     1      -9.721   5.630 -34.748  1.00  0.00     0.069 C 
HETATM    2  C   UNL     1      -8.701   4.901 -33.906  1.00  0.00     0.019 C 
HETATM    3  N   UNL     1      -7.468   5.528 -33.796  1.00  0.00    -0.353 N 
HETATM    4  C   UNL     1      -6.477   5.161 -32.905  1.00  0.00     0.087 C 
HETATM    5  C   UNL     1      -6.572   3.964 -32.281  1.00  0.00     0.055 C 
HETATM    6  C   UNL     1      -5.445   3.415 -31.420  1.00  0.00     0.019 C 
HETATM    7  N   UNL     1      -4.511   2.960 -30.707  1.00  0.00    -0.096 N 
HETATM    8  C   UNL     1      -7.787   3.057 -32.486  1.00  0.00     0.104 C 
HETATM    9  C   UNL     1      -8.923   3.730 -33.261  1.00  0.00     0.046 C 
HETATM   10  H   UNL     1      -7.429   6.504 -34.089  1.00  0.00     0.166 HD
ENDROOT
BRANCH   4  11
HETATM   11  S   UNL     1      -5.228   6.317 -32.497  1.00  0.00    -0.102 SA
BRANCH  11  12
HETATM   12  C   UNL     1      -3.870   5.855 -33.619  1.00  0.00     0.184 C 
BRANCH  12  13
HETATM   13  C   UNL     1      -2.488   5.952 -32.959  1.00  0.00     0.231 C 
HETATM   14  N   UNL     1      -2.497   5.983 -31.577  1.00  0.00    -0.327 N 
HETATM   15  H   UNL     1      -3.420   5.999 -31.156  1.00  0.00     0.169 HD
HETATM   16  O   UNL     1      -1.482   5.985 -33.665  1.00  0.00    -0.272 OA
BRANCH  14  17
HETATM   17  C   UNL     1      -1.410   6.033 -30.683  1.00  0.00     0.035 A 
HETATM   18  C   UNL     1      -1.126   7.121 -29.856  1.00  0.00     0.045 A 
HETATM   19  C   UNL     1      -0.008   7.099 -29.001  1.00  0.00     0.050 A 
HETATM   20  C   UNL     1       0.810   5.960 -28.969  1.00  0.00     0.016 A 
HETATM   21  C   UNL     1       0.531   4.872 -29.792  1.00  0.00     0.003 A 
HETATM   22  C   UNL     1      -0.569   4.914 -30.649  1.00  0.00     0.029 A 
BRANCH  19  23
HETATM   23  C   UNL     1       0.296   8.271 -28.100  1.00  0.00     0.417 C 
HETATM   24  F   UNL     1       1.583   8.707 -28.181  1.00  0.00    -0.166 F 
HETATM   25  F   UNL     1      -0.487   9.351 -28.372  1.00  0.00    -0.166 F 
HETATM   26  F   UNL     1       0.087   7.986 -26.782  1.00  0.00    -0.166 F 
ENDBRANCH  19  23
ENDBRANCH  14  17
ENDBRANCH  12  13
ENDBRANCH  11  12
ENDBRANCH   4  11
BRANCH   8  27
HETATM   27  C   UNL     1      -7.353   1.725 -33.096  1.00  0.00    -0.042 A 
HETATM   28  C   UNL     1      -7.074   1.642 -34.469  1.00  0.00     0.027 A 
HETATM   29  C   UNL     1      -6.686   0.423 -34.999  1.00  0.00     0.116 A 
HETATM   30  N   UNL     1      -6.551  -0.700 -34.265  1.00  0.00    -0.273 NA
HETATM   31  C   UNL     1      -6.846  -0.613 -32.951  1.00  0.00     0.116 A 
HETATM   32  C   UNL     1      -7.251   0.558 -32.329  1.00  0.00     0.027 A 
ENDBRANCH   8  27
BRANCH   9  33
HETATM   33  C   UNL     1     -10.335   3.245 -33.082  1.00  0.00     0.255 C 
HETATM   34  N   UNL     1     -10.766   2.319 -34.005  1.00  0.00    -0.323 N 
HETATM   35  H   UNL     1     -10.155   2.080 -34.772  1.00  0.00     0.169 HD
HETATM   36  O   UNL     1     -10.978   3.630 -32.110  1.00  0.00    -0.268 OA
BRANCH  34  37
HETATM   37  C   UNL     1     -11.991   1.615 -33.996  1.00  0.00     0.035 A 
HETATM   38  C   UNL     1     -13.220   2.171 -34.359  1.00  0.00     0.029 A 
HETATM   39  C   UNL     1     -14.390   1.408 -34.304  1.00  0.00     0.002 A 
HETATM   40  C   UNL     1     -14.345   0.084 -33.876  1.00  0.00     0.000 A 
HETATM   41  C   UNL     1     -13.126  -0.483 -33.514  1.00  0.00     0.002 A 
HETATM   42  C   UNL     1     -11.954   0.276 -33.584  1.00  0.00     0.029 A 
ENDBRANCH  34  37
ENDBRANCH   9  33
TORSDOF 8
ENDMDL
MODEL 6
REMARK VINA RESULT:      -9.4      3.194      4.506
REMARK  8 active torsions:
REMARK  status: ('A' for Active; 'I' for Inactive)
REMARK    1  A    between atoms: C_4  and  S_5 
REMARK    2  A    between atoms: S_5  and  C_6 
REMARK    3  A    between atoms: C_6  and  C_7 
REMARK       I    between atoms: C_7  and  N_8 
REMARK    4  A    between atoms: N_8  and  C_9 
REMARK    5  A    between atoms: C_11  and  C_12 
REMARK    6  A    between atoms: C_23  and  C_24 
REMARK    7  A    between atoms: C_30  and  C_31 
REMARK       I    between atoms: C_31  and  N_32 
REMARK    8  A    between atoms: N_32  and  C_33 
ROOT
HETATM    1  C   UNL     1      -6.088   0.835 -29.622  1.00  0.00     0.069 C 
HETATM    2  C   UNL     1      -6.870   1.858 -30.411  1.00  0.00     0.019 C 
HETATM    3  N   UNL     1      -7.399   2.901 -29.665  1.00  0.00    -0.353 N 
HETATM    4  C   UNL     1      -7.947   4.051 -30.202  1.00  0.00     0.087 C 
HETATM    5  C   UNL     1      -8.247   4.077 -31.521  1.00  0.00     0.055 C 
HETATM    6  C   UNL     1      -9.004   5.236 -32.150  1.00  0.00     0.019 C 
HETATM    7  N   UNL     1      -9.632   6.196 -32.672  1.00  0.00    -0.096 N 
HETATM    8  C   UNL     1      -7.919   2.892 -32.431  1.00  0.00     0.104 C 
HETATM    9  C   UNL     1      -7.054   1.827 -31.753  1.00  0.00     0.046 C 
HETATM   10  H   UNL     1      -7.035   3.012 -28.719  1.00  0.00     0.166 HD
ENDROOT
BRANCH   4  11
HETATM   11  S   UNL     1      -8.083   5.478 -29.198  1.00  0.00    -0.102 SA
BRANCH  11  12
HETATM   12  C   UNL     1      -6.835   6.595 -29.914  1.00  0.00     0.184 C 
BRANCH  12  13
HETATM   13  C   UNL     1      -5.447   5.948 -30.028  1.00  0.00     0.231 C 
HETATM   14  N   UNL     1      -4.686   6.375 -31.099  1.00  0.00    -0.327 N 
HETATM   15  H   UNL     1      -5.153   7.023 -31.724  1.00  0.00     0.169 HD
HETATM   16  O   UNL     1      -5.093   5.124 -29.187  1.00  0.00    -0.272 OA
BRANCH  14  17
HETATM   17  C   UNL     1      -3.375   6.008 -31.459  1.00  0.00     0.035 A 
HETATM   18  C   UNL     1      -2.225   6.502 -30.840  1.00  0.00     0.045 A 
HETATM   19  C   UNL     1      -0.948   6.098 -31.272  1.00  0.00     0.050 A 
HETATM   20  C   UNL     1      -0.839   5.171 -32.319  1.00  0.00     0.016 A 
HETATM   21  C   UNL     1      -1.982   4.674 -32.939  1.00  0.00     0.003 A 
HETATM   22  C   UNL     1      -3.241   5.097 -32.515  1.00  0.00     0.029 A 
BRANCH  19  23
HETATM   23  C   UNL     1       0.296   6.625 -30.598  1.00  0.00     0.417 C 
HETATM   24  F   UNL     1       0.061   7.657 -29.742  1.00  0.00    -0.166 F 
HETATM   25  F   UNL     1       0.935   5.668 -29.871  1.00  0.00    -0.166 F 
HETATM   26  F   UNL     1       1.217   7.089 -31.490  1.00  0.00    -0.166 F 
ENDBRANCH  19  23
ENDBRANCH  14  17
ENDBRANCH  12  13
ENDBRANCH  11  12
ENDBRANCH   4  11
BRANCH   8  27
HETATM   27  C   UNL     1      -9.201   2.324 -33.039  1.00  0.00    -0.042 A 
HETATM   28  C   UNL     1      -9.755   1.142 -32.525  1.00  0.00     0.027 A 
HETATM   29  C   UNL     1     -10.915   0.646 -33.095  1.00  0.00     0.116 A 
HETATM   30  N   UNL     1     -11.556   1.241 -34.121  1.00  0.00    -0.273 NA
HETATM   31  C   UNL     1     -11.000   2.364 -34.623  1.00  0.00     0.116 A 
HETATM   32  C   UNL     1      -9.837   2.933 -34.128  1.00  0.00     0.027 A 
ENDBRANCH   8  27
BRANCH   9  33
HETATM   33  C   UNL     1      -6.195   0.921 -32.592  1.00  0.00     0.255 C 
HETATM   34  N   UNL     1      -6.552  -0.409 -32.586  1.00  0.00    -0.323 N 
HETATM   35  H   UNL     1      -7.301  -0.706 -31.978  1.00  0.00     0.169 HD
HETATM   36  O   UNL     1      -5.301   1.412 -33.275  1.00  0.00    -0.268 OA
BRANCH  34  37
HETATM   37  C   UNL     1      -5.999  -1.442 -33.375  1.00  0.00     0.035 A 
HETATM   38  C   UNL     1      -4.644  -1.781 -33.388  1.00  0.00     0.029 A 
HETATM   39  C   UNL     1      -4.175  -2.808 -34.213  1.00  0.00     0.002 A 
HETATM   40  C   UNL     1      -5.056  -3.499 -35.041  1.00  0.00     0.000 A 
HETATM   41  C   UNL     1      -6.408  -3.173 -35.035  1.00  0.00     0.002 A 
HETATM   42  C   UNL     1      -6.879  -2.157 -34.199  1.00  0.00     0.029 A 
ENDBRANCH  34  37
ENDBRANCH   9  33
TORSDOF 8
ENDMDL
MODEL 7
REMARK VINA RESULT:      -9.4      3.465      5.030
REMARK  8 active torsions:
REMARK  status: ('A' for Active; 'I' for Inactive)
REMARK    1  A    between atoms: C_4  and  S_5 
REMARK    2  A    between atoms: S_5  and  C_6 
REMARK    3  A    between atoms: C_6  and  C_7 
REMARK       I    between atoms: C_7  and  N_8 
REMARK    4  A    between atoms: N_8  and  C_9 
REMARK    5  A    between atoms: C_11  and  C_12 
REMARK    6  A    between atoms: C_23  and  C_24 
REMARK    7  A    between atoms: C_30  and  C_31 
REMARK       I    between atoms: C_31  and  N_32 
REMARK    8  A    between atoms: N_32  and  C_33 
ROOT
HETATM    1  C   UNL     1      -7.089   2.309 -30.322  1.00  0.00     0.069 C 
HETATM    2  C   UNL     1      -7.821   2.992 -31.452  1.00  0.00     0.019 C 
HETATM    3  N   UNL     1      -7.912   4.372 -31.348  1.00  0.00    -0.353 N 
HETATM    4  C   UNL     1      -8.332   5.210 -32.364  1.00  0.00     0.087 C 
HETATM    5  C   UNL     1      -8.954   4.672 -33.439  1.00  0.00     0.055 C 
HETATM    6  C   UNL     1      -9.594   5.536 -34.513  1.00  0.00     0.019 C 
HETATM    7  N   UNL     1     -10.125   6.252 -35.404  1.00  0.00    -0.096 N 
HETATM    8  C   UNL     1      -9.125   3.157 -33.579  1.00  0.00     0.104 C 
HETATM    9  C   UNL     1      -8.352   2.359 -32.527  1.00  0.00     0.046 C 
HETATM   10  H   UNL     1      -7.299   4.816 -30.665  1.00  0.00     0.166 HD
ENDROOT
BRANCH   4  11
HETATM   11  S   UNL     1      -7.905   6.906 -32.301  1.00  0.00    -0.102 SA
BRANCH  11  12
HETATM   12  C   UNL     1      -6.835   6.996 -30.830  1.00  0.00     0.184 C 
BRANCH  12  13
HETATM   13  C   UNL     1      -5.480   6.304 -31.031  1.00  0.00     0.231 C 
HETATM   14  N   UNL     1      -4.679   6.854 -32.013  1.00  0.00    -0.327 N 
HETATM   15  H   UNL     1      -5.101   7.617 -32.531  1.00  0.00     0.169 HD
HETATM   16  O   UNL     1      -5.183   5.340 -30.327  1.00  0.00    -0.272 OA
BRANCH  14  17
HETATM   17  C   UNL     1      -3.381   6.480 -32.413  1.00  0.00     0.035 A 
HETATM   18  C   UNL     1      -2.267   6.498 -31.572  1.00  0.00     0.045 A 
HETATM   19  C   UNL     1      -0.998   6.126 -32.055  1.00  0.00     0.050 A 
HETATM   20  C   UNL     1      -0.866   5.710 -33.389  1.00  0.00     0.016 A 
HETATM   21  C   UNL     1      -1.974   5.690 -34.231  1.00  0.00     0.003 A 
HETATM   22  C   UNL     1      -3.222   6.080 -33.746  1.00  0.00     0.029 A 
BRANCH  19  23
HETATM   23  C   UNL     1       0.206   6.136 -31.146  1.00  0.00     0.417 C 
HETATM   24  F   UNL     1      -0.097   6.344 -29.835  1.00  0.00    -0.166 F 
HETATM   25  F   UNL     1       0.900   4.966 -31.192  1.00  0.00    -0.166 F 
HETATM   26  F   UNL     1       1.102   7.111 -31.475  1.00  0.00    -0.166 F 
ENDBRANCH  19  23
ENDBRANCH  14  17
ENDBRANCH  12  13
ENDBRANCH  11  12
ENDBRANCH   4  11
BRANCH   8  27
HETATM   27  C   UNL     1     -10.609   2.798 -33.630  1.00  0.00    -0.042 A 
HETATM   28  C   UNL     1     -11.082   1.913 -34.612  1.00  0.00     0.027 A 
HETATM   29  C   UNL     1     -12.432   1.606 -34.639  1.00  0.00     0.116 A 
HETATM   30  N   UNL     1     -13.328   2.106 -33.766  1.00  0.00    -0.273 NA
HETATM   31  C   UNL     1     -12.866   2.974 -32.842  1.00  0.00     0.116 A 
HETATM   32  C   UNL     1     -11.537   3.352 -32.738  1.00  0.00     0.027 A 
ENDBRANCH   8  27
BRANCH   9  33
HETATM   33  C   UNL     1      -7.946   0.941 -32.819  1.00  0.00     0.255 C 
HETATM   34  N   UNL     1      -6.758   0.790 -33.497  1.00  0.00    -0.323 N 
HETATM   35  H   UNL     1      -6.276   1.617 -33.818  1.00  0.00     0.169 HD
HETATM   36  O   UNL     1      -8.636   0.023 -32.383  1.00  0.00    -0.268 OA
BRANCH  34  37
HETATM   37  C   UNL     1      -6.090  -0.421 -33.786  1.00  0.00     0.035 A 
HETATM   38  C   UNL     1      -6.514  -1.342 -34.747  1.00  0.00     0.029 A 
HETATM   39  C   UNL     1      -5.803  -2.528 -34.957  1.00  0.00     0.002 A 
HETATM   40  C   UNL     1      -4.668  -2.809 -34.202  1.00  0.00     0.000 A 
HETATM   41  C   UNL     1      -4.234  -1.898 -33.244  1.00  0.00     0.002 A 
HETATM   42  C   UNL     1      -4.935  -0.705 -33.044  1.00  0.00     0.029 A 
ENDBRANCH  34  37
ENDBRANCH   9  33
TORSDOF 8
ENDMDL
MODEL 8
REMARK VINA RESULT:      -9.1      3.505      5.207
REMARK  8 active torsions:
REMARK  status: ('A' for Active; 'I' for Inactive)
REMARK    1  A    between atoms: C_4  and  S_5 
REMARK    2  A    between atoms: S_5  and  C_6 
REMARK    3  A    between atoms: C_6  and  C_7 
REMARK       I    between atoms: C_7  and  N_8 
REMARK    4  A    between atoms: N_8  and  C_9 
REMARK    5  A    between atoms: C_11  and  C_12 
REMARK    6  A    between atoms: C_23  and  C_24 
REMARK    7  A    between atoms: C_30  and  C_31 
REMARK       I    between atoms: C_31  and  N_32 
REMARK    8  A    between atoms: N_32  and  C_33 
ROOT
HETATM    1  C   UNL     1      -9.348   2.063 -34.513  1.00  0.00     0.069 C 
HETATM    2  C   UNL     1      -8.332   2.523 -33.495  1.00  0.00     0.019 C 
HETATM    3  N   UNL     1      -8.801   3.437 -32.563  1.00  0.00    -0.353 N 
HETATM    4  C   UNL     1      -8.118   3.812 -31.420  1.00  0.00     0.087 C 
HETATM    5  C   UNL     1      -6.807   3.501 -31.310  1.00  0.00     0.055 C 
HETATM    6  C   UNL     1      -5.949   4.023 -30.169  1.00  0.00     0.019 C 
HETATM    7  N   UNL     1      -5.237   4.456 -29.223  1.00  0.00    -0.096 N 
HETATM    8  C   UNL     1      -6.096   2.677 -32.387  1.00  0.00     0.104 C 
HETATM    9  C   UNL     1      -7.048   2.091 -33.431  1.00  0.00     0.046 C 
HETATM   10  H   UNL     1      -9.812   3.542 -32.501  1.00  0.00     0.166 HD
ENDROOT
BRANCH   4  11
HETATM   11  S   UNL     1      -9.009   4.531 -30.096  1.00  0.00    -0.102 SA
BRANCH  11  12
HETATM   12  C   UNL     1      -8.973   6.306 -30.504  1.00  0.00     0.184 C 
BRANCH  12  13
HETATM   13  C   UNL     1      -7.674   6.996 -30.065  1.00  0.00     0.231 C 
HETATM   14  N   UNL     1      -6.771   7.249 -31.080  1.00  0.00    -0.327 N 
HETATM   15  H   UNL     1      -7.044   6.896 -31.992  1.00  0.00     0.169 HD
HETATM   16  O   UNL     1      -7.513   7.287 -28.882  1.00  0.00    -0.272 OA
BRANCH  14  17
HETATM   17  C   UNL     1      -5.520   7.892 -31.016  1.00  0.00     0.035 A 
HETATM   18  C   UNL     1      -4.295   7.237 -31.162  1.00  0.00     0.045 A 
HETATM   19  C   UNL     1      -3.086   7.951 -31.066  1.00  0.00     0.050 A 
HETATM   20  C   UNL     1      -3.121   9.336 -30.848  1.00  0.00     0.016 A 
HETATM   21  C   UNL     1      -4.339   9.993 -30.703  1.00  0.00     0.003 A 
HETATM   22  C   UNL     1      -5.531   9.272 -30.780  1.00  0.00     0.029 A 
BRANCH  19  23
HETATM   23  C   UNL     1      -1.761   7.246 -31.231  1.00  0.00     0.417 C 
HETATM   24  F   UNL     1      -1.781   5.942 -30.844  1.00  0.00    -0.166 F 
HETATM   25  F   UNL     1      -1.329   7.252 -32.522  1.00  0.00    -0.166 F 
HETATM   26  F   UNL     1      -0.764   7.830 -30.506  1.00  0.00    -0.166 F 
ENDBRANCH  19  23
ENDBRANCH  14  17
ENDBRANCH  12  13
ENDBRANCH  11  12
ENDBRANCH   4  11
BRANCH   8  27
HETATM   27  C   UNL     1      -4.958   3.489 -33.005  1.00  0.00    -0.042 A 
HETATM   28  C   UNL     1      -3.631   3.236 -32.625  1.00  0.00     0.027 A 
HETATM   29  C   UNL     1      -2.618   3.988 -33.197  1.00  0.00     0.116 A 
HETATM   30  N   UNL     1      -2.832   4.954 -34.112  1.00  0.00    -0.273 NA
HETATM   31  C   UNL     1      -4.114   5.205 -34.451  1.00  0.00     0.116 A 
HETATM   32  C   UNL     1      -5.196   4.514 -33.929  1.00  0.00     0.027 A 
ENDBRANCH   8  27
BRANCH   9  33
HETATM   33  C   UNL     1      -6.649   0.857 -34.193  1.00  0.00     0.255 C 
HETATM   34  N   UNL     1      -6.285  -0.225 -33.423  1.00  0.00    -0.323 N 
HETATM   35  H   UNL     1      -6.235  -0.111 -32.421  1.00  0.00     0.169 HD
HETATM   36  O   UNL     1      -6.741   0.858 -35.417  1.00  0.00    -0.268 OA
BRANCH  34  37
HETATM   37  C   UNL     1      -5.990  -1.530 -33.875  1.00  0.00     0.035 A 
HETATM   38  C   UNL     1      -4.697  -2.043 -34.005  1.00  0.00     0.029 A 
HETATM   39  C   UNL     1      -4.491  -3.343 -34.479  1.00  0.00     0.002 A 
HETATM   40  C   UNL     1      -5.576  -4.139 -34.837  1.00  0.00     0.000 A 
HETATM   41  C   UNL     1      -6.869  -3.640 -34.709  1.00  0.00     0.002 A 
HETATM   42  C   UNL     1      -7.075  -2.347 -34.221  1.00  0.00     0.029 A 
ENDBRANCH  34  37
ENDBRANCH   9  33
TORSDOF 8
ENDMDL
MODEL 9
REMARK VINA RESULT:      -9.0      5.172      9.616
REMARK  8 active torsions:
REMARK  status: ('A' for Active; 'I' for Inactive)
REMARK    1  A    between atoms: C_4  and  S_5 
REMARK    2  A    between atoms: S_5  and  C_6 
REMARK    3  A    between atoms: C_6  and  C_7 
REMARK       I    between atoms: C_7  and  N_8 
REMARK    4  A    between atoms: N_8  and  C_9 
REMARK    5  A    between atoms: C_11  and  C_12 
REMARK    6  A    between atoms: C_23  and  C_24 
REMARK    7  A    between atoms: C_30  and  C_31 
REMARK       I    between atoms: C_31  and  N_32 
REMARK    8  A    between atoms: N_32  and  C_33 
ROOT
HETATM    1  C   UNL     1      -4.857   4.795 -34.598  1.00  0.00     0.069 C 
HETATM    2  C   UNL     1      -5.915   4.682 -33.526  1.00  0.00     0.019 C 
HETATM    3  N   UNL     1      -7.212   4.520 -33.991  1.00  0.00    -0.353 N 
HETATM    4  C   UNL     1      -8.291   4.172 -33.200  1.00  0.00     0.087 C 
HETATM    5  C   UNL     1      -8.168   4.253 -31.855  1.00  0.00     0.055 C 
HETATM    6  C   UNL     1      -9.354   4.053 -30.926  1.00  0.00     0.019 C 
HETATM    7  N   UNL     1     -10.338   3.888 -30.155  1.00  0.00    -0.096 N 
HETATM    8  C   UNL     1      -6.839   4.643 -31.204  1.00  0.00     0.104 C 
HETATM    9  C   UNL     1      -5.674   4.706 -32.193  1.00  0.00     0.046 C 
HETATM   10  H   UNL     1      -7.312   4.266 -34.973  1.00  0.00     0.166 HD
ENDROOT
BRANCH   4  11
HETATM   11  S   UNL     1      -9.716   3.492 -33.955  1.00  0.00    -0.102 SA
BRANCH  11  12
HETATM   12  C   UNL     1      -9.611   1.732 -33.500  1.00  0.00     0.184 C 
BRANCH  12  13
HETATM   13  C   UNL     1      -8.261   1.098 -33.865  1.00  0.00     0.231 C 
HETATM   14  N   UNL     1      -7.715   0.279 -32.895  1.00  0.00    -0.327 N 
HETATM   15  H   UNL     1      -8.239   0.237 -32.027  1.00  0.00     0.169 HD
HETATM   16  O   UNL     1      -7.760   1.332 -34.963  1.00  0.00    -0.272 OA
BRANCH  14  17
HETATM   17  C   UNL     1      -6.523  -0.469 -32.932  1.00  0.00     0.035 A 
HETATM   18  C   UNL     1      -6.317  -1.573 -33.761  1.00  0.00     0.045 A 
HETATM   19  C   UNL     1      -5.100  -2.280 -33.726  1.00  0.00     0.050 A 
HETATM   20  C   UNL     1      -4.080  -1.848 -32.864  1.00  0.00     0.016 A 
HETATM   21  C   UNL     1      -4.280  -0.747 -32.036  1.00  0.00     0.003 A 
HETATM   22  C   UNL     1      -5.498  -0.067 -32.066  1.00  0.00     0.029 A 
BRANCH  19  23
HETATM   23  C   UNL     1      -4.873  -3.469 -34.627  1.00  0.00     0.417 C 
HETATM   24  F   UNL     1      -4.988  -3.183 -35.952  1.00  0.00    -0.166 F 
HETATM   25  F   UNL     1      -3.636  -4.013 -34.463  1.00  0.00    -0.166 F 
HETATM   26  F   UNL     1      -5.756  -4.481 -34.390  1.00  0.00    -0.166 F 
ENDBRANCH  19  23
ENDBRANCH  14  17
ENDBRANCH  12  13
ENDBRANCH  11  12
ENDBRANCH   4  11
BRANCH   8  27
HETATM   27  C   UNL     1      -7.007   5.928 -30.394  1.00  0.00    -0.042 A 
HETATM   28  C   UNL     1      -7.247   7.144 -31.052  1.00  0.00     0.027 A 
HETATM   29  C   UNL     1      -7.392   8.295 -30.296  1.00  0.00     0.116 A 
HETATM   30  N   UNL     1      -7.324   8.317 -28.950  1.00  0.00    -0.273 NA
HETATM   31  C   UNL     1      -7.069   7.145 -28.330  1.00  0.00     0.116 A 
HETATM   32  C   UNL     1      -6.900   5.943 -28.997  1.00  0.00     0.027 A 
ENDBRANCH   8  27
BRANCH   9  33
HETATM   33  C   UNL     1      -4.266   4.518 -31.697  1.00  0.00     0.255 C 
HETATM   34  N   UNL     1      -3.491   5.656 -31.666  1.00  0.00    -0.323 N 
HETATM   35  H   UNL     1      -3.874   6.513 -32.038  1.00  0.00     0.169 HD
HETATM   36  O   UNL     1      -3.921   3.413 -31.287  1.00  0.00    -0.268 OA
BRANCH  34  37
HETATM   37  C   UNL     1      -2.188   5.784 -31.134  1.00  0.00     0.035 A 
HETATM   38  C   UNL     1      -1.048   5.209 -31.700  1.00  0.00     0.029 A 
HETATM   39  C   UNL     1       0.203   5.370 -31.097  1.00  0.00     0.002 A 
HETATM   40  C   UNL     1       0.326   6.099 -29.917  1.00  0.00     0.000 A 
HETATM   41  C   UNL     1      -0.802   6.679 -29.345  1.00  0.00     0.002 A 
HETATM   42  C   UNL     1      -2.051   6.531 -29.956  1.00  0.00     0.029 A 
ENDBRANCH  34  37
ENDBRANCH   9  33
TORSDOF 8
ENDMDL
MODEL 10
REMARK VINA RESULT:      -9.0      2.612      4.310
REMARK  8 active torsions:
REMARK  status: ('A' for Active; 'I' for Inactive)
REMARK    1  A    between atoms: C_4  and  S_5 
REMARK    2  A    between atoms: S_5  and  C_6 
REMARK    3  A    between atoms: C_6  and  C_7 
REMARK       I    between atoms: C_7  and  N_8 
REMARK    4  A    between atoms: N_8  and  C_9 
REMARK    5  A    between atoms: C_11  and  C_12 
REMARK    6  A    between atoms: C_23  and  C_24 
REMARK    7  A    between atoms: C_30  and  C_31 
REMARK       I    between atoms: C_31  and  N_32 
REMARK    8  A    between atoms: N_32  and  C_33 
ROOT
HETATM    1  C   UNL     1      -8.123   2.646 -31.149  1.00  0.00     0.069 C 
HETATM    2  C   UNL     1      -6.878   3.496 -31.051  1.00  0.00     0.019 C 
HETATM    3  N   UNL     1      -7.068   4.761 -30.517  1.00  0.00    -0.353 N 
HETATM    4  C   UNL     1      -6.047   5.610 -30.129  1.00  0.00     0.087 C 
HETATM    5  C   UNL     1      -4.784   5.337 -30.528  1.00  0.00     0.055 C 
HETATM    6  C   UNL     1      -3.638   6.307 -30.289  1.00  0.00     0.019 C 
HETATM    7  N   UNL     1      -2.687   7.111 -30.091  1.00  0.00    -0.096 N 
HETATM    8  C   UNL     1      -4.462   4.072 -31.328  1.00  0.00     0.104 C 
HETATM    9  C   UNL     1      -5.636   3.097 -31.420  1.00  0.00     0.046 C 
HETATM   10  H   UNL     1      -7.952   4.923 -30.037  1.00  0.00     0.166 HD
ENDROOT
BRANCH   4  11
HETATM   11  S   UNL     1      -6.399   6.909 -29.010  1.00  0.00    -0.102 SA
BRANCH  11  12
HETATM   12  C   UNL     1      -5.434   6.444 -27.537  1.00  0.00     0.184 C 
BRANCH  12  13
HETATM   13  C   UNL     1      -4.421   7.520 -27.121  1.00  0.00     0.231 C 
HETATM   14  N   UNL     1      -3.263   7.043 -26.537  1.00  0.00    -0.327 N 
HETATM   15  H   UNL     1      -3.239   6.039 -26.394  1.00  0.00     0.169 HD
HETATM   16  O   UNL     1      -4.676   8.705 -27.330  1.00  0.00    -0.272 OA
BRANCH  14  17
HETATM   17  C   UNL     1      -2.138   7.758 -26.083  1.00  0.00     0.035 A 
HETATM   18  C   UNL     1      -0.857   7.627 -26.623  1.00  0.00     0.045 A 
HETATM   19  C   UNL     1       0.220   8.366 -26.099  1.00  0.00     0.050 A 
HETATM   20  C   UNL     1      -0.008   9.258 -25.041  1.00  0.00     0.016 A 
HETATM   21  C   UNL     1      -1.283   9.392 -24.499  1.00  0.00     0.003 A 
HETATM   22  C   UNL     1      -2.340   8.640 -25.014  1.00  0.00     0.029 A 
BRANCH  19  23
HETATM   23  C   UNL     1       1.604   8.232 -26.687  1.00  0.00     0.417 C 
HETATM   24  F   UNL     1       2.591   8.719 -25.885  1.00  0.00    -0.166 F 
HETATM   25  F   UNL     1       1.933   6.937 -26.947  1.00  0.00    -0.166 F 
HETATM   26  F   UNL     1       1.735   8.892 -27.873  1.00  0.00    -0.166 F 
ENDBRANCH  19  23
ENDBRANCH  14  17
ENDBRANCH  12  13
ENDBRANCH  11  12
ENDBRANCH   4  11
BRANCH   8  27
HETATM   27  C   UNL     1      -3.885   4.445 -32.693  1.00  0.00    -0.042 A 
HETATM   28  C   UNL     1      -2.498   4.403 -32.902  1.00  0.00     0.027 A 
HETATM   29  C   UNL     1      -2.000   4.749 -34.148  1.00  0.00     0.116 A 
HETATM   30  N   UNL     1      -2.777   5.121 -35.185  1.00  0.00    -0.273 NA
HETATM   31  C   UNL     1      -4.108   5.180 -34.964  1.00  0.00     0.116 A 
HETATM   32  C   UNL     1      -4.701   4.863 -33.752  1.00  0.00     0.027 A 
ENDBRANCH   8  27
BRANCH   9  33
HETATM   33  C   UNL     1      -5.373   1.634 -31.652  1.00  0.00     0.255 C 
HETATM   34  N   UNL     1      -5.775   1.145 -32.874  1.00  0.00    -0.323 N 
HETATM   35  H   UNL     1      -6.278   1.758 -33.499  1.00  0.00     0.169 HD
HETATM   36  O   UNL     1      -4.763   0.996 -30.798  1.00  0.00    -0.268 OA
BRANCH  34  37
HETATM   37  C   UNL     1      -5.538  -0.147 -33.394  1.00  0.00     0.035 A 
HETATM   38  C   UNL     1      -4.304  -0.799 -33.347  1.00  0.00     0.029 A 
HETATM   39  C   UNL     1      -4.151  -2.073 -33.902  1.00  0.00     0.002 A 
HETATM   40  C   UNL     1      -5.228  -2.704 -34.519  1.00  0.00     0.000 A 
HETATM   41  C   UNL     1      -6.464  -2.066 -34.570  1.00  0.00     0.002 A 
HETATM   42  C   UNL     1      -6.621  -0.799 -34.001  1.00  0.00     0.029 A 
ENDBRANCH  34  37
ENDBRANCH   9  33
TORSDOF 8
ENDMDL
