MODEL 1
REMARK VINA RESULT:      -7.5      0.000      0.000
REMARK  5 active torsions:
REMARK  status: ('A' for Active; 'I' for Inactive)
REMARK    1  A    between atoms: C_2  and  O_3 
REMARK    2  A    between atoms: C_4  and  C_5 
REMARK    3  A    between atoms: C_5  and  O_6 
REMARK    4  A    between atoms: C_9  and  C_10 
REMARK    5  A    between atoms: C_22  and  O_23 
ROOT
HETATM    1  C   UNL     1      -7.199   4.770 -32.184  1.00  0.00     0.047 C 
HETATM    2  C   UNL     1      -7.268   3.264 -32.511  1.00  0.00     0.073 C 
HETATM    3  C   UNL     1      -6.023   2.732 -33.332  1.00  0.00     0.133 C 
HETATM    4  C   UNL     1      -5.250   1.481 -32.820  1.00  0.00     0.074 C 
HETATM    5  C   UNL     1      -5.486   1.204 -31.387  1.00  0.00     0.030 A 
HETATM    6  C   UNL     1      -6.557   1.690 -30.678  1.00  0.00     0.042 A 
HETATM    7  N   UNL     1      -6.418   1.246 -29.394  1.00  0.00    -0.279 N 
HETATM    8  H   UNL     1      -7.025   1.406 -28.596  1.00  0.00     0.189 HD
HETATM    9  N   UNL     1      -5.308   0.498 -29.218  1.00  0.00    -0.149 NA
HETATM   10  C   UNL     1      -4.764   0.497 -30.428  1.00  0.00     0.190 A 
HETATM   11  C   UNL     1      -7.663   2.507 -31.203  1.00  0.00     0.097 C 
ENDROOT
BRANCH   4  12
HETATM   12  C   UNL     1      -5.630   0.213 -33.582  1.00  0.00    -0.047 A 
HETATM   13  C   UNL     1      -4.865  -0.965 -33.550  1.00  0.00     0.027 A 
HETATM   14  C   UNL     1      -5.289  -2.105 -34.237  1.00  0.00     0.011 A 
HETATM   15 BR   UNL     1      -4.235  -3.673 -34.183  1.00  0.00    -0.051 Br
HETATM   16  C   UNL     1      -6.480  -2.099 -34.959  1.00  0.00     0.019 A 
HETATM   17  C   UNL     1      -7.252  -0.941 -34.998  1.00  0.00     0.002 A 
HETATM   18  C   UNL     1      -6.831   0.203 -34.316  1.00  0.00     0.008 A 
ENDBRANCH   4  12
BRANCH   3  19
HETATM   19  C   UNL     1      -4.970   3.809 -33.524  1.00  0.00     0.266 C 
HETATM   20  O   UNL     1      -4.086   4.075 -32.720  1.00  0.00    -0.265 OA
BRANCH  19  21
HETATM   21  O   UNL     1      -5.140   4.430 -34.724  1.00  0.00    -0.326 OA
HETATM   22  C   UNL     1      -3.985   5.120 -35.201  1.00  0.00     0.213 C 
ENDBRANCH  19  21
ENDBRANCH   3  19
BRANCH   2  23
HETATM   23  O   UNL     1      -8.414   3.169 -33.397  1.00  0.00    -0.389 OA
HETATM   24  H   UNL     1      -9.223   3.308 -32.872  1.00  0.00     0.210 HD
ENDBRANCH   2  23
BRANCH  10  25
HETATM   25  O   UNL     1      -3.622  -0.172 -30.541  1.00  0.00    -0.343 OA
HETATM   26  H   UNL     1      -3.335  -0.007 -31.454  1.00  0.00     0.219 HD
ENDBRANCH  10  25
TORSDOF 5
ENDMDL
MODEL 2
REMARK VINA RESULT:      -7.1      1.795      2.451
REMARK  5 active torsions:
REMARK  status: ('A' for Active; 'I' for Inactive)
REMARK    1  A    between atoms: C_2  and  O_3 
REMARK    2  A    between atoms: C_4  and  C_5 
REMARK    3  A    between atoms: C_5  and  O_6 
REMARK    4  A    between atoms: C_9  and  C_10 
REMARK    5  A    between atoms: C_22  and  O_23 
ROOT
HETATM    1  C   UNL     1      -4.333   6.094 -32.722  1.00  0.00     0.047 C 
HETATM    2  C   UNL     1      -5.160   4.873 -33.172  1.00  0.00     0.073 C 
HETATM    3  C   UNL     1      -4.375   3.501 -33.079  1.00  0.00     0.133 C 
HETATM    4  C   UNL     1      -5.021   2.301 -32.327  1.00  0.00     0.074 C 
HETATM    5  C   UNL     1      -6.094   2.714 -31.397  1.00  0.00     0.030 A 
HETATM    6  C   UNL     1      -6.753   3.917 -31.471  1.00  0.00     0.042 A 
HETATM    7  N   UNL     1      -7.645   3.945 -30.437  1.00  0.00    -0.279 N 
HETATM    8  H   UNL     1      -8.304   4.675 -30.185  1.00  0.00     0.189 HD
HETATM    9  N   UNL     1      -7.604   2.827 -29.682  1.00  0.00    -0.149 NA
HETATM   10  C   UNL     1      -6.659   2.110 -30.275  1.00  0.00     0.190 A 
HETATM   11  C   UNL     1      -6.562   4.965 -32.487  1.00  0.00     0.097 C 
ENDROOT
BRANCH   4  12
HETATM   12  C   UNL     1      -5.637   1.281 -33.283  1.00  0.00    -0.047 A 
HETATM   13  C   UNL     1      -5.197  -0.049 -33.380  1.00  0.00     0.027 A 
HETATM   14  C   UNL     1      -5.829  -0.944 -34.247  1.00  0.00     0.011 A 
HETATM   15 BR   UNL     1      -5.209  -2.726 -34.363  1.00  0.00    -0.051 Br
HETATM   16  C   UNL     1      -6.912  -0.538 -35.023  1.00  0.00     0.019 A 
HETATM   17  C   UNL     1      -7.363   0.775 -34.936  1.00  0.00     0.002 A 
HETATM   18  C   UNL     1      -6.732   1.676 -34.074  1.00  0.00     0.008 A 
ENDBRANCH   4  12
BRANCH   3  19
HETATM   19  C   UNL     1      -3.001   3.677 -32.457  1.00  0.00     0.266 C 
HETATM   20  O   UNL     1      -2.715   3.397 -31.300  1.00  0.00    -0.265 OA
BRANCH  19  21
HETATM   21  O   UNL     1      -2.127   4.180 -33.373  1.00  0.00    -0.326 OA
HETATM   22  C   UNL     1      -1.107   5.012 -32.820  1.00  0.00     0.213 C 
ENDBRANCH  19  21
ENDBRANCH   3  19
BRANCH   2  23
HETATM   23  O   UNL     1      -5.382   5.125 -34.584  1.00  0.00    -0.389 OA
HETATM   24  H   UNL     1      -6.332   5.020 -34.772  1.00  0.00     0.210 HD
ENDBRANCH   2  23
BRANCH  10  25
HETATM   25  O   UNL     1      -6.397   0.935 -29.715  1.00  0.00    -0.343 OA
HETATM   26  H   UNL     1      -6.876   0.293 -30.266  1.00  0.00     0.219 HD
ENDBRANCH  10  25
TORSDOF 5
ENDMDL
MODEL 3
REMARK VINA RESULT:      -7.0      1.998      2.970
REMARK  5 active torsions:
REMARK  status: ('A' for Active; 'I' for Inactive)
REMARK    1  A    between atoms: C_2  and  O_3 
REMARK    2  A    between atoms: C_4  and  C_5 
REMARK    3  A    between atoms: C_5  and  O_6 
REMARK    4  A    between atoms: C_9  and  C_10 
REMARK    5  A    between atoms: C_22  and  O_23 
ROOT
HETATM    1  C   UNL     1      -9.527   3.285 -31.166  1.00  0.00     0.047 C 
HETATM    2  C   UNL     1      -8.513   2.147 -31.406  1.00  0.00     0.073 C 
HETATM    3  C   UNL     1      -8.055   2.009 -32.915  1.00  0.00     0.133 C 
HETATM    4  C   UNL     1      -6.536   1.973 -33.251  1.00  0.00     0.074 C 
HETATM    5  C   UNL     1      -5.693   2.527 -32.170  1.00  0.00     0.030 A 
HETATM    6  C   UNL     1      -6.109   2.666 -30.868  1.00  0.00     0.042 A 
HETATM    7  N   UNL     1      -5.074   3.233 -30.179  1.00  0.00    -0.279 N 
HETATM    8  H   UNL     1      -5.022   3.476 -29.195  1.00  0.00     0.189 HD
HETATM    9  N   UNL     1      -4.001   3.481 -30.961  1.00  0.00    -0.149 NA
HETATM   10  C   UNL     1      -4.404   3.057 -32.151  1.00  0.00     0.190 A 
HETATM   11  C   UNL     1      -7.406   2.254 -30.309  1.00  0.00     0.097 C 
ENDROOT
BRANCH   4  12
HETATM   12  C   UNL     1      -6.034   0.555 -33.517  1.00  0.00    -0.047 A 
HETATM   13  C   UNL     1      -5.009  -0.052 -32.773  1.00  0.00     0.027 A 
HETATM   14  C   UNL     1      -4.623  -1.368 -33.040  1.00  0.00     0.011 A 
HETATM   15 BR   UNL     1      -3.234  -2.158 -32.030  1.00  0.00    -0.051 Br
HETATM   16  C   UNL     1      -5.252  -2.105 -34.041  1.00  0.00     0.019 A 
HETATM   17  C   UNL     1      -6.273  -1.519 -34.784  1.00  0.00     0.002 A 
HETATM   18  C   UNL     1      -6.660  -0.202 -34.525  1.00  0.00     0.008 A 
ENDBRANCH   4  12
BRANCH   3  19
HETATM   19  C   UNL     1      -8.637   3.109 -33.785  1.00  0.00     0.266 C 
HETATM   20  O   UNL     1      -8.174   4.236 -33.892  1.00  0.00    -0.265 OA
BRANCH  19  21
HETATM   21  O   UNL     1      -9.744   2.658 -34.442  1.00  0.00    -0.326 OA
HETATM   22  C   UNL     1     -10.707   3.670 -34.737  1.00  0.00     0.213 C 
ENDBRANCH  19  21
ENDBRANCH   3  19
BRANCH   2  23
HETATM   23  O   UNL     1      -9.277   0.952 -31.097  1.00  0.00    -0.389 OA
HETATM   24  H   UNL     1      -8.655   0.241 -30.858  1.00  0.00     0.210 HD
ENDBRANCH   2  23
BRANCH  10  25
HETATM   25  O   UNL     1      -3.525   3.199 -33.136  1.00  0.00    -0.343 OA
HETATM   26  H   UNL     1      -3.774   2.516 -33.782  1.00  0.00     0.219 HD
ENDBRANCH  10  25
TORSDOF 5
ENDMDL
MODEL 4
REMARK VINA RESULT:      -7.0      2.420      3.240
REMARK  5 active torsions:
REMARK  status: ('A' for Active; 'I' for Inactive)
REMARK    1  A    between atoms: C_2  and  O_3 
REMARK    2  A    between atoms: C_4  and  C_5 
REMARK    3  A    between atoms: C_5  and  O_6 
REMARK    4  A    between atoms: C_9  and  C_10 
REMARK    5  A    between atoms: C_22  and  O_23 
ROOT
HETATM    1  C   UNL     1      -5.766   6.085 -32.694  1.00  0.00     0.047 C 
HETATM    2  C   UNL     1      -6.173   4.768 -33.385  1.00  0.00     0.073 C 
HETATM    3  C   UNL     1      -5.665   3.470 -32.633  1.00  0.00     0.133 C 
HETATM    4  C   UNL     1      -6.681   2.342 -32.288  1.00  0.00     0.074 C 
HETATM    5  C   UNL     1      -8.084   2.807 -32.297  1.00  0.00     0.030 A 
HETATM    6  C   UNL     1      -8.510   3.948 -32.932  1.00  0.00     0.042 A 
HETATM    7  N   UNL     1      -9.851   4.057 -32.696  1.00  0.00    -0.279 N 
HETATM    8  H   UNL     1     -10.498   4.772 -33.014  1.00  0.00     0.189 HD
HETATM    9  N   UNL     1     -10.330   3.051 -31.932  1.00  0.00    -0.149 NA
HETATM   10  C   UNL     1      -9.246   2.322 -31.700  1.00  0.00     0.190 A 
HETATM   11  C   UNL     1      -7.691   4.863 -33.742  1.00  0.00     0.097 C 
ENDROOT
BRANCH   4  12
HETATM   12  C   UNL     1      -6.599   1.170 -33.265  1.00  0.00    -0.047 A 
HETATM   13  C   UNL     1      -5.704   0.099 -33.111  1.00  0.00     0.027 A 
HETATM   14  C   UNL     1      -5.708  -0.964 -34.018  1.00  0.00     0.011 A 
HETATM   15 BR   UNL     1      -4.485  -2.388 -33.793  1.00  0.00    -0.051 Br
HETATM   16  C   UNL     1      -6.602  -0.985 -35.085  1.00  0.00     0.019 A 
HETATM   17  C   UNL     1      -7.499   0.066 -35.249  1.00  0.00     0.002 A 
HETATM   18  C   UNL     1      -7.498   1.134 -34.348  1.00  0.00     0.008 A 
ENDBRANCH   4  12
BRANCH   3  19
HETATM   19  C   UNL     1      -4.975   3.809 -31.323  1.00  0.00     0.266 C 
HETATM   20  O   UNL     1      -5.544   3.951 -30.249  1.00  0.00    -0.265 OA
BRANCH  19  21
HETATM   21  O   UNL     1      -3.630   3.921 -31.511  1.00  0.00    -0.326 OA
HETATM   22  C   UNL     1      -3.104   3.072 -32.531  1.00  0.00     0.213 C 
ENDBRANCH  19  21
ENDBRANCH   3  19
BRANCH   2  23
HETATM   23  O   UNL     1      -5.455   4.819 -34.646  1.00  0.00    -0.389 OA
HETATM   24  H   UNL     1      -4.517   5.004 -34.461  1.00  0.00     0.210 HD
ENDBRANCH   2  23
BRANCH  10  25
HETATM   25  O   UNL     1      -9.432   1.248 -30.941  1.00  0.00    -0.343 OA
HETATM   26  H   UNL     1      -9.512   1.602 -30.039  1.00  0.00     0.219 HD
ENDBRANCH  10  25
TORSDOF 5
ENDMDL
MODEL 5
REMARK VINA RESULT:      -6.8      2.432      4.014
REMARK  5 active torsions:
REMARK  status: ('A' for Active; 'I' for Inactive)
REMARK    1  A    between atoms: C_2  and  O_3 
REMARK    2  A    between atoms: C_4  and  C_5 
REMARK    3  A    between atoms: C_5  and  O_6 
REMARK    4  A    between atoms: C_9  and  C_10 
REMARK    5  A    between atoms: C_22  and  O_23 
ROOT
HETATM    1  C   UNL     1      -7.245   4.095 -29.282  1.00  0.00     0.047 C 
HETATM    2  C   UNL     1      -6.692   3.056 -30.279  1.00  0.00     0.073 C 
HETATM    3  C   UNL     1      -7.577   2.887 -31.581  1.00  0.00     0.133 C 
HETATM    4  C   UNL     1      -6.902   2.990 -32.980  1.00  0.00     0.074 C 
HETATM    5  C   UNL     1      -5.597   3.682 -32.942  1.00  0.00     0.030 A 
HETATM    6  C   UNL     1      -4.848   3.844 -31.802  1.00  0.00     0.042 A 
HETATM    7  N   UNL     1      -3.732   4.549 -32.157  1.00  0.00    -0.279 N 
HETATM    8  H   UNL     1      -2.956   4.846 -31.574  1.00  0.00     0.189 HD
HETATM    9  N   UNL     1      -3.710   4.865 -33.469  1.00  0.00    -0.149 NA
HETATM   10  C   UNL     1      -4.845   4.340 -33.913  1.00  0.00     0.190 A 
HETATM   11  C   UNL     1      -5.165   3.331 -30.459  1.00  0.00     0.097 C 
ENDROOT
BRANCH   4  12
HETATM   12  C   UNL     1      -6.655   1.618 -33.606  1.00  0.00    -0.047 A 
HETATM   13  C   UNL     1      -5.673   0.726 -33.146  1.00  0.00     0.027 A 
HETATM   14  C   UNL     1      -5.524  -0.531 -33.737  1.00  0.00     0.011 A 
HETATM   15 BR   UNL     1      -4.187  -1.708 -33.102  1.00  0.00    -0.051 Br
HETATM   16  C   UNL     1      -6.350  -0.927 -34.785  1.00  0.00     0.019 A 
HETATM   17  C   UNL     1      -7.331  -0.056 -35.251  1.00  0.00     0.002 A 
HETATM   18  C   UNL     1      -7.482   1.204 -34.667  1.00  0.00     0.008 A 
ENDBRANCH   4  12
BRANCH   3  19
HETATM   19  C   UNL     1      -8.729   3.875 -31.613  1.00  0.00     0.266 C 
HETATM   20  O   UNL     1      -8.643   5.041 -31.978  1.00  0.00    -0.265 OA
BRANCH  19  21
HETATM   21  O   UNL     1      -9.878   3.278 -31.190  1.00  0.00    -0.326 OA
HETATM   22  C   UNL     1     -10.842   4.176 -30.640  1.00  0.00     0.213 C 
ENDBRANCH  19  21
ENDBRANCH   3  19
BRANCH   2  23
HETATM   23  O   UNL     1      -6.795   1.806 -29.548  1.00  0.00    -0.389 OA
HETATM   24  H   UNL     1      -6.539   1.078 -30.142  1.00  0.00     0.210 HD
ENDBRANCH   2  23
BRANCH  10  25
HETATM   25  O   UNL     1      -5.090   4.521 -35.206  1.00  0.00    -0.343 OA
HETATM   26  H   UNL     1      -4.278   4.221 -35.649  1.00  0.00     0.219 HD
ENDBRANCH  10  25
TORSDOF 5
ENDMDL
MODEL 6
REMARK VINA RESULT:      -6.7      2.262      3.321
REMARK  5 active torsions:
REMARK  status: ('A' for Active; 'I' for Inactive)
REMARK    1  A    between atoms: C_2  and  O_3 
REMARK    2  A    between atoms: C_4  and  C_5 
REMARK    3  A    between atoms: C_5  and  O_6 
REMARK    4  A    between atoms: C_9  and  C_10 
REMARK    5  A    between atoms: C_22  and  O_23 
ROOT
HETATM    1  C   UNL     1      -8.366   4.629 -31.102  1.00  0.00     0.047 C 
HETATM    2  C   UNL     1      -7.405   3.423 -31.143  1.00  0.00     0.073 C 
HETATM    3  C   UNL     1      -7.072   2.924 -32.608  1.00  0.00     0.133 C 
HETATM    4  C   UNL     1      -5.585   2.744 -33.033  1.00  0.00     0.074 C 
HETATM    5  C   UNL     1      -4.645   3.492 -32.171  1.00  0.00     0.030 A 
HETATM    6  C   UNL     1      -4.952   3.942 -30.911  1.00  0.00     0.042 A 
HETATM    7  N   UNL     1      -3.851   4.605 -30.446  1.00  0.00    -0.279 N 
HETATM    8  H   UNL     1      -3.715   5.063 -29.551  1.00  0.00     0.189 HD
HETATM    9  N   UNL     1      -2.838   4.621 -31.337  1.00  0.00    -0.149 NA
HETATM   10  C   UNL     1      -3.345   3.954 -32.366  1.00  0.00     0.190 A 
HETATM   11  C   UNL     1      -6.212   3.727 -30.181  1.00  0.00     0.097 C 
ENDROOT
BRANCH   4  12
HETATM   12  C   UNL     1      -5.145   1.282 -32.999  1.00  0.00    -0.047 A 
HETATM   13  C   UNL     1      -5.815   0.258 -33.688  1.00  0.00     0.027 A 
HETATM   14  C   UNL     1      -5.337  -1.054 -33.649  1.00  0.00     0.011 A 
HETATM   15 BR   UNL     1      -6.265  -2.414 -34.578  1.00  0.00    -0.051 Br
HETATM   16  C   UNL     1      -4.185  -1.370 -32.934  1.00  0.00     0.019 A 
HETATM   17  C   UNL     1      -3.506  -0.367 -32.249  1.00  0.00     0.002 A 
HETATM   18  C   UNL     1      -3.981   0.947 -32.281  1.00  0.00     0.008 A 
ENDBRANCH   4  12
BRANCH   3  19
HETATM   19  C   UNL     1      -7.690   3.820 -33.666  1.00  0.00     0.266 C 
HETATM   20  O   UNL     1      -7.133   4.779 -34.184  1.00  0.00    -0.265 OA
BRANCH  19  21
HETATM   21  O   UNL     1      -8.951   3.400 -33.966  1.00  0.00    -0.326 OA
HETATM   22  C   UNL     1      -9.065   1.996 -34.200  1.00  0.00     0.213 C 
ENDBRANCH  19  21
ENDBRANCH   3  19
BRANCH   2  23
HETATM   23  O   UNL     1      -8.174   2.365 -30.514  1.00  0.00    -0.389 OA
HETATM   24  H   UNL     1      -9.103   2.448 -30.794  1.00  0.00     0.210 HD
ENDBRANCH   2  23
BRANCH  10  25
HETATM   25  O   UNL     1      -2.542   3.828 -33.417  1.00  0.00    -0.343 OA
HETATM   26  H   UNL     1      -3.100   4.068 -34.176  1.00  0.00     0.219 HD
ENDBRANCH  10  25
TORSDOF 5
ENDMDL
MODEL 7
REMARK VINA RESULT:      -6.6      3.686      6.117
REMARK  5 active torsions:
REMARK  status: ('A' for Active; 'I' for Inactive)
REMARK    1  A    between atoms: C_2  and  O_3 
REMARK    2  A    between atoms: C_4  and  C_5 
REMARK    3  A    between atoms: C_5  and  O_6 
REMARK    4  A    between atoms: C_9  and  C_10 
REMARK    5  A    between atoms: C_22  and  O_23 
ROOT
HETATM    1  C   UNL     1      -6.481   0.272 -30.831  1.00  0.00     0.047 C 
HETATM    2  C   UNL     1      -5.948   1.708 -30.645  1.00  0.00     0.073 C 
HETATM    3  C   UNL     1      -4.496   1.930 -31.235  1.00  0.00     0.133 C 
HETATM    4  C   UNL     1      -4.241   3.119 -32.207  1.00  0.00     0.074 C 
HETATM    5  C   UNL     1      -5.481   3.634 -32.824  1.00  0.00     0.030 A 
HETATM    6  C   UNL     1      -6.739   3.416 -32.318  1.00  0.00     0.042 A 
HETATM    7  N   UNL     1      -7.620   4.020 -33.170  1.00  0.00    -0.279 N 
HETATM    8  H   UNL     1      -8.632   4.067 -33.109  1.00  0.00     0.189 HD
HETATM    9  N   UNL     1      -7.010   4.619 -34.214  1.00  0.00    -0.149 NA
HETATM   10  C   UNL     1      -5.728   4.364 -33.986  1.00  0.00     0.190 A 
HETATM   11  C   UNL     1      -7.077   2.697 -31.079  1.00  0.00     0.097 C 
ENDROOT
BRANCH   4  12
HETATM   12  C   UNL     1      -3.570   4.302 -31.512  1.00  0.00    -0.047 A 
HETATM   13  C   UNL     1      -2.192   4.562 -31.589  1.00  0.00     0.027 A 
HETATM   14  C   UNL     1      -1.646   5.686 -30.963  1.00  0.00     0.011 A 
HETATM   15 BR   UNL     1       0.214   6.006 -31.077  1.00  0.00    -0.051 Br
HETATM   16  C   UNL     1      -2.457   6.572 -30.260  1.00  0.00     0.019 A 
HETATM   17  C   UNL     1      -3.825   6.331 -30.176  1.00  0.00     0.002 A 
HETATM   18  C   UNL     1      -4.377   5.207 -30.797  1.00  0.00     0.008 A 
ENDBRANCH   4  12
BRANCH   3  19
HETATM   19  C   UNL     1      -3.985   0.697 -31.959  1.00  0.00     0.266 C 
HETATM   20  O   UNL     1      -4.290   0.380 -33.102  1.00  0.00    -0.265 OA
BRANCH  19  21
HETATM   21  O   UNL     1      -3.128  -0.001 -31.162  1.00  0.00    -0.326 OA
HETATM   22  C   UNL     1      -2.629  -1.205 -31.744  1.00  0.00     0.213 C 
ENDBRANCH  19  21
ENDBRANCH   3  19
BRANCH   2  23
HETATM   23  O   UNL     1      -5.830   1.834 -29.204  1.00  0.00    -0.389 OA
HETATM   24  H   UNL     1      -5.705   2.774 -28.985  1.00  0.00     0.210 HD
ENDBRANCH   2  23
BRANCH  10  25
HETATM   25  O   UNL     1      -4.881   4.840 -34.892  1.00  0.00    -0.343 OA
HETATM   26  H   UNL     1      -5.365   4.772 -35.732  1.00  0.00     0.219 HD
ENDBRANCH  10  25
TORSDOF 5
ENDMDL
MODEL 8
REMARK VINA RESULT:      -6.6      2.686      5.134
REMARK  5 active torsions:
REMARK  status: ('A' for Active; 'I' for Inactive)
REMARK    1  A    between atoms: C_2  and  O_3 
REMARK    2  A    between atoms: C_4  and  C_5 
REMARK    3  A    between atoms: C_5  and  O_6 
REMARK    4  A    between atoms: C_9  and  C_10 
REMARK    5  A    between atoms: C_22  and  O_23 
ROOT
HETATM    1  C   UNL     1      -6.493  -0.989 -32.959  1.00  0.00     0.047 C 
HETATM    2  C   UNL     1      -5.622   0.270 -32.768  1.00  0.00     0.073 C 
HETATM    3  C   UNL     1      -5.987   1.454 -33.753  1.00  0.00     0.133 C 
HETATM    4  C   UNL     1      -6.257   2.873 -33.174  1.00  0.00     0.074 C 
HETATM    5  C   UNL     1      -6.587   2.854 -31.733  1.00  0.00     0.030 A 
HETATM    6  C   UNL     1      -6.288   1.811 -30.891  1.00  0.00     0.042 A 
HETATM    7  N   UNL     1      -6.769   2.146 -29.657  1.00  0.00    -0.279 N 
HETATM    8  H   UNL     1      -6.724   1.617 -28.791  1.00  0.00     0.189 HD
HETATM    9  N   UNL     1      -7.376   3.351 -29.643  1.00  0.00    -0.149 NA
HETATM   10  C   UNL     1      -7.260   3.749 -30.903  1.00  0.00     0.190 A 
HETATM   11  C   UNL     1      -5.559   0.580 -31.238  1.00  0.00     0.097 C 
ENDROOT
BRANCH   4  12
HETATM   12  C   UNL     1      -5.058   3.804 -33.338  1.00  0.00    -0.047 A 
HETATM   13  C   UNL     1      -4.014   3.890 -32.402  1.00  0.00     0.027 A 
HETATM   14  C   UNL     1      -2.924   4.733 -32.631  1.00  0.00     0.011 A 
HETATM   15 BR   UNL     1      -1.537   4.835 -31.349  1.00  0.00    -0.051 Br
HETATM   16  C   UNL     1      -2.846   5.497 -33.792  1.00  0.00     0.019 A 
HETATM   17  C   UNL     1      -3.870   5.421 -34.732  1.00  0.00     0.002 A 
HETATM   18  C   UNL     1      -4.965   4.583 -34.507  1.00  0.00     0.008 A 
ENDBRANCH   4  12
BRANCH   3  19
HETATM   19  C   UNL     1      -7.200   1.126 -34.606  1.00  0.00     0.266 C 
HETATM   20  O   UNL     1      -7.182   0.420 -35.606  1.00  0.00    -0.265 OA
BRANCH  19  21
HETATM   21  O   UNL     1      -8.314   1.720 -34.094  1.00  0.00    -0.326 OA
HETATM   22  C   UNL     1      -9.474   0.887 -34.082  1.00  0.00     0.213 C 
ENDBRANCH  19  21
ENDBRANCH   3  19
BRANCH   2  23
HETATM   23  O   UNL     1      -4.295  -0.184 -33.144  1.00  0.00    -0.389 OA
HETATM   24  H   UNL     1      -4.005  -0.858 -32.503  1.00  0.00     0.210 HD
ENDBRANCH   2  23
BRANCH  10  25
HETATM   25  O   UNL     1      -7.798   4.931 -31.181  1.00  0.00    -0.343 OA
HETATM   26  H   UNL     1      -7.199   5.573 -30.764  1.00  0.00     0.219 HD
ENDBRANCH  10  25
TORSDOF 5
ENDMDL
MODEL 9
REMARK VINA RESULT:      -6.6      3.748      5.030
REMARK  5 active torsions:
REMARK  status: ('A' for Active; 'I' for Inactive)
REMARK    1  A    between atoms: C_2  and  O_3 
REMARK    2  A    between atoms: C_4  and  C_5 
REMARK    3  A    between atoms: C_5  and  O_6 
REMARK    4  A    between atoms: C_9  and  C_10 
REMARK    5  A    between atoms: C_22  and  O_23 
ROOT
HETATM    1  C   UNL     1      -9.712   5.898 -32.957  1.00  0.00     0.047 C 
HETATM    2  C   UNL     1      -9.147   4.609 -33.589  1.00  0.00     0.073 C 
HETATM    3  C   UNL     1      -8.760   3.497 -32.531  1.00  0.00     0.133 C 
HETATM    4  C   UNL     1      -9.312   2.052 -32.706  1.00  0.00     0.074 C 
HETATM    5  C   UNL     1     -10.499   1.991 -33.585  1.00  0.00     0.030 A 
HETATM    6  C   UNL     1     -10.839   2.973 -34.483  1.00  0.00     0.042 A 
HETATM    7  N   UNL     1     -12.000   2.575 -35.085  1.00  0.00    -0.279 N 
HETATM    8  H   UNL     1     -12.538   3.048 -35.804  1.00  0.00     0.189 HD
HETATM    9  N   UNL     1     -12.444   1.386 -34.626  1.00  0.00    -0.149 NA
HETATM   10  C   UNL     1     -11.530   1.063 -33.721  1.00  0.00     0.190 A 
HETATM   11  C   UNL     1     -10.086   4.204 -34.770  1.00  0.00     0.097 C 
ENDROOT
BRANCH   4  12
HETATM   12  C   UNL     1      -8.274   1.103 -33.301  1.00  0.00    -0.047 A 
HETATM   13  C   UNL     1      -7.184   0.598 -32.574  1.00  0.00     0.027 A 
HETATM   14  C   UNL     1      -6.291  -0.299 -33.166  1.00  0.00     0.011 A 
HETATM   15 BR   UNL     1      -4.827  -0.956 -32.166  1.00  0.00    -0.051 Br
HETATM   16  C   UNL     1      -6.470  -0.716 -34.482  1.00  0.00     0.019 A 
HETATM   17  C   UNL     1      -7.547  -0.228 -35.216  1.00  0.00     0.002 A 
HETATM   18  C   UNL     1      -8.441   0.672 -34.631  1.00  0.00     0.008 A 
ENDBRANCH   4  12
BRANCH   3  19
HETATM   19  C   UNL     1      -9.136   3.906 -31.117  1.00  0.00     0.266 C 
HETATM   20  O   UNL     1     -10.252   3.792 -30.629  1.00  0.00    -0.265 OA
BRANCH  19  21
HETATM   21  O   UNL     1      -8.050   4.408 -30.464  1.00  0.00    -0.326 OA
HETATM   22  C   UNL     1      -7.281   3.431 -29.762  1.00  0.00     0.213 C 
ENDBRANCH  19  21
ENDBRANCH   3  19
BRANCH   2  23
HETATM   23  O   UNL     1      -7.904   5.052 -34.193  1.00  0.00    -0.389 OA
HETATM   24  H   UNL     1      -7.169   4.557 -33.788  1.00  0.00     0.210 HD
ENDBRANCH   2  23
BRANCH  10  25
HETATM   25  O   UNL     1     -11.734  -0.086 -33.087  1.00  0.00    -0.343 OA
HETATM   26  H   UNL     1     -12.336   0.145 -32.360  1.00  0.00     0.219 HD
ENDBRANCH  10  25
TORSDOF 5
ENDMDL
MODEL 10
REMARK VINA RESULT:      -6.5      2.889      4.632
REMARK  5 active torsions:
REMARK  status: ('A' for Active; 'I' for Inactive)
REMARK    1  A    between atoms: C_2  and  O_3 
REMARK    2  A    between atoms: C_4  and  C_5 
REMARK    3  A    between atoms: C_5  and  O_6 
REMARK    4  A    between atoms: C_9  and  C_10 
REMARK    5  A    between atoms: C_22  and  O_23 
ROOT
HETATM    1  C   UNL     1      -6.413   5.708 -29.405  1.00  0.00     0.047 C 
HETATM    2  C   UNL     1      -5.637   4.572 -30.102  1.00  0.00     0.073 C 
HETATM    3  C   UNL     1      -6.520   3.713 -31.096  1.00  0.00     0.133 C 
HETATM    4  C   UNL     1      -6.024   3.483 -32.554  1.00  0.00     0.074 C 
HETATM    5  C   UNL     1      -5.008   4.469 -32.979  1.00  0.00     0.030 A 
HETATM    6  C   UNL     1      -4.264   5.227 -32.109  1.00  0.00     0.042 A 
HETATM    7  N   UNL     1      -3.462   6.031 -32.869  1.00  0.00    -0.279 N 
HETATM    8  H   UNL     1      -2.777   6.717 -32.565  1.00  0.00     0.189 HD
HETATM    9  N   UNL     1      -3.644   5.847 -34.193  1.00  0.00    -0.149 NA
HETATM   10  C   UNL     1      -4.583   4.911 -34.230  1.00  0.00     0.190 A 
HETATM   11  C   UNL     1      -4.295   5.167 -30.638  1.00  0.00     0.097 C 
ENDROOT
BRANCH   4  12
HETATM   12  C   UNL     1      -5.403   2.101 -32.744  1.00  0.00    -0.047 A 
HETATM   13  C   UNL     1      -6.035   1.060 -33.443  1.00  0.00     0.027 A 
HETATM   14  C   UNL     1      -5.394  -0.170 -33.617  1.00  0.00     0.011 A 
HETATM   15 BR   UNL     1      -6.273  -1.556 -34.555  1.00  0.00    -0.051 Br
HETATM   16  C   UNL     1      -4.116  -0.384 -33.108  1.00  0.00     0.019 A 
HETATM   17  C   UNL     1      -3.474   0.638 -32.415  1.00  0.00     0.002 A 
HETATM   18  C   UNL     1      -4.111   1.869 -32.235  1.00  0.00     0.008 A 
ENDBRANCH   4  12
BRANCH   3  19
HETATM   19  C   UNL     1      -7.926   4.270 -31.229  1.00  0.00     0.266 C 
HETATM   20  O   UNL     1      -8.256   5.161 -32.002  1.00  0.00    -0.265 OA
BRANCH  19  21
HETATM   21  O   UNL     1      -8.773   3.630 -30.375  1.00  0.00    -0.326 OA
HETATM   22  C   UNL     1     -10.139   4.031 -30.488  1.00  0.00     0.213 C 
ENDBRANCH  19  21
ENDBRANCH   3  19
BRANCH   2  23
HETATM   23  O   UNL     1      -5.280   3.691 -29.004  1.00  0.00    -0.389 OA
HETATM   24  H   UNL     1      -4.387   3.339 -29.168  1.00  0.00     0.210 HD
ENDBRANCH   2  23
BRANCH  10  25
HETATM   25  O   UNL     1      -4.973   4.540 -35.445  1.00  0.00    -0.343 OA
HETATM   26  H   UNL     1      -4.215   4.751 -36.016  1.00  0.00     0.219 HD
ENDBRANCH  10  25
TORSDOF 5
ENDMDL
