MODEL 1
REMARK VINA RESULT:      -9.1      0.000      0.000
REMARK  3 active torsions:
REMARK  status: ('A' for Active; 'I' for Inactive)
REMARK    1  A    between atoms: C_6  and  N_7 
REMARK       I    between atoms: N_7  and  C_8 
REMARK    2  A    between atoms: C_8  and  C_9 
REMARK    3  A    between atoms: C_20  and  O_21 
ROOT
HETATM    1  C   UNL     1      -4.220   2.155 -31.470  1.00  0.00     0.153 A 
HETATM    2  N   UNL     1      -5.044   2.358 -30.415  1.00  0.00    -0.168 NA
HETATM    3  N   UNL     1      -4.931   3.678 -30.152  1.00  0.00    -0.276 N 
HETATM    4  H   UNL     1      -5.473   4.067 -29.390  1.00  0.00     0.189 HD
HETATM    5  C   UNL     1      -4.078   4.328 -30.991  1.00  0.00     0.069 A 
HETATM    6  C   UNL     1      -3.609   3.372 -31.864  1.00  0.00     0.007 A 
HETATM    7  C   UNL     1      -2.626   3.705 -32.929  1.00  0.00     0.048 C 
HETATM    8  C   UNL     1      -2.733   5.195 -33.332  1.00  0.00     0.044 C 
HETATM    9  C   UNL     1      -2.979   6.154 -32.171  1.00  0.00    -0.043 A 
HETATM   10  C   UNL     1      -3.698   5.729 -31.030  1.00  0.00    -0.001 A 
HETATM   11  C   UNL     1      -2.571   7.490 -32.268  1.00  0.00     0.044 A 
HETATM   12  C   UNL     1      -2.840   8.395 -31.238  1.00  0.00     0.068 A 
HETATM   13  C   UNL     1      -3.544   7.965 -30.111  1.00  0.00     0.037 A 
HETATM   14  C   UNL     1      -3.975   6.637 -30.006  1.00  0.00     0.017 A 
ENDROOT
BRANCH   1  15
HETATM   15  C   UNL     1      -4.037   0.816 -32.065  1.00  0.00     0.277 C 
HETATM   16  N   UNL     1      -5.186   0.373 -32.693  1.00  0.00    -0.322 N 
HETATM   17  H   UNL     1      -5.954   1.039 -32.637  1.00  0.00     0.169 HD
HETATM   18  O   UNL     1      -2.973   0.212 -31.984  1.00  0.00    -0.266 OA
BRANCH  16  19
HETATM   19  C   UNL     1      -5.397  -0.836 -33.375  1.00  0.00     0.037 A 
HETATM   20  C   UNL     1      -4.388  -1.760 -33.651  1.00  0.00     0.072 A 
HETATM   21  C   UNL     1      -4.690  -2.933 -34.340  1.00  0.00     0.124 A 
HETATM   22  C   UNL     1      -5.986  -3.214 -34.778  1.00  0.00    -0.023 A 
HETATM   23  F   UNL     1      -3.704  -3.808 -34.585  1.00  0.00    -0.205 F 
HETATM   24  C   UNL     1      -6.281  -4.497 -35.492  1.00  0.00     0.051 C 
HETATM   25  C   UNL     1      -6.999  -2.296 -34.487  1.00  0.00     0.012 A 
HETATM   26  C   UNL     1      -6.704  -1.116 -33.796  1.00  0.00     0.030 A 
ENDBRANCH  16  19
ENDBRANCH   1  15
BRANCH  12  27
HETATM   27  O   UNL     1      -2.370   9.661 -31.457  1.00  0.00    -0.356 OA
HETATM   28  C   UNL     1      -2.570  10.612 -30.419  1.00  0.00     0.210 C 
ENDBRANCH  12  27
TORSDOF 3
ENDMDL
MODEL 2
REMARK VINA RESULT:      -9.0      3.404      9.199
REMARK  3 active torsions:
REMARK  status: ('A' for Active; 'I' for Inactive)
REMARK    1  A    between atoms: C_6  and  N_7 
REMARK       I    between atoms: N_7  and  C_8 
REMARK    2  A    between atoms: C_8  and  C_9 
REMARK    3  A    between atoms: C_20  and  O_21 
ROOT
HETATM    1  C   UNL     1      -5.466   2.327 -32.792  1.00  0.00     0.153 A 
HETATM    2  N   UNL     1      -6.772   2.396 -33.144  1.00  0.00    -0.168 NA
HETATM    3  N   UNL     1      -7.065   1.151 -33.580  1.00  0.00    -0.276 N 
HETATM    4  H   UNL     1      -8.009   0.960 -33.896  1.00  0.00     0.189 HD
HETATM    5  C   UNL     1      -6.012   0.292 -33.520  1.00  0.00     0.069 A 
HETATM    6  C   UNL     1      -4.963   1.019 -33.003  1.00  0.00     0.007 A 
HETATM    7  C   UNL     1      -3.618   0.414 -32.805  1.00  0.00     0.048 C 
HETATM    8  C   UNL     1      -3.726  -1.116 -32.605  1.00  0.00     0.044 C 
HETATM    9  C   UNL     1      -4.767  -1.803 -33.483  1.00  0.00    -0.043 A 
HETATM   10  C   UNL     1      -5.931  -1.110 -33.891  1.00  0.00    -0.001 A 
HETATM   11  C   UNL     1      -4.620  -3.155 -33.818  1.00  0.00     0.044 A 
HETATM   12  C   UNL     1      -5.594  -3.814 -34.574  1.00  0.00     0.068 A 
HETATM   13  C   UNL     1      -6.736  -3.120 -34.977  1.00  0.00     0.037 A 
HETATM   14  C   UNL     1      -6.908  -1.773 -34.635  1.00  0.00     0.017 A 
ENDROOT
BRANCH   1  15
HETATM   15  C   UNL     1      -4.740   3.504 -32.273  1.00  0.00     0.277 C 
HETATM   16  N   UNL     1      -3.406   3.483 -32.633  1.00  0.00    -0.322 N 
HETATM   17  H   UNL     1      -3.156   2.666 -33.188  1.00  0.00     0.169 HD
HETATM   18  O   UNL     1      -5.301   4.368 -31.608  1.00  0.00    -0.266 OA
BRANCH  16  19
HETATM   19  C   UNL     1      -2.408   4.425 -32.338  1.00  0.00     0.037 A 
HETATM   20  C   UNL     1      -2.051   5.473 -33.187  1.00  0.00     0.072 A 
HETATM   21  C   UNL     1      -1.042   6.358 -32.812  1.00  0.00     0.124 A 
HETATM   22  C   UNL     1      -0.360   6.223 -31.601  1.00  0.00    -0.023 A 
HETATM   23  F   UNL     1      -0.724   7.362 -33.643  1.00  0.00    -0.205 F 
HETATM   24  C   UNL     1       0.700   7.209 -31.217  1.00  0.00     0.051 C 
HETATM   25  C   UNL     1      -0.729   5.183 -30.743  1.00  0.00     0.012 A 
HETATM   26  C   UNL     1      -1.741   4.291 -31.113  1.00  0.00     0.030 A 
ENDBRANCH  16  19
ENDBRANCH   1  15
BRANCH  12  27
HETATM   27  O   UNL     1      -5.313  -5.125 -34.841  1.00  0.00    -0.356 OA
HETATM   28  C   UNL     1      -4.198  -5.696 -34.168  1.00  0.00     0.210 C 
ENDBRANCH  12  27
TORSDOF 3
ENDMDL
MODEL 3
REMARK VINA RESULT:      -8.9      1.876      1.949
REMARK  3 active torsions:
REMARK  status: ('A' for Active; 'I' for Inactive)
REMARK    1  A    between atoms: C_6  and  N_7 
REMARK       I    between atoms: N_7  and  C_8 
REMARK    2  A    between atoms: C_8  and  C_9 
REMARK    3  A    between atoms: C_20  and  O_21 
ROOT
HETATM    1  C   UNL     1      -5.695   3.088 -32.652  1.00  0.00     0.153 A 
HETATM    2  N   UNL     1      -6.677   3.732 -31.977  1.00  0.00    -0.168 NA
HETATM    3  N   UNL     1      -6.027   4.686 -31.275  1.00  0.00    -0.276 N 
HETATM    4  H   UNL     1      -6.571   5.308 -30.687  1.00  0.00     0.189 HD
HETATM    5  C   UNL     1      -4.681   4.684 -31.472  1.00  0.00     0.069 A 
HETATM    6  C   UNL     1      -4.434   3.668 -32.368  1.00  0.00     0.007 A 
HETATM    7  C   UNL     1      -3.053   3.345 -32.816  1.00  0.00     0.048 C 
HETATM    8  C   UNL     1      -2.135   4.587 -32.719  1.00  0.00     0.044 C 
HETATM    9  C   UNL     1      -2.370   5.458 -31.489  1.00  0.00    -0.043 A 
HETATM   10  C   UNL     1      -3.656   5.543 -30.905  1.00  0.00    -0.001 A 
HETATM   11  C   UNL     1      -1.332   6.250 -30.984  1.00  0.00     0.044 A 
HETATM   12  C   UNL     1      -1.546   7.098 -29.893  1.00  0.00     0.068 A 
HETATM   13  C   UNL     1      -2.817   7.171 -29.318  1.00  0.00     0.037 A 
HETATM   14  C   UNL     1      -3.871   6.398 -29.823  1.00  0.00     0.017 A 
ENDROOT
BRANCH   1  15
HETATM   15  C   UNL     1      -5.986   1.944 -33.538  1.00  0.00     0.277 C 
HETATM   16  N   UNL     1      -5.570   0.747 -32.985  1.00  0.00    -0.322 N 
HETATM   17  H   UNL     1      -5.138   0.861 -32.070  1.00  0.00     0.169 HD
HETATM   18  O   UNL     1      -6.533   2.091 -34.626  1.00  0.00    -0.266 OA
BRANCH  16  19
HETATM   19  C   UNL     1      -5.682  -0.547 -33.518  1.00  0.00     0.037 A 
HETATM   20  C   UNL     1      -4.594  -1.381 -33.769  1.00  0.00     0.072 A 
HETATM   21  C   UNL     1      -4.801  -2.651 -34.307  1.00  0.00     0.124 A 
HETATM   22  C   UNL     1      -6.081  -3.117 -34.615  1.00  0.00    -0.023 A 
HETATM   23  F   UNL     1      -3.738  -3.437 -34.530  1.00  0.00    -0.205 F 
HETATM   24  C   UNL     1      -6.270  -4.496 -35.165  1.00  0.00     0.051 C 
HETATM   25  C   UNL     1      -7.172  -2.286 -34.348  1.00  0.00     0.012 A 
HETATM   26  C   UNL     1      -6.972  -1.011 -33.809  1.00  0.00     0.030 A 
ENDBRANCH  16  19
ENDBRANCH   1  15
BRANCH  12  27
HETATM   27  O   UNL     1      -0.442   7.800 -29.494  1.00  0.00    -0.356 OA
HETATM   28  C   UNL     1       0.517   7.102 -28.709  1.00  0.00     0.210 C 
ENDBRANCH  12  27
TORSDOF 3
ENDMDL
MODEL 4
REMARK VINA RESULT:      -8.9      1.397      1.732
REMARK  3 active torsions:
REMARK  status: ('A' for Active; 'I' for Inactive)
REMARK    1  A    between atoms: C_6  and  N_7 
REMARK       I    between atoms: N_7  and  C_8 
REMARK    2  A    between atoms: C_8  and  C_9 
REMARK    3  A    between atoms: C_20  and  O_21 
ROOT
HETATM    1  C   UNL     1      -4.298   2.315 -31.702  1.00  0.00     0.153 A 
HETATM    2  N   UNL     1      -2.992   2.250 -31.348  1.00  0.00    -0.168 NA
HETATM    3  N   UNL     1      -2.628   3.539 -31.177  1.00  0.00    -0.276 N 
HETATM    4  H   UNL     1      -1.674   3.739 -30.899  1.00  0.00     0.189 HD
HETATM    5  C   UNL     1      -3.638   4.423 -31.401  1.00  0.00     0.069 A 
HETATM    6  C   UNL     1      -4.737   3.662 -31.732  1.00  0.00     0.007 A 
HETATM    7  C   UNL     1      -6.044   4.287 -32.069  1.00  0.00     0.048 C 
HETATM    8  C   UNL     1      -6.185   5.671 -31.391  1.00  0.00     0.044 C 
HETATM    9  C   UNL     1      -4.907   6.503 -31.368  1.00  0.00    -0.043 A 
HETATM   10  C   UNL     1      -3.642   5.873 -31.319  1.00  0.00    -0.001 A 
HETATM   11  C   UNL     1      -4.982   7.900 -31.306  1.00  0.00     0.044 A 
HETATM   12  C   UNL     1      -3.822   8.675 -31.226  1.00  0.00     0.068 A 
HETATM   13  C   UNL     1      -2.576   8.045 -31.185  1.00  0.00     0.037 A 
HETATM   14  C   UNL     1      -2.484   6.648 -31.228  1.00  0.00     0.017 A 
ENDROOT
BRANCH   1  15
HETATM   15  C   UNL     1      -5.081   1.101 -32.004  1.00  0.00     0.277 C 
HETATM   16  N   UNL     1      -4.519   0.371 -33.036  1.00  0.00    -0.322 N 
HETATM   17  H   UNL     1      -3.670   0.794 -33.406  1.00  0.00     0.169 HD
HETATM   18  O   UNL     1      -6.101   0.818 -31.385  1.00  0.00    -0.266 OA
BRANCH  16  19
HETATM   19  C   UNL     1      -4.966  -0.837 -33.594  1.00  0.00     0.037 A 
HETATM   20  C   UNL     1      -4.186  -1.990 -33.681  1.00  0.00     0.072 A 
HETATM   21  C   UNL     1      -4.713  -3.144 -34.259  1.00  0.00     0.124 A 
HETATM   22  C   UNL     1      -6.012  -3.181 -34.769  1.00  0.00    -0.023 A 
HETATM   23  F   UNL     1      -3.945  -4.242 -34.322  1.00  0.00    -0.205 F 
HETATM   24  C   UNL     1      -6.557  -4.445 -35.358  1.00  0.00     0.051 C 
HETATM   25  C   UNL     1      -6.799  -2.030 -34.667  1.00  0.00     0.012 A 
HETATM   26  C   UNL     1      -6.277  -0.869 -34.089  1.00  0.00     0.030 A 
ENDBRANCH  16  19
ENDBRANCH   1  15
BRANCH  12  27
HETATM   27  O   UNL     1      -4.042  10.024 -31.188  1.00  0.00    -0.356 OA
HETATM   28  C   UNL     1      -3.574  10.722 -30.040  1.00  0.00     0.210 C 
ENDBRANCH  12  27
TORSDOF 3
ENDMDL
MODEL 5
REMARK VINA RESULT:      -8.9      6.962      9.178
REMARK  3 active torsions:
REMARK  status: ('A' for Active; 'I' for Inactive)
REMARK    1  A    between atoms: C_6  and  N_7 
REMARK       I    between atoms: N_7  and  C_8 
REMARK    2  A    between atoms: C_8  and  C_9 
REMARK    3  A    between atoms: C_20  and  O_21 
ROOT
HETATM    1  C   UNL     1     -10.099   2.384 -32.855  1.00  0.00     0.153 A 
HETATM    2  N   UNL     1     -10.095   3.362 -31.918  1.00  0.00    -0.168 NA
HETATM    3  N   UNL     1     -11.403   3.598 -31.679  1.00  0.00    -0.276 N 
HETATM    4  H   UNL     1     -11.649   4.303 -30.993  1.00  0.00     0.189 HD
HETATM    5  C   UNL     1     -12.241   2.817 -32.413  1.00  0.00     0.069 A 
HETATM    6  C   UNL     1     -11.428   2.010 -33.178  1.00  0.00     0.007 A 
HETATM    7  C   UNL     1     -11.991   1.022 -34.136  1.00  0.00     0.048 C 
HETATM    8  C   UNL     1     -13.405   0.573 -33.699  1.00  0.00     0.044 C 
HETATM    9  C   UNL     1     -14.278   1.684 -33.124  1.00  0.00    -0.043 A 
HETATM   10  C   UNL     1     -13.692   2.773 -32.437  1.00  0.00    -0.001 A 
HETATM   11  C   UNL     1     -15.673   1.587 -33.195  1.00  0.00     0.044 A 
HETATM   12  C   UNL     1     -16.488   2.567 -32.622  1.00  0.00     0.068 A 
HETATM   13  C   UNL     1     -15.901   3.643 -31.952  1.00  0.00     0.037 A 
HETATM   14  C   UNL     1     -14.507   3.746 -31.856  1.00  0.00     0.017 A 
ENDROOT
BRANCH   1  15
HETATM   15  C   UNL     1      -8.845   1.841 -33.415  1.00  0.00     0.277 C 
HETATM   16  N   UNL     1      -8.565   0.581 -32.918  1.00  0.00    -0.322 N 
HETATM   17  H   UNL     1      -9.265   0.249 -32.258  1.00  0.00     0.169 HD
HETATM   18  O   UNL     1      -8.170   2.472 -34.220  1.00  0.00    -0.266 OA
BRANCH  16  19
HETATM   19  C   UNL     1      -7.476  -0.252 -33.219  1.00  0.00     0.037 A 
HETATM   20  C   UNL     1      -6.354  -0.392 -32.402  1.00  0.00     0.072 A 
HETATM   21  C   UNL     1      -5.317  -1.240 -32.785  1.00  0.00     0.124 A 
HETATM   22  C   UNL     1      -5.360  -1.958 -33.982  1.00  0.00    -0.023 A 
HETATM   23  F   UNL     1      -4.253  -1.364 -31.977  1.00  0.00    -0.205 F 
HETATM   24  C   UNL     1      -4.241  -2.882 -34.350  1.00  0.00     0.051 C 
HETATM   25  C   UNL     1      -6.491  -1.830 -34.793  1.00  0.00     0.012 A 
HETATM   26  C   UNL     1      -7.537  -0.981 -34.415  1.00  0.00     0.030 A 
ENDBRANCH  16  19
ENDBRANCH   1  15
BRANCH  12  27
HETATM   27  O   UNL     1     -17.829   2.355 -32.781  1.00  0.00    -0.356 OA
HETATM   28  C   UNL     1     -18.652   3.505 -32.926  1.00  0.00     0.210 C 
ENDBRANCH  12  27
TORSDOF 3
ENDMDL
MODEL 6
REMARK VINA RESULT:      -8.7      1.568      1.697
REMARK  3 active torsions:
REMARK  status: ('A' for Active; 'I' for Inactive)
REMARK    1  A    between atoms: C_6  and  N_7 
REMARK       I    between atoms: N_7  and  C_8 
REMARK    2  A    between atoms: C_8  and  C_9 
REMARK    3  A    between atoms: C_20  and  O_21 
ROOT
HETATM    1  C   UNL     1      -6.134   2.125 -31.507  1.00  0.00     0.153 A 
HETATM    2  N   UNL     1      -7.227   2.920 -31.429  1.00  0.00    -0.168 NA
HETATM    3  N   UNL     1      -6.726   4.154 -31.204  1.00  0.00    -0.276 N 
HETATM    4  H   UNL     1      -7.373   4.929 -31.114  1.00  0.00     0.189 HD
HETATM    5  C   UNL     1      -5.367   4.185 -31.139  1.00  0.00     0.069 A 
HETATM    6  C   UNL     1      -4.951   2.888 -31.342  1.00  0.00     0.007 A 
HETATM    7  C   UNL     1      -3.510   2.520 -31.321  1.00  0.00     0.048 C 
HETATM    8  C   UNL     1      -2.626   3.729 -31.707  1.00  0.00     0.044 C 
HETATM    9  C   UNL     1      -3.096   5.067 -31.146  1.00  0.00    -0.043 A 
HETATM   10  C   UNL     1      -4.471   5.306 -30.916  1.00  0.00    -0.001 A 
HETATM   11  C   UNL     1      -2.175   6.102 -30.940  1.00  0.00     0.044 A 
HETATM   12  C   UNL     1      -2.597   7.353 -30.481  1.00  0.00     0.068 A 
HETATM   13  C   UNL     1      -3.956   7.578 -30.250  1.00  0.00     0.037 A 
HETATM   14  C   UNL     1      -4.892   6.559 -30.469  1.00  0.00     0.017 A 
ENDROOT
BRANCH   1  15
HETATM   15  C   UNL     1      -6.248   0.669 -31.730  1.00  0.00     0.277 C 
HETATM   16  N   UNL     1      -5.856   0.314 -33.007  1.00  0.00    -0.322 N 
HETATM   17  H   UNL     1      -5.560   1.110 -33.569  1.00  0.00     0.169 HD
HETATM   18  O   UNL     1      -6.648  -0.090 -30.854  1.00  0.00    -0.266 OA
BRANCH  16  19
HETATM   19  C   UNL     1      -5.816  -0.966 -33.583  1.00  0.00     0.037 A 
HETATM   20  C   UNL     1      -4.654  -1.727 -33.708  1.00  0.00     0.072 A 
HETATM   21  C   UNL     1      -4.710  -2.988 -34.300  1.00  0.00     0.124 A 
HETATM   22  C   UNL     1      -5.906  -3.517 -34.787  1.00  0.00    -0.023 A 
HETATM   23  F   UNL     1      -3.579  -3.703 -34.400  1.00  0.00    -0.205 F 
HETATM   24  C   UNL     1      -5.935  -4.887 -35.392  1.00  0.00     0.051 C 
HETATM   25  C   UNL     1      -7.073  -2.762 -34.647  1.00  0.00     0.012 A 
HETATM   26  C   UNL     1      -7.025  -1.496 -34.054  1.00  0.00     0.030 A 
ENDBRANCH  16  19
ENDBRANCH   1  15
BRANCH  12  27
HETATM   27  O   UNL     1      -1.591   8.263 -30.308  1.00  0.00    -0.356 OA
HETATM   28  C   UNL     1      -0.731   8.069 -29.192  1.00  0.00     0.210 C 
ENDBRANCH  12  27
TORSDOF 3
ENDMDL
MODEL 7
REMARK VINA RESULT:      -8.7      4.008      9.271
REMARK  3 active torsions:
REMARK  status: ('A' for Active; 'I' for Inactive)
REMARK    1  A    between atoms: C_6  and  N_7 
REMARK       I    between atoms: N_7  and  C_8 
REMARK    2  A    between atoms: C_8  and  C_9 
REMARK    3  A    between atoms: C_20  and  O_21 
ROOT
HETATM    1  C   UNL     1      -4.196   5.122 -33.161  1.00  0.00     0.153 A 
HETATM    2  N   UNL     1      -5.267   5.641 -33.808  1.00  0.00    -0.168 NA
HETATM    3  N   UNL     1      -6.045   4.570 -34.076  1.00  0.00    -0.276 N 
HETATM    4  H   UNL     1      -6.922   4.720 -34.562  1.00  0.00     0.189 HD
HETATM    5  C   UNL     1      -5.525   3.395 -33.629  1.00  0.00     0.069 A 
HETATM    6  C   UNL     1      -4.333   3.719 -33.021  1.00  0.00     0.007 A 
HETATM    7  C   UNL     1      -3.458   2.677 -32.420  1.00  0.00     0.048 C 
HETATM    8  C   UNL     1      -4.285   1.443 -31.987  1.00  0.00     0.044 C 
HETATM    9  C   UNL     1      -5.406   1.059 -32.947  1.00  0.00    -0.043 A 
HETATM   10  C   UNL     1      -6.056   2.046 -33.723  1.00  0.00    -0.001 A 
HETATM   11  C   UNL     1      -5.860  -0.265 -32.999  1.00  0.00     0.044 A 
HETATM   12  C   UNL     1      -6.925  -0.623 -33.831  1.00  0.00     0.068 A 
HETATM   13  C   UNL     1      -7.557   0.358 -34.599  1.00  0.00     0.037 A 
HETATM   14  C   UNL     1      -7.127   1.690 -34.544  1.00  0.00     0.017 A 
ENDROOT
BRANCH   1  15
HETATM   15  C   UNL     1      -3.080   5.973 -32.702  1.00  0.00     0.277 C 
HETATM   16  N   UNL     1      -2.870   5.854 -31.341  1.00  0.00    -0.322 N 
HETATM   17  H   UNL     1      -3.516   5.207 -30.893  1.00  0.00     0.169 HD
HETATM   18  O   UNL     1      -2.446   6.681 -33.477  1.00  0.00    -0.266 OA
BRANCH  16  19
HETATM   19  C   UNL     1      -1.902   6.492 -30.549  1.00  0.00     0.037 A 
HETATM   20  C   UNL     1      -2.104   7.714 -29.907  1.00  0.00     0.072 A 
HETATM   21  C   UNL     1      -1.082   8.276 -29.144  1.00  0.00     0.124 A 
HETATM   22  C   UNL     1       0.159   7.651 -29.007  1.00  0.00    -0.023 A 
HETATM   23  F   UNL     1      -1.305   9.447 -28.531  1.00  0.00    -0.205 F 
HETATM   24  C   UNL     1       1.226   8.269 -28.157  1.00  0.00     0.051 C 
HETATM   25  C   UNL     1       0.356   6.419 -29.636  1.00  0.00     0.012 A 
HETATM   26  C   UNL     1      -0.665   5.849 -30.404  1.00  0.00     0.030 A 
ENDBRANCH  16  19
ENDBRANCH   1  15
BRANCH  12  27
HETATM   27  O   UNL     1      -7.252  -1.950 -33.796  1.00  0.00    -0.356 OA
HETATM   28  C   UNL     1      -6.538  -2.814 -34.672  1.00  0.00     0.210 C 
ENDBRANCH  12  27
TORSDOF 3
ENDMDL
MODEL 8
REMARK VINA RESULT:      -8.7      3.694      5.046
REMARK  3 active torsions:
REMARK  status: ('A' for Active; 'I' for Inactive)
REMARK    1  A    between atoms: C_6  and  N_7 
REMARK       I    between atoms: N_7  and  C_8 
REMARK    2  A    between atoms: C_8  and  C_9 
REMARK    3  A    between atoms: C_20  and  O_21 
ROOT
HETATM    1  C   UNL     1      -0.982   5.102 -30.815  1.00  0.00     0.153 A 
HETATM    2  N   UNL     1       0.174   4.524 -30.410  1.00  0.00    -0.168 NA
HETATM    3  N   UNL     1       0.699   5.408 -29.535  1.00  0.00    -0.276 N 
HETATM    4  H   UNL     1       1.580   5.181 -29.089  1.00  0.00     0.189 HD
HETATM    5  C   UNL     1      -0.067   6.520 -29.359  1.00  0.00     0.069 A 
HETATM    6  C   UNL     1      -1.169   6.348 -30.166  1.00  0.00     0.007 A 
HETATM    7  C   UNL     1      -2.236   7.380 -30.257  1.00  0.00     0.048 C 
HETATM    8  C   UNL     1      -2.297   8.226 -28.963  1.00  0.00     0.044 C 
HETATM    9  C   UNL     1      -0.939   8.562 -28.356  1.00  0.00    -0.043 A 
HETATM   10  C   UNL     1       0.155   7.679 -28.513  1.00  0.00    -0.001 A 
HETATM   11  C   UNL     1      -0.790   9.706 -27.562  1.00  0.00     0.044 A 
HETATM   12  C   UNL     1       0.433   9.997 -26.951  1.00  0.00     0.068 A 
HETATM   13  C   UNL     1       1.509   9.124 -27.117  1.00  0.00     0.037 A 
HETATM   14  C   UNL     1       1.372   7.966 -27.893  1.00  0.00     0.017 A 
ENDROOT
BRANCH   1  15
HETATM   15  C   UNL     1      -1.866   4.456 -31.806  1.00  0.00     0.277 C 
HETATM   16  N   UNL     1      -2.687   3.510 -31.222  1.00  0.00    -0.322 N 
HETATM   17  H   UNL     1      -2.541   3.421 -30.219  1.00  0.00     0.169 HD
HETATM   18  O   UNL     1      -1.837   4.760 -32.994  1.00  0.00    -0.266 OA
BRANCH  16  19
HETATM   19  C   UNL     1      -3.659   2.702 -31.833  1.00  0.00     0.037 A 
HETATM   20  C   UNL     1      -3.486   1.345 -32.101  1.00  0.00     0.072 A 
HETATM   21  C   UNL     1      -4.507   0.622 -32.718  1.00  0.00     0.124 A 
HETATM   22  C   UNL     1      -5.711   1.225 -33.088  1.00  0.00    -0.023 A 
HETATM   23  F   UNL     1      -4.319  -0.684 -32.957  1.00  0.00    -0.205 F 
HETATM   24  C   UNL     1      -6.798   0.413 -33.723  1.00  0.00     0.051 C 
HETATM   25  C   UNL     1      -5.890   2.581 -32.804  1.00  0.00     0.012 A 
HETATM   26  C   UNL     1      -4.871   3.312 -32.186  1.00  0.00     0.030 A 
ENDBRANCH  16  19
ENDBRANCH   1  15
BRANCH  12  27
HETATM   27  O   UNL     1       0.441  11.153 -26.220  1.00  0.00    -0.356 OA
HETATM   28  C   UNL     1       1.433  11.269 -25.208  1.00  0.00     0.210 C 
ENDBRANCH  12  27
TORSDOF 3
ENDMDL
MODEL 9
REMARK VINA RESULT:      -8.7      5.840      6.962
REMARK  3 active torsions:
REMARK  status: ('A' for Active; 'I' for Inactive)
REMARK    1  A    between atoms: C_6  and  N_7 
REMARK       I    between atoms: N_7  and  C_8 
REMARK    2  A    between atoms: C_8  and  C_9 
REMARK    3  A    between atoms: C_20  and  O_21 
ROOT
HETATM    1  C   UNL     1      -7.954   2.079 -33.452  1.00  0.00     0.153 A 
HETATM    2  N   UNL     1      -7.197   3.198 -33.350  1.00  0.00    -0.168 NA
HETATM    3  N   UNL     1      -8.010   4.189 -33.777  1.00  0.00    -0.276 N 
HETATM    4  H   UNL     1      -7.652   5.138 -33.783  1.00  0.00     0.189 HD
HETATM    5  C   UNL     1      -9.247   3.758 -34.143  1.00  0.00     0.069 A 
HETATM    6  C   UNL     1      -9.248   2.396 -33.934  1.00  0.00     0.007 A 
HETATM    7  C   UNL     1     -10.439   1.562 -34.244  1.00  0.00     0.048 C 
HETATM    8  C   UNL     1     -11.737   2.400 -34.160  1.00  0.00     0.044 C 
HETATM    9  C   UNL     1     -11.617   3.818 -34.708  1.00  0.00    -0.043 A 
HETATM   10  C   UNL     1     -10.384   4.509 -34.647  1.00  0.00    -0.001 A 
HETATM   11  C   UNL     1     -12.751   4.480 -35.194  1.00  0.00     0.044 A 
HETATM   12  C   UNL     1     -12.670   5.800 -35.646  1.00  0.00     0.068 A 
HETATM   13  C   UNL     1     -11.447   6.471 -35.588  1.00  0.00     0.037 A 
HETATM   14  C   UNL     1     -10.307   5.831 -35.088  1.00  0.00     0.017 A 
ENDROOT
BRANCH   1  15
HETATM   15  C   UNL     1      -7.422   0.749 -33.095  1.00  0.00     0.277 C 
HETATM   16  N   UNL     1      -6.597   0.244 -34.082  1.00  0.00    -0.322 N 
HETATM   17  H   UNL     1      -6.501   0.870 -34.879  1.00  0.00     0.169 HD
HETATM   18  O   UNL     1      -7.708   0.201 -32.035  1.00  0.00    -0.266 OA
BRANCH  16  19
HETATM   19  C   UNL     1      -5.905  -0.978 -34.101  1.00  0.00     0.037 A 
HETATM   20  C   UNL     1      -6.321  -2.098 -34.820  1.00  0.00     0.072 A 
HETATM   21  C   UNL     1      -5.571  -3.272 -34.774  1.00  0.00     0.124 A 
HETATM   22  C   UNL     1      -4.405  -3.367 -34.012  1.00  0.00    -0.023 A 
HETATM   23  F   UNL     1      -5.989  -4.332 -35.481  1.00  0.00    -0.205 F 
HETATM   24  C   UNL     1      -3.608  -4.635 -34.007  1.00  0.00     0.051 C 
HETATM   25  C   UNL     1      -3.979  -2.240 -33.305  1.00  0.00     0.012 A 
HETATM   26  C   UNL     1      -4.726  -1.058 -33.346  1.00  0.00     0.030 A 
ENDBRANCH  16  19
ENDBRANCH   1  15
BRANCH  12  27
HETATM   27  O   UNL     1     -13.849   6.315 -36.109  1.00  0.00    -0.356 OA
HETATM   28  C   UNL     1     -13.763   7.382 -37.045  1.00  0.00     0.210 C 
ENDBRANCH  12  27
TORSDOF 3
ENDMDL
MODEL 10
REMARK VINA RESULT:      -8.6      2.137      2.831
REMARK  3 active torsions:
REMARK  status: ('A' for Active; 'I' for Inactive)
REMARK    1  A    between atoms: C_6  and  N_7 
REMARK       I    between atoms: N_7  and  C_8 
REMARK    2  A    between atoms: C_8  and  C_9 
REMARK    3  A    between atoms: C_20  and  O_21 
ROOT
HETATM    1  C   UNL     1      -4.066   2.069 -31.322  1.00  0.00     0.153 A 
HETATM    2  N   UNL     1      -2.867   2.686 -31.449  1.00  0.00    -0.168 NA
HETATM    3  N   UNL     1      -3.119   3.973 -31.125  1.00  0.00    -0.276 N 
HETATM    4  H   UNL     1      -2.352   4.635 -31.144  1.00  0.00     0.189 HD
HETATM    5  C   UNL     1      -4.419   4.206 -30.794  1.00  0.00     0.069 A 
HETATM    6  C   UNL     1      -5.057   2.990 -30.901  1.00  0.00     0.007 A 
HETATM    7  C   UNL     1      -6.513   2.849 -30.633  1.00  0.00     0.048 C 
HETATM    8  C   UNL     1      -7.003   3.944 -29.656  1.00  0.00     0.044 C 
HETATM    9  C   UNL     1      -6.381   5.320 -29.875  1.00  0.00    -0.043 A 
HETATM   10  C   UNL     1      -5.071   5.440 -30.394  1.00  0.00    -0.001 A 
HETATM   11  C   UNL     1      -7.072   6.472 -29.480  1.00  0.00     0.044 A 
HETATM   12  C   UNL     1      -6.493   7.736 -29.621  1.00  0.00     0.068 A 
HETATM   13  C   UNL     1      -5.201   7.846 -30.140  1.00  0.00     0.037 A 
HETATM   14  C   UNL     1      -4.489   6.702 -30.523  1.00  0.00     0.017 A 
ENDROOT
BRANCH   1  15
HETATM   15  C   UNL     1      -4.231   0.630 -31.609  1.00  0.00     0.277 C 
HETATM   16  N   UNL     1      -4.833   0.417 -32.835  1.00  0.00    -0.322 N 
HETATM   17  H   UNL     1      -5.058   1.282 -33.323  1.00  0.00     0.169 HD
HETATM   18  O   UNL     1      -3.861  -0.234 -30.821  1.00  0.00    -0.266 OA
BRANCH  16  19
HETATM   19  C   UNL     1      -5.146  -0.804 -33.453  1.00  0.00     0.037 A 
HETATM   20  C   UNL     1      -4.217  -1.818 -33.687  1.00  0.00     0.072 A 
HETATM   21  C   UNL     1      -4.618  -2.997 -34.314  1.00  0.00     0.124 A 
HETATM   22  C   UNL     1      -5.936  -3.194 -34.730  1.00  0.00    -0.023 A 
HETATM   23  F   UNL     1      -3.707  -3.959 -34.519  1.00  0.00    -0.205 F 
HETATM   24  C   UNL     1      -6.339  -4.484 -35.375  1.00  0.00     0.051 C 
HETATM   25  C   UNL     1      -6.870  -2.185 -34.481  1.00  0.00     0.012 A 
HETATM   26  C   UNL     1      -6.475  -0.999 -33.852  1.00  0.00     0.030 A 
ENDBRANCH  16  19
ENDBRANCH   1  15
BRANCH  12  27
HETATM   27  O   UNL     1      -7.285   8.772 -29.211  1.00  0.00    -0.356 OA
HETATM   28  C   UNL     1      -8.531   8.935 -29.878  1.00  0.00     0.210 C 
ENDBRANCH  12  27
TORSDOF 3
ENDMDL
