MODEL 1
REMARK VINA RESULT:      -8.6      0.000      0.000
REMARK  7 active torsions:
REMARK  status: ('A' for Active; 'I' for Inactive)
REMARK    1  A    between atoms: C_2  and  N_3 
REMARK    2  A    between atoms: C_4  and  C_5 
REMARK       I    between atoms: C_5  and  N_6 
REMARK    3  A    between atoms: N_6  and  C_7 
REMARK    4  A    between atoms: C_7  and  C_8 
REMARK    5  A    between atoms: C_19  and  N_20 
REMARK       I    between atoms: N_20  and  C_21 
REMARK    6  A    between atoms: C_21  and  C_22 
REMARK    7  A    between atoms: C_25  and  O_26 
ROOT
HETATM    1  N   UNL     1      -4.800   1.739 -31.960  1.00  0.00    -0.342 N 
HETATM    2  C   UNL     1      -4.492   3.044 -32.316  1.00  0.00     0.104 A 
HETATM    3  C   UNL     1      -5.704   3.668 -32.577  1.00  0.00     0.049 A 
HETATM    4  C   UNL     1      -6.750   2.728 -32.417  1.00  0.00    -0.005 A 
HETATM    5  C   UNL     1      -6.166   1.517 -32.057  1.00  0.00     0.045 A 
HETATM    6  C   UNL     1      -8.152   2.812 -32.554  1.00  0.00     0.043 A 
HETATM    7  C   UNL     1      -8.948   1.684 -32.339  1.00  0.00     0.035 A 
HETATM    8  C   UNL     1      -8.335   0.473 -32.007  1.00  0.00     0.032 A 
HETATM    9  C   UNL     1      -6.945   0.367 -31.855  1.00  0.00     0.033 A 
ENDROOT
BRANCH   7  10
HETATM   10  N   UNL     1     -10.357   1.695 -32.451  1.00  0.00    -0.323 N 
HETATM   11  C   UNL     1     -11.092   1.834 -33.615  1.00  0.00     0.256 C 
HETATM   12  O   UNL     1     -10.663   2.043 -34.742  1.00  0.00    -0.267 OA
HETATM   13  H   UNL     1     -10.870   1.692 -31.580  1.00  0.00     0.169 HD
BRANCH  11  14
HETATM   14  C   UNL     1     -12.567   1.761 -33.438  1.00  0.00     0.032 A 
HETATM   15  C   UNL     1     -13.177   2.662 -32.561  1.00  0.00     0.020 A 
HETATM   16  C   UNL     1     -14.564   2.648 -32.401  1.00  0.00     0.038 A 
HETATM   17  C   UNL     1     -15.352   1.761 -33.137  1.00  0.00     0.068 A 
HETATM   18  C   UNL     1     -14.742   0.855 -34.009  1.00  0.00     0.038 A 
HETATM   19  C   UNL     1     -13.350   0.856 -34.164  1.00  0.00     0.020 A 
BRANCH  17  20
HETATM   20  O   UNL     1     -16.697   1.860 -32.909  1.00  0.00    -0.356 OA
HETATM   21  C   UNL     1     -17.121   2.987 -32.149  1.00  0.00     0.210 C 
ENDBRANCH  17  20
ENDBRANCH  11  14
ENDBRANCH   7  10
BRANCH   2  22
HETATM   22  C   UNL     1      -3.156   3.615 -32.374  1.00  0.00     0.268 C 
HETATM   23  N   UNL     1      -2.735   4.162 -31.178  1.00  0.00    -0.353 N 
HETATM   24  H   UNL     1      -3.422   4.263 -30.445  1.00  0.00     0.162 HD
HETATM   25  O   UNL     1      -2.458   3.623 -33.382  1.00  0.00    -0.266 OA
BRANCH  23  26
HETATM   26  C   UNL     1      -1.504   4.925 -31.072  1.00  0.00     0.160 C 
BRANCH  26  27
HETATM   27  C   UNL     1      -1.721   6.464 -31.051  1.00  0.00     0.073 C 
HETATM   28  O   UNL     1      -2.885   6.819 -31.821  1.00  0.00    -0.379 OA
HETATM   29  C   UNL     1      -2.476   7.181 -33.149  1.00  0.00     0.169 C 
HETATM   30  C   UNL     1      -0.963   7.107 -33.204  1.00  0.00     0.029 C 
HETATM   31  C   UNL     1      -0.569   7.188 -31.748  1.00  0.00     0.041 C 
HETATM   32  C   UNL     1      -1.918   6.975 -29.624  1.00  0.00     0.047 C 
ENDBRANCH  26  27
ENDBRANCH  23  26
ENDBRANCH   2  22
BRANCH   1  33
HETATM   33  C   UNL     1      -3.832   0.725 -31.562  1.00  0.00     0.125 C 
HETATM   34  C   UNL     1      -3.344  -0.108 -32.734  1.00  0.00     0.027 C 
ENDBRANCH   1  33
TORSDOF 7
ENDMDL
MODEL 2
REMARK VINA RESULT:      -8.3      2.510      4.319
REMARK  7 active torsions:
REMARK  status: ('A' for Active; 'I' for Inactive)
REMARK    1  A    between atoms: C_2  and  N_3 
REMARK    2  A    between atoms: C_4  and  C_5 
REMARK       I    between atoms: C_5  and  N_6 
REMARK    3  A    between atoms: N_6  and  C_7 
REMARK    4  A    between atoms: C_7  and  C_8 
REMARK    5  A    between atoms: C_19  and  N_20 
REMARK       I    between atoms: N_20  and  C_21 
REMARK    6  A    between atoms: C_21  and  C_22 
REMARK    7  A    between atoms: C_25  and  O_26 
ROOT
HETATM    1  N   UNL     1      -2.337   5.383 -32.729  1.00  0.00    -0.342 N 
HETATM    2  C   UNL     1      -1.933   4.856 -31.510  1.00  0.00     0.104 A 
HETATM    3  C   UNL     1      -2.971   4.039 -31.082  1.00  0.00     0.049 A 
HETATM    4  C   UNL     1      -4.026   4.101 -32.024  1.00  0.00    -0.005 A 
HETATM    5  C   UNL     1      -3.625   4.968 -33.036  1.00  0.00     0.045 A 
HETATM    6  C   UNL     1      -5.295   3.488 -32.093  1.00  0.00     0.043 A 
HETATM    7  C   UNL     1      -6.148   3.758 -33.167  1.00  0.00     0.035 A 
HETATM    8  C   UNL     1      -5.734   4.655 -34.155  1.00  0.00     0.032 A 
HETATM    9  C   UNL     1      -4.473   5.269 -34.114  1.00  0.00     0.033 A 
ENDROOT
BRANCH   7  10
HETATM   10  N   UNL     1      -7.429   3.177 -33.306  1.00  0.00    -0.323 N 
HETATM   11  C   UNL     1      -7.739   2.014 -33.988  1.00  0.00     0.256 C 
HETATM   12  O   UNL     1      -6.981   1.319 -34.650  1.00  0.00    -0.267 OA
HETATM   13  H   UNL     1      -8.202   3.721 -32.946  1.00  0.00     0.169 HD
BRANCH  11  14
HETATM   14  C   UNL     1      -9.170   1.615 -33.928  1.00  0.00     0.032 A 
HETATM   15  C   UNL     1      -9.511   0.460 -33.217  1.00  0.00     0.020 A 
HETATM   16  C   UNL     1     -10.849   0.078 -33.107  1.00  0.00     0.038 A 
HETATM   17  C   UNL     1     -11.856   0.860 -33.675  1.00  0.00     0.068 A 
HETATM   18  C   UNL     1     -11.516   2.011 -34.391  1.00  0.00     0.038 A 
HETATM   19  C   UNL     1     -10.175   2.392 -34.516  1.00  0.00     0.020 A 
BRANCH  17  20
HETATM   20  O   UNL     1     -13.127   0.393 -33.479  1.00  0.00    -0.356 OA
HETATM   21  C   UNL     1     -14.167   1.120 -34.124  1.00  0.00     0.210 C 
ENDBRANCH  17  20
ENDBRANCH  11  14
ENDBRANCH   7  10
BRANCH   2  22
HETATM   22  C   UNL     1      -0.661   5.112 -30.854  1.00  0.00     0.268 C 
HETATM   23  N   UNL     1      -0.768   5.902 -29.727  1.00  0.00    -0.353 N 
HETATM   24  H   UNL     1      -1.656   6.352 -29.557  1.00  0.00     0.162 HD
HETATM   25  O   UNL     1       0.414   4.678 -31.253  1.00  0.00    -0.266 OA
BRANCH  23  26
HETATM   26  C   UNL     1       0.399   6.408 -29.029  1.00  0.00     0.160 C 
BRANCH  26  27
HETATM   27  C   UNL     1       0.082   7.009 -27.631  1.00  0.00     0.073 C 
HETATM   28  O   UNL     1      -0.694   8.215 -27.766  1.00  0.00    -0.379 OA
HETATM   29  C   UNL     1       0.190   9.346 -27.738  1.00  0.00     0.169 C 
HETATM   30  C   UNL     1       1.597   8.830 -27.513  1.00  0.00     0.029 C 
HETATM   31  C   UNL     1       1.362   7.459 -26.926  1.00  0.00     0.041 C 
HETATM   32  C   UNL     1      -0.711   6.025 -26.772  1.00  0.00     0.047 C 
ENDBRANCH  26  27
ENDBRANCH  23  26
ENDBRANCH   2  22
BRANCH   1  33
HETATM   33  C   UNL     1      -1.540   6.270 -33.566  1.00  0.00     0.125 C 
HETATM   34  C   UNL     1      -0.979   5.568 -34.790  1.00  0.00     0.027 C 
ENDBRANCH   1  33
TORSDOF 7
ENDMDL
MODEL 3
REMARK VINA RESULT:      -8.2      2.872      4.537
REMARK  7 active torsions:
REMARK  status: ('A' for Active; 'I' for Inactive)
REMARK    1  A    between atoms: C_2  and  N_3 
REMARK    2  A    between atoms: C_4  and  C_5 
REMARK       I    between atoms: C_5  and  N_6 
REMARK    3  A    between atoms: N_6  and  C_7 
REMARK    4  A    between atoms: C_7  and  C_8 
REMARK    5  A    between atoms: C_19  and  N_20 
REMARK       I    between atoms: N_20  and  C_21 
REMARK    6  A    between atoms: C_21  and  C_22 
REMARK    7  A    between atoms: C_25  and  O_26 
ROOT
HETATM    1  N   UNL     1      -3.050   5.977 -32.142  1.00  0.00    -0.342 N 
HETATM    2  C   UNL     1      -3.368   6.604 -30.946  1.00  0.00     0.104 A 
HETATM    3  C   UNL     1      -4.712   6.342 -30.720  1.00  0.00     0.049 A 
HETATM    4  C   UNL     1      -5.223   5.586 -31.802  1.00  0.00    -0.005 A 
HETATM    5  C   UNL     1      -4.177   5.389 -32.699  1.00  0.00     0.045 A 
HETATM    6  C   UNL     1      -6.498   5.056 -32.092  1.00  0.00     0.043 A 
HETATM    7  C   UNL     1      -6.711   4.345 -33.276  1.00  0.00     0.035 A 
HETATM    8  C   UNL     1      -5.651   4.186 -34.174  1.00  0.00     0.032 A 
HETATM    9  C   UNL     1      -4.372   4.695 -33.903  1.00  0.00     0.033 A 
ENDROOT
BRANCH   7  10
HETATM   10  N   UNL     1      -7.958   3.780 -33.630  1.00  0.00    -0.323 N 
HETATM   11  C   UNL     1      -8.985   4.408 -34.312  1.00  0.00     0.256 C 
HETATM   12  O   UNL     1      -9.033   5.578 -34.667  1.00  0.00    -0.267 OA
HETATM   13  H   UNL     1      -8.144   2.856 -33.265  1.00  0.00     0.169 HD
BRANCH  11  14
HETATM   14  C   UNL     1     -10.169   3.552 -34.588  1.00  0.00     0.032 A 
HETATM   15  C   UNL     1     -10.213   2.274 -34.023  1.00  0.00     0.020 A 
HETATM   16  C   UNL     1     -11.328   1.459 -34.229  1.00  0.00     0.038 A 
HETATM   17  C   UNL     1     -12.415   1.922 -34.971  1.00  0.00     0.068 A 
HETATM   18  C   UNL     1     -12.369   3.196 -35.543  1.00  0.00     0.038 A 
HETATM   19  C   UNL     1     -11.249   4.014 -35.350  1.00  0.00     0.020 A 
BRANCH  17  20
HETATM   20  O   UNL     1     -13.454   1.039 -35.082  1.00  0.00    -0.356 OA
HETATM   21  C   UNL     1     -13.835   0.367 -33.887  1.00  0.00     0.210 C 
ENDBRANCH  17  20
ENDBRANCH  11  14
ENDBRANCH   7  10
BRANCH   2  22
HETATM   22  C   UNL     1      -2.447   7.359 -30.111  1.00  0.00     0.268 C 
HETATM   23  N   UNL     1      -1.991   6.657 -29.014  1.00  0.00    -0.353 N 
HETATM   24  H   UNL     1      -2.443   5.779 -28.802  1.00  0.00     0.162 HD
HETATM   25  O   UNL     1      -2.101   8.512 -30.345  1.00  0.00    -0.266 OA
BRANCH  23  26
HETATM   26  C   UNL     1      -1.198   7.286 -27.974  1.00  0.00     0.160 C 
BRANCH  26  27
HETATM   27  C   UNL     1       0.313   6.923 -28.030  1.00  0.00     0.073 C 
HETATM   28  O   UNL     1       0.827   6.705 -26.702  1.00  0.00    -0.379 OA
HETATM   29  C   UNL     1       1.427   7.919 -26.227  1.00  0.00     0.169 C 
HETATM   30  C   UNL     1       1.341   8.945 -27.339  1.00  0.00     0.029 C 
HETATM   31  C   UNL     1       1.136   8.093 -28.569  1.00  0.00     0.041 C 
HETATM   32  C   UNL     1       0.546   5.653 -28.847  1.00  0.00     0.047 C 
ENDBRANCH  26  27
ENDBRANCH  23  26
ENDBRANCH   2  22
BRANCH   1  33
HETATM   33  C   UNL     1      -1.727   5.954 -32.753  1.00  0.00     0.125 C 
HETATM   34  C   UNL     1      -1.530   7.073 -33.760  1.00  0.00     0.027 C 
ENDBRANCH   1  33
TORSDOF 7
ENDMDL
MODEL 4
REMARK VINA RESULT:      -8.1      4.499     12.082
REMARK  7 active torsions:
REMARK  status: ('A' for Active; 'I' for Inactive)
REMARK    1  A    between atoms: C_2  and  N_3 
REMARK    2  A    between atoms: C_4  and  C_5 
REMARK       I    between atoms: C_5  and  N_6 
REMARK    3  A    between atoms: N_6  and  C_7 
REMARK    4  A    between atoms: C_7  and  C_8 
REMARK    5  A    between atoms: C_19  and  N_20 
REMARK       I    between atoms: N_20  and  C_21 
REMARK    6  A    between atoms: C_21  and  C_22 
REMARK    7  A    between atoms: C_25  and  O_26 
ROOT
HETATM    1  N   UNL     1      -3.344   5.636 -33.426  1.00  0.00    -0.342 N 
HETATM    2  C   UNL     1      -4.490   5.159 -32.804  1.00  0.00     0.104 A 
HETATM    3  C   UNL     1      -4.384   5.527 -31.470  1.00  0.00     0.049 A 
HETATM    4  C   UNL     1      -3.152   6.194 -31.272  1.00  0.00    -0.005 A 
HETATM    5  C   UNL     1      -2.499   6.231 -32.501  1.00  0.00     0.045 A 
HETATM    6  C   UNL     1      -2.537   6.769 -30.139  1.00  0.00     0.043 A 
HETATM    7  C   UNL     1      -1.276   7.362 -30.249  1.00  0.00     0.035 A 
HETATM    8  C   UNL     1      -0.629   7.360 -31.488  1.00  0.00     0.032 A 
HETATM    9  C   UNL     1      -1.225   6.804 -32.630  1.00  0.00     0.033 A 
ENDROOT
BRANCH   7  10
HETATM   10  N   UNL     1      -0.603   7.962 -29.161  1.00  0.00    -0.323 N 
HETATM   11  C   UNL     1       0.337   7.365 -28.340  1.00  0.00     0.256 C 
HETATM   12  O   UNL     1       0.702   6.197 -28.359  1.00  0.00    -0.267 OA
HETATM   13  H   UNL     1      -0.911   8.892 -28.908  1.00  0.00     0.169 HD
BRANCH  11  14
HETATM   14  C   UNL     1       0.917   8.255 -27.300  1.00  0.00     0.032 A 
HETATM   15  C   UNL     1       0.481   9.582 -27.240  1.00  0.00     0.020 A 
HETATM   16  C   UNL     1       0.975  10.434 -26.250  1.00  0.00     0.038 A 
HETATM   17  C   UNL     1       1.879   9.962 -25.297  1.00  0.00     0.068 A 
HETATM   18  C   UNL     1       2.320   8.637 -25.360  1.00  0.00     0.038 A 
HETATM   19  C   UNL     1       1.839   7.781 -26.358  1.00  0.00     0.020 A 
BRANCH  17  20
HETATM   20  O   UNL     1       2.270  10.886 -24.368  1.00  0.00    -0.356 OA
HETATM   21  C   UNL     1       3.285  10.470 -23.460  1.00  0.00     0.210 C 
ENDBRANCH  17  20
ENDBRANCH  11  14
ENDBRANCH   7  10
BRANCH   2  22
HETATM   22  C   UNL     1      -5.574   4.441 -33.456  1.00  0.00     0.268 C 
HETATM   23  N   UNL     1      -5.573   3.085 -33.200  1.00  0.00    -0.353 N 
HETATM   24  H   UNL     1      -4.762   2.698 -32.739  1.00  0.00     0.162 HD
HETATM   25  O   UNL     1      -6.415   4.975 -34.171  1.00  0.00    -0.266 OA
BRANCH  23  26
HETATM   26  C   UNL     1      -6.469   2.172 -33.886  1.00  0.00     0.160 C 
BRANCH  26  27
HETATM   27  C   UNL     1      -6.778   0.876 -33.086  1.00  0.00     0.073 C 
HETATM   28  O   UNL     1      -5.573   0.115 -32.878  1.00  0.00    -0.379 OA
HETATM   29  C   UNL     1      -5.466  -0.883 -33.904  1.00  0.00     0.169 C 
HETATM   30  C   UNL     1      -6.702  -0.786 -34.776  1.00  0.00     0.029 C 
HETATM   31  C   UNL     1      -7.683  -0.059 -33.889  1.00  0.00     0.041 C 
HETATM   32  C   UNL     1      -7.381   1.200 -31.720  1.00  0.00     0.047 C 
ENDBRANCH  26  27
ENDBRANCH  23  26
ENDBRANCH   2  22
BRANCH   1  33
HETATM   33  C   UNL     1      -3.047   5.513 -34.847  1.00  0.00     0.125 C 
HETATM   34  C   UNL     1      -1.674   4.918 -35.106  1.00  0.00     0.027 C 
ENDBRANCH   1  33
TORSDOF 7
ENDMDL
MODEL 5
REMARK VINA RESULT:      -8.0      1.940     10.694
REMARK  7 active torsions:
REMARK  status: ('A' for Active; 'I' for Inactive)
REMARK    1  A    between atoms: C_2  and  N_3 
REMARK    2  A    between atoms: C_4  and  C_5 
REMARK       I    between atoms: C_5  and  N_6 
REMARK    3  A    between atoms: N_6  and  C_7 
REMARK    4  A    between atoms: C_7  and  C_8 
REMARK    5  A    between atoms: C_19  and  N_20 
REMARK       I    between atoms: N_20  and  C_21 
REMARK    6  A    between atoms: C_21  and  C_22 
REMARK    7  A    between atoms: C_25  and  O_26 
ROOT
HETATM    1  N   UNL     1      -7.164  -0.018 -32.921  1.00  0.00    -0.342 N 
HETATM    2  C   UNL     1      -8.340   0.621 -32.555  1.00  0.00     0.104 A 
HETATM    3  C   UNL     1      -7.959   1.826 -31.980  1.00  0.00     0.049 A 
HETATM    4  C   UNL     1      -6.546   1.902 -31.961  1.00  0.00    -0.005 A 
HETATM    5  C   UNL     1      -6.061   0.727 -32.529  1.00  0.00     0.045 A 
HETATM    6  C   UNL     1      -5.638   2.879 -31.501  1.00  0.00     0.043 A 
HETATM    7  C   UNL     1      -4.261   2.665 -31.606  1.00  0.00     0.035 A 
HETATM    8  C   UNL     1      -3.800   1.464 -32.153  1.00  0.00     0.032 A 
HETATM    9  C   UNL     1      -4.682   0.482 -32.627  1.00  0.00     0.033 A 
ENDROOT
BRANCH   7  10
HETATM   10  N   UNL     1      -3.293   3.600 -31.173  1.00  0.00    -0.323 N 
HETATM   11  C   UNL     1      -2.570   4.469 -31.970  1.00  0.00     0.256 C 
HETATM   12  O   UNL     1      -2.581   4.538 -33.191  1.00  0.00    -0.267 OA
HETATM   13  H   UNL     1      -3.046   3.558 -30.193  1.00  0.00     0.169 HD
BRANCH  11  14
HETATM   14  C   UNL     1      -1.651   5.377 -31.233  1.00  0.00     0.032 A 
HETATM   15  C   UNL     1      -2.201   6.448 -30.522  1.00  0.00     0.020 A 
HETATM   16  C   UNL     1      -1.371   7.296 -29.787  1.00  0.00     0.038 A 
HETATM   17  C   UNL     1       0.005   7.064 -29.730  1.00  0.00     0.068 A 
HETATM   18  C   UNL     1       0.556   5.998 -30.445  1.00  0.00     0.038 A 
HETATM   19  C   UNL     1      -0.270   5.151 -31.195  1.00  0.00     0.020 A 
BRANCH  17  20
HETATM   20  O   UNL     1       0.706   7.950 -28.959  1.00  0.00    -0.356 OA
HETATM   21  C   UNL     1       1.096   7.487 -27.671  1.00  0.00     0.210 C 
ENDBRANCH  17  20
ENDBRANCH  11  14
ENDBRANCH   7  10
BRANCH   2  22
HETATM   22  C   UNL     1      -9.685   0.111 -32.766  1.00  0.00     0.268 C 
HETATM   23  N   UNL     1     -10.526   1.008 -33.394  1.00  0.00    -0.353 N 
HETATM   24  H   UNL     1     -10.199   1.958 -33.498  1.00  0.00     0.162 HD
HETATM   25  O   UNL     1     -10.054  -1.006 -32.421  1.00  0.00    -0.266 OA
BRANCH  23  26
HETATM   26  C   UNL     1     -11.947   0.753 -33.545  1.00  0.00     0.160 C 
BRANCH  26  27
HETATM   27  C   UNL     1     -12.750   1.975 -34.072  1.00  0.00     0.073 C 
HETATM   28  O   UNL     1     -12.751   3.035 -33.096  1.00  0.00    -0.379 OA
HETATM   29  C   UNL     1     -13.948   2.947 -32.309  1.00  0.00     0.169 C 
HETATM   30  C   UNL     1     -14.779   1.803 -32.856  1.00  0.00     0.029 C 
HETATM   31  C   UNL     1     -14.227   1.623 -34.250  1.00  0.00     0.041 C 
HETATM   32  C   UNL     1     -12.147   2.518 -35.366  1.00  0.00     0.047 C 
ENDBRANCH  26  27
ENDBRANCH  23  26
ENDBRANCH   2  22
BRANCH   1  33
HETATM   33  C   UNL     1      -7.083  -1.305 -33.600  1.00  0.00     0.125 C 
HETATM   34  C   UNL     1      -6.799  -1.164 -35.085  1.00  0.00     0.027 C 
ENDBRANCH   1  33
TORSDOF 7
ENDMDL
MODEL 6
REMARK VINA RESULT:      -7.7      6.861     14.817
REMARK  7 active torsions:
REMARK  status: ('A' for Active; 'I' for Inactive)
REMARK    1  A    between atoms: C_2  and  N_3 
REMARK    2  A    between atoms: C_4  and  C_5 
REMARK       I    between atoms: C_5  and  N_6 
REMARK    3  A    between atoms: N_6  and  C_7 
REMARK    4  A    between atoms: C_7  and  C_8 
REMARK    5  A    between atoms: C_19  and  N_20 
REMARK       I    between atoms: N_20  and  C_21 
REMARK    6  A    between atoms: C_21  and  C_22 
REMARK    7  A    between atoms: C_25  and  O_26 
ROOT
HETATM    1  N   UNL     1      -1.208   8.076 -28.890  1.00  0.00    -0.342 N 
HETATM    2  C   UNL     1      -0.573   7.119 -29.668  1.00  0.00     0.104 A 
HETATM    3  C   UNL     1       0.557   6.735 -28.960  1.00  0.00     0.049 A 
HETATM    4  C   UNL     1       0.630   7.489 -27.765  1.00  0.00    -0.005 A 
HETATM    5  C   UNL     1      -0.468   8.344 -27.747  1.00  0.00     0.045 A 
HETATM    6  C   UNL     1       1.549   7.514 -26.694  1.00  0.00     0.043 A 
HETATM    7  C   UNL     1       1.363   8.398 -25.628  1.00  0.00     0.035 A 
HETATM    8  C   UNL     1       0.269   9.267 -25.649  1.00  0.00     0.032 A 
HETATM    9  C   UNL     1      -0.664   9.255 -26.697  1.00  0.00     0.033 A 
ENDROOT
BRANCH   7  10
HETATM   10  N   UNL     1       2.237   8.475 -24.520  1.00  0.00    -0.323 N 
HETATM   11  C   UNL     1       2.835   9.617 -24.017  1.00  0.00     0.256 C 
HETATM   12  O   UNL     1       2.776  10.749 -24.478  1.00  0.00    -0.267 OA
HETATM   13  H   UNL     1       2.520   7.591 -24.118  1.00  0.00     0.169 HD
BRANCH  11  14
HETATM   14  C   UNL     1       3.675   9.404 -22.808  1.00  0.00     0.032 A 
HETATM   15  C   UNL     1       3.615   8.163 -22.166  1.00  0.00     0.020 A 
HETATM   16  C   UNL     1       4.420   7.916 -21.052  1.00  0.00     0.038 A 
HETATM   17  C   UNL     1       5.309   8.889 -20.592  1.00  0.00     0.068 A 
HETATM   18  C   UNL     1       5.364  10.131 -21.229  1.00  0.00     0.038 A 
HETATM   19  C   UNL     1       4.551  10.390 -22.339  1.00  0.00     0.020 A 
BRANCH  17  20
HETATM   20  O   UNL     1       6.057   8.518 -19.509  1.00  0.00    -0.356 OA
HETATM   21  C   UNL     1       6.800   7.311 -19.645  1.00  0.00     0.210 C 
ENDBRANCH  17  20
ENDBRANCH  11  14
ENDBRANCH   7  10
BRANCH   2  22
HETATM   22  C   UNL     1      -1.039   6.625 -30.955  1.00  0.00     0.268 C 
HETATM   23  N   UNL     1      -1.620   5.375 -30.892  1.00  0.00    -0.353 N 
HETATM   24  H   UNL     1      -1.527   4.862 -30.027  1.00  0.00     0.162 HD
HETATM   25  O   UNL     1      -0.929   7.248 -32.006  1.00  0.00    -0.266 OA
BRANCH  23  26
HETATM   26  C   UNL     1      -1.996   4.641 -32.086  1.00  0.00     0.160 C 
BRANCH  26  27
HETATM   27  C   UNL     1      -3.485   4.197 -32.107  1.00  0.00     0.073 C 
HETATM   28  O   UNL     1      -3.992   4.200 -33.455  1.00  0.00    -0.379 OA
HETATM   29  C   UNL     1      -4.656   5.448 -33.703  1.00  0.00     0.169 C 
HETATM   30  C   UNL     1      -4.619   6.256 -32.420  1.00  0.00     0.029 C 
HETATM   31  C   UNL     1      -4.366   5.203 -31.367  1.00  0.00     0.041 C 
HETATM   32  C   UNL     1      -3.650   2.788 -31.538  1.00  0.00     0.047 C 
ENDBRANCH  26  27
ENDBRANCH  23  26
ENDBRANCH   2  22
BRANCH   1  33
HETATM   33  C   UNL     1      -2.465   8.733 -29.225  1.00  0.00     0.125 C 
HETATM   34  C   UNL     1      -2.260  10.022 -30.000  1.00  0.00     0.027 C 
ENDBRANCH   1  33
TORSDOF 7
ENDMDL
MODEL 7
REMARK VINA RESULT:      -7.6      4.923      7.076
REMARK  7 active torsions:
REMARK  status: ('A' for Active; 'I' for Inactive)
REMARK    1  A    between atoms: C_2  and  N_3 
REMARK    2  A    between atoms: C_4  and  C_5 
REMARK       I    between atoms: C_5  and  N_6 
REMARK    3  A    between atoms: N_6  and  C_7 
REMARK    4  A    between atoms: C_7  and  C_8 
REMARK    5  A    between atoms: C_19  and  N_20 
REMARK       I    between atoms: N_20  and  C_21 
REMARK    6  A    between atoms: C_21  and  C_22 
REMARK    7  A    between atoms: C_25  and  O_26 
ROOT
HETATM    1  N   UNL     1      -4.576   6.306 -29.711  1.00  0.00    -0.342 N 
HETATM    2  C   UNL     1      -3.415   6.784 -30.303  1.00  0.00     0.104 A 
HETATM    3  C   UNL     1      -3.003   5.799 -31.190  1.00  0.00     0.049 A 
HETATM    4  C   UNL     1      -3.894   4.702 -31.107  1.00  0.00    -0.005 A 
HETATM    5  C   UNL     1      -4.858   5.023 -30.157  1.00  0.00     0.045 A 
HETATM    6  C   UNL     1      -3.954   3.456 -31.767  1.00  0.00     0.043 A 
HETATM    7  C   UNL     1      -4.969   2.547 -31.461  1.00  0.00     0.035 A 
HETATM    8  C   UNL     1      -5.908   2.881 -30.481  1.00  0.00     0.032 A 
HETATM    9  C   UNL     1      -5.876   4.118 -29.819  1.00  0.00     0.033 A 
ENDROOT
BRANCH   7  10
HETATM   10  N   UNL     1      -5.096   1.284 -32.084  1.00  0.00    -0.323 N 
HETATM   11  C   UNL     1      -5.946   0.959 -33.125  1.00  0.00     0.256 C 
HETATM   12  O   UNL     1      -6.789   1.677 -33.646  1.00  0.00    -0.267 OA
HETATM   13  H   UNL     1      -4.576   0.528 -31.660  1.00  0.00     0.169 HD
BRANCH  11  14
HETATM   14  C   UNL     1      -5.832  -0.441 -33.614  1.00  0.00     0.032 A 
HETATM   15  C   UNL     1      -6.896  -0.981 -34.342  1.00  0.00     0.020 A 
HETATM   16  C   UNL     1      -6.805  -2.278 -34.850  1.00  0.00     0.038 A 
HETATM   17  C   UNL     1      -5.645  -3.031 -34.664  1.00  0.00     0.068 A 
HETATM   18  C   UNL     1      -4.583  -2.495 -33.930  1.00  0.00     0.038 A 
HETATM   19  C   UNL     1      -4.673  -1.199 -33.408  1.00  0.00     0.020 A 
BRANCH  17  20
HETATM   20  O   UNL     1      -5.670  -4.277 -35.229  1.00  0.00    -0.356 OA
HETATM   21  C   UNL     1      -4.916  -5.282 -34.561  1.00  0.00     0.210 C 
ENDBRANCH  17  20
ENDBRANCH  11  14
ENDBRANCH   7  10
BRANCH   2  22
HETATM   22  C   UNL     1      -2.795   8.073 -30.039  1.00  0.00     0.268 C 
HETATM   23  N   UNL     1      -1.738   8.008 -29.154  1.00  0.00    -0.353 N 
HETATM   24  H   UNL     1      -1.597   7.139 -28.660  1.00  0.00     0.162 HD
HETATM   25  O   UNL     1      -3.168   9.127 -30.543  1.00  0.00    -0.266 OA
BRANCH  23  26
HETATM   26  C   UNL     1      -1.096   9.202 -28.635  1.00  0.00     0.160 C 
BRANCH  26  27
HETATM   27  C   UNL     1      -0.118   8.927 -27.458  1.00  0.00     0.073 C 
HETATM   28  O   UNL     1      -0.691   7.976 -26.540  1.00  0.00    -0.379 OA
HETATM   29  C   UNL     1      -1.332   8.686 -25.469  1.00  0.00     0.169 C 
HETATM   30  C   UNL     1      -1.100  10.167 -25.691  1.00  0.00     0.029 C 
HETATM   31  C   UNL     1       0.093  10.187 -26.617  1.00  0.00     0.041 C 
HETATM   32  C   UNL     1       1.209   8.364 -27.962  1.00  0.00     0.047 C 
ENDBRANCH  26  27
ENDBRANCH  23  26
ENDBRANCH   2  22
BRANCH   1  33
HETATM   33  C   UNL     1      -5.381   7.030 -28.736  1.00  0.00     0.125 C 
HETATM   34  C   UNL     1      -4.944   6.765 -27.306  1.00  0.00     0.027 C 
ENDBRANCH   1  33
TORSDOF 7
ENDMDL
MODEL 8
REMARK VINA RESULT:      -7.5      1.918      2.757
REMARK  7 active torsions:
REMARK  status: ('A' for Active; 'I' for Inactive)
REMARK    1  A    between atoms: C_2  and  N_3 
REMARK    2  A    between atoms: C_4  and  C_5 
REMARK       I    between atoms: C_5  and  N_6 
REMARK    3  A    between atoms: N_6  and  C_7 
REMARK    4  A    between atoms: C_7  and  C_8 
REMARK    5  A    between atoms: C_19  and  N_20 
REMARK       I    between atoms: N_20  and  C_21 
REMARK    6  A    between atoms: C_21  and  C_22 
REMARK    7  A    between atoms: C_25  and  O_26 
ROOT
HETATM    1  N   UNL     1      -7.052   1.212 -33.601  1.00  0.00    -0.342 N 
HETATM    2  C   UNL     1      -6.399   1.938 -32.615  1.00  0.00     0.104 A 
HETATM    3  C   UNL     1      -7.394   2.550 -31.866  1.00  0.00     0.049 A 
HETATM    4  C   UNL     1      -8.655   2.227 -32.421  1.00  0.00    -0.005 A 
HETATM    5  C   UNL     1      -8.423   1.409 -33.524  1.00  0.00     0.045 A 
HETATM    6  C   UNL     1      -9.979   2.568 -32.073  1.00  0.00     0.043 A 
HETATM    7  C   UNL     1     -11.050   2.097 -32.837  1.00  0.00     0.035 A 
HETATM    8  C   UNL     1     -10.789   1.302 -33.956  1.00  0.00     0.032 A 
HETATM    9  C   UNL     1      -9.482   0.940 -34.317  1.00  0.00     0.033 A 
ENDROOT
BRANCH   7  10
HETATM   10  N   UNL     1     -12.402   2.392 -32.545  1.00  0.00    -0.323 N 
HETATM   11  C   UNL     1     -13.090   3.539 -32.896  1.00  0.00     0.256 C 
HETATM   12  O   UNL     1     -12.642   4.531 -33.454  1.00  0.00    -0.267 OA
HETATM   13  H   UNL     1     -12.878   1.735 -31.942  1.00  0.00     0.169 HD
BRANCH  11  14
HETATM   14  C   UNL     1     -14.522   3.558 -32.495  1.00  0.00     0.032 A 
HETATM   15  C   UNL     1     -15.099   4.781 -32.140  1.00  0.00     0.020 A 
HETATM   16  C   UNL     1     -16.451   4.841 -31.797  1.00  0.00     0.038 A 
HETATM   17  C   UNL     1     -17.242   3.692 -31.837  1.00  0.00     0.068 A 
HETATM   18  C   UNL     1     -16.665   2.468 -32.186  1.00  0.00     0.038 A 
HETATM   19  C   UNL     1     -15.307   2.399 -32.518  1.00  0.00     0.020 A 
BRANCH  17  20
HETATM   20  O   UNL     1     -18.555   3.884 -31.503  1.00  0.00    -0.356 OA
HETATM   21  C   UNL     1     -18.833   5.020 -30.691  1.00  0.00     0.210 C 
ENDBRANCH  17  20
ENDBRANCH  11  14
ENDBRANCH   7  10
BRANCH   2  22
HETATM   22  C   UNL     1      -4.959   2.005 -32.423  1.00  0.00     0.268 C 
HETATM   23  N   UNL     1      -4.422   3.249 -32.689  1.00  0.00    -0.353 N 
HETATM   24  H   UNL     1      -5.020   3.929 -33.134  1.00  0.00     0.162 HD
HETATM   25  O   UNL     1      -4.272   1.055 -32.064  1.00  0.00    -0.266 OA
BRANCH  23  26
HETATM   26  C   UNL     1      -2.988   3.477 -32.717  1.00  0.00     0.160 C 
BRANCH  26  27
HETATM   27  C   UNL     1      -2.587   4.971 -32.562  1.00  0.00     0.073 C 
HETATM   28  O   UNL     1      -3.437   5.806 -33.373  1.00  0.00    -0.379 OA
HETATM   29  C   UNL     1      -2.786   6.056 -34.628  1.00  0.00     0.169 C 
HETATM   30  C   UNL     1      -1.425   5.391 -34.586  1.00  0.00     0.029 C 
HETATM   31  C   UNL     1      -1.180   5.218 -33.106  1.00  0.00     0.041 C 
HETATM   32  C   UNL     1      -2.713   5.429 -31.110  1.00  0.00     0.047 C 
ENDBRANCH  26  27
ENDBRANCH  23  26
ENDBRANCH   2  22
BRANCH   1  33
HETATM   33  C   UNL     1      -6.400   0.374 -34.599  1.00  0.00     0.125 C 
HETATM   34  C   UNL     1      -6.374  -1.092 -34.203  1.00  0.00     0.027 C 
ENDBRANCH   1  33
TORSDOF 7
ENDMDL
MODEL 9
REMARK VINA RESULT:      -7.4      5.144     10.139
REMARK  7 active torsions:
REMARK  status: ('A' for Active; 'I' for Inactive)
REMARK    1  A    between atoms: C_2  and  N_3 
REMARK    2  A    between atoms: C_4  and  C_5 
REMARK       I    between atoms: C_5  and  N_6 
REMARK    3  A    between atoms: N_6  and  C_7 
REMARK    4  A    between atoms: C_7  and  C_8 
REMARK    5  A    between atoms: C_19  and  N_20 
REMARK       I    between atoms: N_20  and  C_21 
REMARK    6  A    between atoms: C_21  and  C_22 
REMARK    7  A    between atoms: C_25  and  O_26 
ROOT
HETATM    1  N   UNL     1     -12.512   4.028 -33.651  1.00  0.00    -0.342 N 
HETATM    2  C   UNL     1     -11.906   5.181 -34.130  1.00  0.00     0.104 A 
HETATM    3  C   UNL     1     -10.623   4.812 -34.509  1.00  0.00     0.049 A 
HETATM    4  C   UNL     1     -10.434   3.439 -34.224  1.00  0.00    -0.005 A 
HETATM    5  C   UNL     1     -11.617   2.967 -33.661  1.00  0.00     0.045 A 
HETATM    6  C   UNL     1      -9.346   2.557 -34.397  1.00  0.00     0.043 A 
HETATM    7  C   UNL     1      -9.452   1.222 -33.998  1.00  0.00     0.035 A 
HETATM    8  C   UNL     1     -10.640   0.781 -33.408  1.00  0.00     0.032 A 
HETATM    9  C   UNL     1     -11.739   1.636 -33.235  1.00  0.00     0.033 A 
ENDROOT
BRANCH   7  10
HETATM   10  N   UNL     1      -8.407   0.282 -34.145  1.00  0.00    -0.323 N 
HETATM   11  C   UNL     1      -7.467  -0.065 -33.192  1.00  0.00     0.256 C 
HETATM   12  O   UNL     1      -7.323   0.426 -32.080  1.00  0.00    -0.267 OA
HETATM   13  H   UNL     1      -8.287  -0.103 -35.073  1.00  0.00     0.169 HD
BRANCH  11  14
HETATM   14  C   UNL     1      -6.510  -1.123 -33.611  1.00  0.00     0.032 A 
HETATM   15  C   UNL     1      -5.204  -1.076 -33.112  1.00  0.00     0.020 A 
HETATM   16  C   UNL     1      -4.291  -2.075 -33.453  1.00  0.00     0.038 A 
HETATM   17  C   UNL     1      -4.681  -3.142 -34.265  1.00  0.00     0.068 A 
HETATM   18  C   UNL     1      -5.984  -3.187 -34.769  1.00  0.00     0.038 A 
HETATM   19  C   UNL     1      -6.900  -2.181 -34.441  1.00  0.00     0.020 A 
BRANCH  17  20
HETATM   20  O   UNL     1      -3.704  -4.068 -34.508  1.00  0.00    -0.356 OA
HETATM   21  C   UNL     1      -3.449  -4.998 -33.462  1.00  0.00     0.210 C 
ENDBRANCH  17  20
ENDBRANCH  11  14
ENDBRANCH   7  10
BRANCH   2  22
HETATM   22  C   UNL     1     -12.528   6.492 -34.221  1.00  0.00     0.268 C 
HETATM   23  N   UNL     1     -12.723   6.924 -35.517  1.00  0.00    -0.353 N 
HETATM   24  H   UNL     1     -12.285   6.393 -36.256  1.00  0.00     0.162 HD
HETATM   25  O   UNL     1     -12.852   7.164 -33.248  1.00  0.00    -0.266 OA
BRANCH  23  26
HETATM   26  C   UNL     1     -13.175   8.270 -35.819  1.00  0.00     0.160 C 
BRANCH  26  27
HETATM   27  C   UNL     1     -13.789   8.422 -37.239  1.00  0.00     0.073 C 
HETATM   28  O   UNL     1     -14.723   9.518 -37.268  1.00  0.00    -0.379 OA
HETATM   29  C   UNL     1     -16.049   9.009 -37.059  1.00  0.00     0.169 C 
HETATM   30  C   UNL     1     -15.955   7.501 -36.950  1.00  0.00     0.029 C 
HETATM   31  C   UNL     1     -14.629   7.198 -37.605  1.00  0.00     0.041 C 
HETATM   32  C   UNL     1     -12.707   8.689 -38.284  1.00  0.00     0.047 C 
ENDBRANCH  26  27
ENDBRANCH  23  26
ENDBRANCH   2  22
BRANCH   1  33
HETATM   33  C   UNL     1     -13.886   3.935 -33.177  1.00  0.00     0.125 C 
HETATM   34  C   UNL     1     -13.994   4.077 -31.669  1.00  0.00     0.027 C 
ENDBRANCH   1  33
TORSDOF 7
ENDMDL
MODEL 10
REMARK VINA RESULT:      -7.3      1.782      2.636
REMARK  7 active torsions:
REMARK  status: ('A' for Active; 'I' for Inactive)
REMARK    1  A    between atoms: C_2  and  N_3 
REMARK    2  A    between atoms: C_4  and  C_5 
REMARK       I    between atoms: C_5  and  N_6 
REMARK    3  A    between atoms: N_6  and  C_7 
REMARK    4  A    between atoms: C_7  and  C_8 
REMARK    5  A    between atoms: C_19  and  N_20 
REMARK       I    between atoms: N_20  and  C_21 
REMARK    6  A    between atoms: C_21  and  C_22 
REMARK    7  A    between atoms: C_25  and  O_26 
ROOT
HETATM    1  N   UNL     1      -5.642   4.157 -30.945  1.00  0.00    -0.342 N 
HETATM    2  C   UNL     1      -5.563   5.539 -30.852  1.00  0.00     0.104 A 
HETATM    3  C   UNL     1      -6.864   6.007 -30.975  1.00  0.00     0.049 A 
HETATM    4  C   UNL     1      -7.732   4.909 -31.182  1.00  0.00    -0.005 A 
HETATM    5  C   UNL     1      -6.949   3.758 -31.188  1.00  0.00     0.045 A 
HETATM    6  C   UNL     1      -9.126   4.802 -31.369  1.00  0.00     0.043 A 
HETATM    7  C   UNL     1      -9.716   3.551 -31.568  1.00  0.00     0.035 A 
HETATM    8  C   UNL     1      -8.904   2.414 -31.599  1.00  0.00     0.032 A 
HETATM    9  C   UNL     1      -7.516   2.493 -31.405  1.00  0.00     0.033 A 
ENDROOT
BRANCH   7  10
HETATM   10  N   UNL     1     -11.105   3.367 -31.755  1.00  0.00    -0.323 N 
HETATM   11  C   UNL     1     -11.723   2.817 -32.864  1.00  0.00     0.256 C 
HETATM   12  O   UNL     1     -11.192   2.458 -33.906  1.00  0.00    -0.267 OA
HETATM   13  H   UNL     1     -11.703   3.763 -31.043  1.00  0.00     0.169 HD
BRANCH  11  14
HETATM   14  C   UNL     1     -13.203   2.705 -32.766  1.00  0.00     0.032 A 
HETATM   15  C   UNL     1     -13.833   1.635 -33.408  1.00  0.00     0.020 A 
HETATM   16  C   UNL     1     -15.216   1.477 -33.303  1.00  0.00     0.038 A 
HETATM   17  C   UNL     1     -15.973   2.362 -32.533  1.00  0.00     0.068 A 
HETATM   18  C   UNL     1     -15.344   3.436 -31.897  1.00  0.00     0.038 A 
HETATM   19  C   UNL     1     -13.959   3.607 -32.008  1.00  0.00     0.020 A 
BRANCH  17  20
HETATM   20  O   UNL     1     -17.313   2.088 -32.490  1.00  0.00    -0.356 OA
HETATM   21  C   UNL     1     -18.164   3.176 -32.150  1.00  0.00     0.210 C 
ENDBRANCH  17  20
ENDBRANCH  11  14
ENDBRANCH   7  10
BRANCH   2  22
HETATM   22  C   UNL     1      -4.346   6.309 -30.647  1.00  0.00     0.268 C 
HETATM   23  N   UNL     1      -3.658   6.579 -31.812  1.00  0.00    -0.353 N 
HETATM   24  H   UNL     1      -3.955   6.100 -32.650  1.00  0.00     0.162 HD
HETATM   25  O   UNL     1      -3.953   6.686 -29.548  1.00  0.00    -0.266 OA
BRANCH  23  26
HETATM   26  C   UNL     1      -2.340   7.188 -31.804  1.00  0.00     0.160 C 
BRANCH  26  27
HETATM   27  C   UNL     1      -1.178   6.171 -31.979  1.00  0.00     0.073 C 
HETATM   28  O   UNL     1      -1.234   5.162 -30.951  1.00  0.00    -0.379 OA
HETATM   29  C   UNL     1      -0.362   5.541 -29.875  1.00  0.00     0.169 C 
HETATM   30  C   UNL     1       0.328   6.832 -30.270  1.00  0.00     0.029 C 
HETATM   31  C   UNL     1       0.177   6.848 -31.772  1.00  0.00     0.041 C 
HETATM   32  C   UNL     1      -1.252   5.474 -33.336  1.00  0.00     0.047 C 
ENDBRANCH  26  27
ENDBRANCH  23  26
ENDBRANCH   2  22
BRANCH   1  33
HETATM   33  C   UNL     1      -4.514   3.241 -30.829  1.00  0.00     0.125 C 
HETATM   34  C   UNL     1      -3.860   2.950 -32.168  1.00  0.00     0.027 C 
ENDBRANCH   1  33
TORSDOF 7
ENDMDL
