MODEL 1
REMARK VINA RESULT:     -10.4      0.000      0.000
REMARK  6 active torsions:
REMARK  status: ('A' for Active; 'I' for Inactive)
REMARK    1  A    between atoms: C_7  and  N_8 
REMARK       I    between atoms: N_8  and  C_9 
REMARK    2  A    between atoms: C_9  and  C_10 
REMARK    3  A    between atoms: C_10  and  N_11 
REMARK       I    between atoms: N_11  and  C_12 
REMARK    4  A    between atoms: C_12  and  C_13 
REMARK    5  A    between atoms: N_16  and  C_17 
REMARK    6  A    between atoms: C_23  and  O_24 
ROOT
HETATM    1  C   UNL     1      -5.745   4.061 -32.461  1.00  0.00     0.080 C 
HETATM    2  C   UNL     1      -6.896   3.312 -33.148  1.00  0.00     0.029 C 
HETATM    3  C   UNL     1      -6.401   2.115 -33.960  1.00  0.00     0.098 C 
HETATM    4  N   UNL     1      -5.637   1.240 -33.068  1.00  0.00    -0.268 NA
HETATM    5  C   UNL     1      -4.419   1.870 -32.542  1.00  0.00     0.098 C 
HETATM    6  C   UNL     1      -4.809   3.097 -31.716  1.00  0.00     0.029 C 
ENDROOT
BRANCH   1   7
HETATM    7  C   UNL     1      -4.991   4.959 -33.437  1.00  0.00     0.222 C 
HETATM    8  N   UNL     1      -3.868   5.545 -32.897  1.00  0.00    -0.352 N 
HETATM    9  H   UNL     1      -3.636   5.404 -31.923  1.00  0.00     0.162 HD
HETATM   10  O   UNL     1      -5.325   5.148 -34.603  1.00  0.00    -0.273 OA
BRANCH   8  11
HETATM   11  C   UNL     1      -2.947   6.318 -33.706  1.00  0.00     0.225 C 
BRANCH  11  12
HETATM   12  C   UNL     1      -2.005   7.170 -32.850  1.00  0.00     0.239 C 
HETATM   13  N   UNL     1      -1.729   6.580 -31.630  1.00  0.00    -0.326 N 
HETATM   14  H   UNL     1      -2.022   5.605 -31.537  1.00  0.00     0.169 HD
HETATM   15  O   UNL     1      -1.563   8.235 -33.271  1.00  0.00    -0.271 OA
BRANCH  13  16
HETATM   16  C   UNL     1      -1.058   7.145 -30.530  1.00  0.00     0.035 A 
HETATM   17  C   UNL     1       0.218   6.765 -30.121  1.00  0.00     0.031 A 
HETATM   18  C   UNL     1       0.835   7.409 -29.045  1.00  0.00     0.022 A 
HETATM   19  C   UNL     1       0.183   8.445 -28.373  1.00  0.00     0.017 A 
HETATM   20  C   UNL     1      -1.103   8.844 -28.764  1.00  0.00    -0.043 A 
HETATM   21 BR   UNL     1       1.107   9.283 -26.942  1.00  0.00    -0.051 Br
HETATM   22  C   UNL     1      -1.838   9.967 -28.088  1.00  0.00     0.049 C 
HETATM   23  C   UNL     1      -1.711   8.178 -29.844  1.00  0.00     0.037 A 
ENDBRANCH  13  16
ENDBRANCH  11  12
ENDBRANCH   8  11
ENDBRANCH   1   7
BRANCH   4  24
HETATM   24  C   UNL     1      -5.473  -0.086 -33.501  1.00  0.00     0.106 A 
HETATM   25  N   UNL     1      -4.548  -0.872 -32.906  1.00  0.00    -0.233 NA
HETATM   26  C   UNL     1      -4.443  -2.171 -33.270  1.00  0.00     0.102 A 
HETATM   27  C   UNL     1      -5.251  -2.759 -34.255  1.00  0.00    -0.004 A 
HETATM   28  C   UNL     1      -3.504  -2.982 -32.639  1.00  0.00     0.095 A 
HETATM   29  C   UNL     1      -6.205  -1.948 -34.865  1.00  0.00     0.017 A 
HETATM   30  C   UNL     1      -5.097  -4.120 -34.586  1.00  0.00     0.014 A 
HETATM   31  C   UNL     1      -6.322  -0.613 -34.475  1.00  0.00     0.045 A 
HETATM   32  C   UNL     1      -4.144  -4.901 -33.931  1.00  0.00     0.004 A 
HETATM   33  C   UNL     1      -3.342  -4.330 -32.949  1.00  0.00     0.039 A 
BRANCH  28  34
HETATM   34  O   UNL     1      -2.704  -2.441 -31.661  1.00  0.00    -0.358 OA
HETATM   35  H   UNL     1      -2.962  -2.937 -30.855  1.00  0.00     0.218 HD
ENDBRANCH  28  34
ENDBRANCH   4  24
TORSDOF 6
ENDMDL
MODEL 2
REMARK VINA RESULT:     -10.0      1.701      1.878
REMARK  6 active torsions:
REMARK  status: ('A' for Active; 'I' for Inactive)
REMARK    1  A    between atoms: C_7  and  N_8 
REMARK       I    between atoms: N_8  and  C_9 
REMARK    2  A    between atoms: C_9  and  C_10 
REMARK    3  A    between atoms: C_10  and  N_11 
REMARK       I    between atoms: N_11  and  C_12 
REMARK    4  A    between atoms: C_12  and  C_13 
REMARK    5  A    between atoms: N_16  and  C_17 
REMARK    6  A    between atoms: C_23  and  O_24 
ROOT
HETATM    1  C   UNL     1      -5.195   4.046 -31.304  1.00  0.00     0.080 C 
HETATM    2  C   UNL     1      -6.100   3.717 -32.499  1.00  0.00     0.029 C 
HETATM    3  C   UNL     1      -5.565   2.545 -33.322  1.00  0.00     0.098 C 
HETATM    4  N   UNL     1      -5.402   1.395 -32.429  1.00  0.00    -0.268 NA
HETATM    5  C   UNL     1      -4.395   1.613 -31.381  1.00  0.00     0.098 C 
HETATM    6  C   UNL     1      -4.837   2.786 -30.503  1.00  0.00     0.029 C 
ENDROOT
BRANCH   1   7
HETATM    7  C   UNL     1      -3.959   4.832 -31.728  1.00  0.00     0.222 C 
HETATM    8  N   UNL     1      -2.780   4.317 -31.239  1.00  0.00    -0.352 N 
HETATM    9  H   UNL     1      -2.789   3.521 -30.614  1.00  0.00     0.162 HD
HETATM   10  O   UNL     1      -3.983   5.825 -32.451  1.00  0.00    -0.273 OA
BRANCH   8  11
HETATM   11  C   UNL     1      -1.490   4.841 -31.645  1.00  0.00     0.225 C 
BRANCH  11  12
HETATM   12  C   UNL     1      -0.623   5.232 -30.445  1.00  0.00     0.239 C 
HETATM   13  N   UNL     1      -1.140   6.314 -29.756  1.00  0.00    -0.326 N 
HETATM   14  H   UNL     1      -2.094   6.582 -30.010  1.00  0.00     0.169 HD
HETATM   15  O   UNL     1       0.392   4.598 -30.170  1.00  0.00    -0.271 OA
BRANCH  13  16
HETATM   16  C   UNL     1      -0.531   7.052 -28.724  1.00  0.00     0.035 A 
HETATM   17  C   UNL     1       0.771   7.542 -28.784  1.00  0.00     0.031 A 
HETATM   18  C   UNL     1       1.285   8.308 -27.734  1.00  0.00     0.022 A 
HETATM   19  C   UNL     1       0.498   8.595 -26.617  1.00  0.00     0.017 A 
HETATM   20  C   UNL     1      -0.815   8.111 -26.532  1.00  0.00    -0.043 A 
HETATM   21 BR   UNL     1       1.267   9.666 -25.251  1.00  0.00    -0.051 Br
HETATM   22  C   UNL     1      -1.710   8.411 -25.362  1.00  0.00     0.049 C 
HETATM   23  C   UNL     1      -1.313   7.335 -27.595  1.00  0.00     0.037 A 
ENDBRANCH  13  16
ENDBRANCH  11  12
ENDBRANCH   8  11
ENDBRANCH   1   7
BRANCH   4  24
HETATM   24  C   UNL     1      -5.338   0.138 -33.052  1.00  0.00     0.106 A 
HETATM   25  N   UNL     1      -4.462  -0.787 -32.599  1.00  0.00    -0.233 NA
HETATM   26  C   UNL     1      -4.455  -2.023 -33.149  1.00  0.00     0.102 A 
HETATM   27  C   UNL     1      -5.317  -2.407 -34.187  1.00  0.00    -0.004 A 
HETATM   28  C   UNL     1      -3.566  -2.978 -32.665  1.00  0.00     0.095 A 
HETATM   29  C   UNL     1      -6.221  -1.452 -34.649  1.00  0.00     0.017 A 
HETATM   30  C   UNL     1      -5.266  -3.713 -34.713  1.00  0.00     0.014 A 
HETATM   31  C   UNL     1      -6.237  -0.184 -34.069  1.00  0.00     0.045 A 
HETATM   32  C   UNL     1      -4.360  -4.643 -34.202  1.00  0.00     0.004 A 
HETATM   33  C   UNL     1      -3.504  -4.275 -33.169  1.00  0.00     0.039 A 
BRANCH  28  34
HETATM   34  O   UNL     1      -2.715  -2.640 -31.640  1.00  0.00    -0.358 OA
HETATM   35  H   UNL     1      -2.771  -3.409 -31.034  1.00  0.00     0.218 HD
ENDBRANCH  28  34
ENDBRANCH   4  24
TORSDOF 6
ENDMDL
MODEL 3
REMARK VINA RESULT:      -9.7      3.675     10.243
REMARK  6 active torsions:
REMARK  status: ('A' for Active; 'I' for Inactive)
REMARK    1  A    between atoms: C_7  and  N_8 
REMARK       I    between atoms: N_8  and  C_9 
REMARK    2  A    between atoms: C_9  and  C_10 
REMARK    3  A    between atoms: C_10  and  N_11 
REMARK       I    between atoms: N_11  and  C_12 
REMARK    4  A    between atoms: C_12  and  C_13 
REMARK    5  A    between atoms: N_16  and  C_17 
REMARK    6  A    between atoms: C_23  and  O_24 
ROOT
HETATM    1  C   UNL     1      -4.164   4.513 -33.559  1.00  0.00     0.080 C 
HETATM    2  C   UNL     1      -4.143   6.034 -33.356  1.00  0.00     0.029 C 
HETATM    3  C   UNL     1      -3.577   6.426 -31.992  1.00  0.00     0.098 C 
HETATM    4  N   UNL     1      -2.239   5.842 -31.866  1.00  0.00    -0.268 NA
HETATM    5  C   UNL     1      -2.247   4.372 -31.865  1.00  0.00     0.098 C 
HETATM    6  C   UNL     1      -2.814   3.877 -33.196  1.00  0.00     0.029 C 
ENDROOT
BRANCH   1   7
HETATM    7  C   UNL     1      -5.328   3.858 -32.821  1.00  0.00     0.222 C 
HETATM    8  N   UNL     1      -6.245   3.259 -33.655  1.00  0.00    -0.352 N 
HETATM    9  H   UNL     1      -6.141   3.320 -34.659  1.00  0.00     0.162 HD
HETATM   10  O   UNL     1      -5.452   3.840 -31.600  1.00  0.00    -0.273 OA
BRANCH   8  11
HETATM   11  C   UNL     1      -7.344   2.467 -33.138  1.00  0.00     0.225 C 
BRANCH  11  12
HETATM   12  C   UNL     1      -6.910   1.042 -32.780  1.00  0.00     0.239 C 
HETATM   13  N   UNL     1      -5.922   0.569 -33.625  1.00  0.00    -0.326 N 
HETATM   14  H   UNL     1      -5.491   1.269 -34.232  1.00  0.00     0.169 HD
HETATM   15  O   UNL     1      -7.408   0.454 -31.825  1.00  0.00    -0.271 OA
BRANCH  13  16
HETATM   16  C   UNL     1      -5.414  -0.740 -33.711  1.00  0.00     0.035 A 
HETATM   17  C   UNL     1      -4.225  -1.152 -33.113  1.00  0.00     0.031 A 
HETATM   18  C   UNL     1      -3.814  -2.485 -33.207  1.00  0.00     0.022 A 
HETATM   19  C   UNL     1      -4.592  -3.418 -33.894  1.00  0.00     0.017 A 
HETATM   20  C   UNL     1      -5.791  -3.028 -34.507  1.00  0.00    -0.043 A 
HETATM   21 BR   UNL     1      -3.971  -5.211 -33.947  1.00  0.00    -0.051 Br
HETATM   22  C   UNL     1      -6.676  -3.998 -35.239  1.00  0.00     0.049 C 
HETATM   23  C   UNL     1      -6.185  -1.680 -34.408  1.00  0.00     0.037 A 
ENDBRANCH  13  16
ENDBRANCH  11  12
ENDBRANCH   8  11
ENDBRANCH   1   7
BRANCH   4  24
HETATM   24  C   UNL     1      -1.402   6.425 -30.901  1.00  0.00     0.106 A 
HETATM   25  N   UNL     1      -1.818   6.503 -29.617  1.00  0.00    -0.233 NA
HETATM   26  C   UNL     1      -0.980   6.994 -28.674  1.00  0.00     0.102 A 
HETATM   27  C   UNL     1       0.318   7.443 -28.959  1.00  0.00    -0.004 A 
HETATM   28  C   UNL     1      -1.405   7.053 -27.350  1.00  0.00     0.095 A 
HETATM   29  C   UNL     1       0.744   7.359 -30.283  1.00  0.00     0.017 A 
HETATM   30  C   UNL     1       1.144   7.939 -27.931  1.00  0.00     0.014 A 
HETATM   31  C   UNL     1      -0.115   6.837 -31.249  1.00  0.00     0.045 A 
HETATM   32  C   UNL     1       0.683   7.982 -26.615  1.00  0.00     0.004 A 
HETATM   33  C   UNL     1      -0.600   7.534 -26.321  1.00  0.00     0.039 A 
BRANCH  28  34
HETATM   34  O   UNL     1      -2.667   6.610 -27.033  1.00  0.00    -0.358 OA
HETATM   35  H   UNL     1      -2.772   5.804 -27.582  1.00  0.00     0.218 HD
ENDBRANCH  28  34
ENDBRANCH   4  24
TORSDOF 6
ENDMDL
MODEL 4
REMARK VINA RESULT:      -9.6      3.726      9.606
REMARK  6 active torsions:
REMARK  status: ('A' for Active; 'I' for Inactive)
REMARK    1  A    between atoms: C_7  and  N_8 
REMARK       I    between atoms: N_8  and  C_9 
REMARK    2  A    between atoms: C_9  and  C_10 
REMARK    3  A    between atoms: C_10  and  N_11 
REMARK       I    between atoms: N_11  and  C_12 
REMARK    4  A    between atoms: C_12  and  C_13 
REMARK    5  A    between atoms: N_16  and  C_17 
REMARK    6  A    between atoms: C_23  and  O_24 
ROOT
HETATM    1  C   UNL     1      -8.192   3.529 -30.895  1.00  0.00     0.080 C 
HETATM    2  C   UNL     1      -7.104   3.172 -29.873  1.00  0.00     0.029 C 
HETATM    3  C   UNL     1      -5.708   3.161 -30.498  1.00  0.00     0.098 C 
HETATM    4  N   UNL     1      -5.471   4.470 -31.113  1.00  0.00    -0.268 NA
HETATM    5  C   UNL     1      -6.383   4.759 -32.228  1.00  0.00     0.098 C 
HETATM    6  C   UNL     1      -7.820   4.780 -31.704  1.00  0.00     0.029 C 
ENDROOT
BRANCH   1   7
HETATM    7  C   UNL     1      -8.538   2.343 -31.792  1.00  0.00     0.222 C 
HETATM    8  N   UNL     1      -8.836   2.697 -33.088  1.00  0.00    -0.352 N 
HETATM    9  H   UNL     1      -8.863   3.671 -33.359  1.00  0.00     0.162 HD
HETATM   10  O   UNL     1      -8.542   1.173 -31.421  1.00  0.00    -0.273 OA
BRANCH   8  11
HETATM   11  C   UNL     1      -9.053   1.703 -34.121  1.00  0.00     0.225 C 
BRANCH  11  12
HETATM   12  C   UNL     1      -7.769   0.944 -34.469  1.00  0.00     0.239 C 
HETATM   13  N   UNL     1      -7.800  -0.367 -34.029  1.00  0.00    -0.326 N 
HETATM   14  H   UNL     1      -8.713  -0.702 -33.712  1.00  0.00     0.169 HD
HETATM   15  O   UNL     1      -6.863   1.492 -35.091  1.00  0.00    -0.271 OA
BRANCH  13  16
HETATM   16  C   UNL     1      -6.745  -1.298 -34.012  1.00  0.00     0.035 A 
HETATM   17  C   UNL     1      -5.558  -1.113 -33.307  1.00  0.00     0.031 A 
HETATM   18  C   UNL     1      -4.578  -2.109 -33.304  1.00  0.00     0.022 A 
HETATM   19  C   UNL     1      -4.780  -3.302 -34.000  1.00  0.00     0.017 A 
HETATM   20  C   UNL     1      -5.966  -3.511 -34.719  1.00  0.00    -0.043 A 
HETATM   21 BR   UNL     1      -3.408  -4.612 -33.917  1.00  0.00    -0.051 Br
HETATM   22  C   UNL     1      -6.241  -4.787 -35.465  1.00  0.00     0.049 C 
HETATM   23  C   UNL     1      -6.937  -2.494 -34.717  1.00  0.00     0.037 A 
ENDBRANCH  13  16
ENDBRANCH  11  12
ENDBRANCH   8  11
ENDBRANCH   1   7
BRANCH   4  24
HETATM   24  C   UNL     1      -4.128   4.802 -31.351  1.00  0.00     0.106 A 
HETATM   25  N   UNL     1      -3.524   5.732 -30.578  1.00  0.00    -0.233 NA
HETATM   26  C   UNL     1      -2.209   5.996 -30.758  1.00  0.00     0.102 A 
HETATM   27  C   UNL     1      -1.422   5.352 -31.724  1.00  0.00    -0.004 A 
HETATM   28  C   UNL     1      -1.586   6.939 -29.945  1.00  0.00     0.095 A 
HETATM   29  C   UNL     1      -2.046   4.392 -32.518  1.00  0.00     0.017 A 
HETATM   30  C   UNL     1      -0.055   5.667 -31.858  1.00  0.00     0.014 A 
HETATM   31  C   UNL     1      -3.398   4.111 -32.319  1.00  0.00     0.045 A 
HETATM   32  C   UNL     1       0.534   6.619 -31.024  1.00  0.00     0.004 A 
HETATM   33  C   UNL     1      -0.236   7.259 -30.059  1.00  0.00     0.039 A 
BRANCH  28  34
HETATM   34  O   UNL     1      -2.325   7.581 -28.980  1.00  0.00    -0.358 OA
HETATM   35  H   UNL     1      -2.020   8.511 -29.039  1.00  0.00     0.218 HD
ENDBRANCH  28  34
ENDBRANCH   4  24
TORSDOF 6
ENDMDL
MODEL 5
REMARK VINA RESULT:      -9.4      5.162      7.455
REMARK  6 active torsions:
REMARK  status: ('A' for Active; 'I' for Inactive)
REMARK    1  A    between atoms: C_7  and  N_8 
REMARK       I    between atoms: N_8  and  C_9 
REMARK    2  A    between atoms: C_9  and  C_10 
REMARK    3  A    between atoms: C_10  and  N_11 
REMARK       I    between atoms: N_11  and  C_12 
REMARK    4  A    between atoms: C_12  and  C_13 
REMARK    5  A    between atoms: N_16  and  C_17 
REMARK    6  A    between atoms: C_23  and  O_24 
ROOT
HETATM    1  C   UNL     1      -5.008   2.857 -30.437  1.00  0.00     0.080 C 
HETATM    2  C   UNL     1      -5.620   1.555 -29.902  1.00  0.00     0.029 C 
HETATM    3  C   UNL     1      -6.319   0.752 -31.000  1.00  0.00     0.098 C 
HETATM    4  N   UNL     1      -5.350   0.500 -32.070  1.00  0.00    -0.268 NA
HETATM    5  C   UNL     1      -4.887   1.727 -32.733  1.00  0.00     0.098 C 
HETATM    6  C   UNL     1      -4.179   2.612 -31.705  1.00  0.00     0.029 C 
ENDROOT
BRANCH   1   7
HETATM    7  C   UNL     1      -6.065   3.939 -30.637  1.00  0.00     0.222 C 
HETATM    8  N   UNL     1      -5.986   4.571 -31.857  1.00  0.00    -0.352 N 
HETATM    9  H   UNL     1      -5.244   4.341 -32.506  1.00  0.00     0.162 HD
HETATM   10  O   UNL     1      -6.926   4.228 -29.811  1.00  0.00    -0.273 OA
BRANCH   8  11
HETATM   11  C   UNL     1      -6.987   5.528 -32.288  1.00  0.00     0.225 C 
BRANCH  11  12
HETATM   12  C   UNL     1      -8.098   4.869 -33.111  1.00  0.00     0.239 C 
HETATM   13  N   UNL     1      -8.918   4.070 -32.337  1.00  0.00    -0.326 N 
HETATM   14  H   UNL     1      -8.801   4.168 -31.326  1.00  0.00     0.169 HD
HETATM   15  O   UNL     1      -8.203   5.088 -34.314  1.00  0.00    -0.271 OA
BRANCH  13  16
HETATM   16  C   UNL     1      -9.919   3.181 -32.772  1.00  0.00     0.035 A 
HETATM   17  C   UNL     1      -9.671   1.872 -33.179  1.00  0.00     0.031 A 
HETATM   18  C   UNL     1     -10.729   1.038 -33.552  1.00  0.00     0.022 A 
HETATM   19  C   UNL     1     -12.044   1.504 -33.514  1.00  0.00     0.017 A 
HETATM   20  C   UNL     1     -12.319   2.818 -33.111  1.00  0.00    -0.043 A 
HETATM   21 BR   UNL     1     -13.420   0.294 -34.011  1.00  0.00    -0.051 Br
HETATM   22  C   UNL     1     -13.719   3.361 -33.031  1.00  0.00     0.049 C 
HETATM   23  C   UNL     1     -11.241   3.646 -32.746  1.00  0.00     0.037 A 
ENDBRANCH  13  16
ENDBRANCH  11  12
ENDBRANCH   8  11
ENDBRANCH   1   7
BRANCH   4  24
HETATM   24  C   UNL     1      -5.658  -0.558 -32.940  1.00  0.00     0.106 A 
HETATM   25  N   UNL     1      -4.871  -1.657 -32.959  1.00  0.00    -0.233 NA
HETATM   26  C   UNL     1      -5.211  -2.707 -33.741  1.00  0.00     0.102 A 
HETATM   27  C   UNL     1      -6.353  -2.719 -34.555  1.00  0.00    -0.004 A 
HETATM   28  C   UNL     1      -4.409  -3.845 -33.740  1.00  0.00     0.095 A 
HETATM   29  C   UNL     1      -7.164  -1.587 -34.532  1.00  0.00     0.017 A 
HETATM   30  C   UNL     1      -6.657  -3.847 -35.343  1.00  0.00     0.014 A 
HETATM   31  C   UNL     1      -6.820  -0.512 -33.712  1.00  0.00     0.045 A 
HETATM   32  C   UNL     1      -5.829  -4.970 -35.316  1.00  0.00     0.004 A 
HETATM   33  C   UNL     1      -4.697  -4.970 -34.508  1.00  0.00     0.039 A 
BRANCH  28  34
HETATM   34  O   UNL     1      -3.289  -3.872 -32.945  1.00  0.00    -0.358 OA
HETATM   35  H   UNL     1      -3.355  -4.736 -32.486  1.00  0.00     0.218 HD
ENDBRANCH  28  34
ENDBRANCH   4  24
TORSDOF 6
ENDMDL
MODEL 6
REMARK VINA RESULT:      -9.2      4.745      7.646
REMARK  6 active torsions:
REMARK  status: ('A' for Active; 'I' for Inactive)
REMARK    1  A    between atoms: C_7  and  N_8 
REMARK       I    between atoms: N_8  and  C_9 
REMARK    2  A    between atoms: C_9  and  C_10 
REMARK    3  A    between atoms: C_10  and  N_11 
REMARK       I    between atoms: N_11  and  C_12 
REMARK    4  A    between atoms: C_12  and  C_13 
REMARK    5  A    between atoms: N_16  and  C_17 
REMARK    6  A    between atoms: C_23  and  O_24 
ROOT
HETATM    1  C   UNL     1      -4.451   4.211 -31.054  1.00  0.00     0.080 C 
HETATM    2  C   UNL     1      -5.316   3.138 -30.378  1.00  0.00     0.029 C 
HETATM    3  C   UNL     1      -5.499   1.904 -31.261  1.00  0.00     0.098 C 
HETATM    4  N   UNL     1      -4.172   1.392 -31.614  1.00  0.00    -0.268 NA
HETATM    5  C   UNL     1      -3.388   2.329 -32.430  1.00  0.00     0.098 C 
HETATM    6  C   UNL     1      -3.159   3.614 -31.631  1.00  0.00     0.029 C 
ENDROOT
BRANCH   1   7
HETATM    7  C   UNL     1      -5.239   5.000 -32.096  1.00  0.00     0.222 C 
HETATM    8  N   UNL     1      -6.584   5.094 -31.820  1.00  0.00    -0.352 N 
HETATM    9  H   UNL     1      -6.976   4.620 -31.016  1.00  0.00     0.162 HD
HETATM   10  O   UNL     1      -4.742   5.525 -33.088  1.00  0.00    -0.273 OA
BRANCH   8  11
HETATM   11  C   UNL     1      -7.472   5.919 -32.615  1.00  0.00     0.225 C 
BRANCH  11  12
HETATM   12  C   UNL     1      -8.506   5.085 -33.377  1.00  0.00     0.239 C 
HETATM   13  N   UNL     1      -9.259   4.289 -32.533  1.00  0.00    -0.326 N 
HETATM   14  H   UNL     1      -9.165   4.493 -31.536  1.00  0.00     0.169 HD
HETATM   15  O   UNL     1      -8.615   5.179 -34.596  1.00  0.00    -0.271 OA
BRANCH  13  16
HETATM   16  C   UNL     1     -10.167   3.274 -32.887  1.00  0.00     0.035 A 
HETATM   17  C   UNL     1      -9.787   1.988 -33.261  1.00  0.00     0.031 A 
HETATM   18  C   UNL     1     -10.755   1.022 -33.551  1.00  0.00     0.022 A 
HETATM   19  C   UNL     1     -12.113   1.334 -33.462  1.00  0.00     0.017 A 
HETATM   20  C   UNL     1     -12.522   2.622 -33.090  1.00  0.00    -0.043 A 
HETATM   21 BR   UNL     1     -13.359  -0.047 -33.847  1.00  0.00    -0.051 Br
HETATM   22  C   UNL     1     -13.970   3.001 -32.957  1.00  0.00     0.049 C 
HETATM   23  C   UNL     1     -11.533   3.583 -32.809  1.00  0.00     0.037 A 
ENDBRANCH  13  16
ENDBRANCH  11  12
ENDBRANCH   8  11
ENDBRANCH   1   7
BRANCH   4  24
HETATM   24  C   UNL     1      -4.123   0.056 -32.044  1.00  0.00     0.106 A 
HETATM   25  N   UNL     1      -4.993  -0.374 -32.985  1.00  0.00    -0.233 NA
HETATM   26  C   UNL     1      -4.896  -1.639 -33.454  1.00  0.00     0.102 A 
HETATM   27  C   UNL     1      -3.928  -2.552 -33.007  1.00  0.00    -0.004 A 
HETATM   28  C   UNL     1      -5.780  -2.071 -34.438  1.00  0.00     0.095 A 
HETATM   29  C   UNL     1      -3.031  -2.105 -32.039  1.00  0.00     0.017 A 
HETATM   30  C   UNL     1      -3.874  -3.855 -33.540  1.00  0.00     0.014 A 
HETATM   31  C   UNL     1      -3.124  -0.795 -31.569  1.00  0.00     0.045 A 
HETATM   32  C   UNL     1      -4.778  -4.250 -34.526  1.00  0.00     0.004 A 
HETATM   33  C   UNL     1      -5.738  -3.353 -34.981  1.00  0.00     0.039 A 
BRANCH  28  34
HETATM   34  O   UNL     1      -6.733  -1.199 -34.909  1.00  0.00    -0.358 OA
HETATM   35  H   UNL     1      -6.638  -1.260 -35.883  1.00  0.00     0.218 HD
ENDBRANCH  28  34
ENDBRANCH   4  24
TORSDOF 6
ENDMDL
MODEL 7
REMARK VINA RESULT:      -9.1      2.488      3.126
REMARK  6 active torsions:
REMARK  status: ('A' for Active; 'I' for Inactive)
REMARK    1  A    between atoms: C_7  and  N_8 
REMARK       I    between atoms: N_8  and  C_9 
REMARK    2  A    between atoms: C_9  and  C_10 
REMARK    3  A    between atoms: C_10  and  N_11 
REMARK       I    between atoms: N_11  and  C_12 
REMARK    4  A    between atoms: C_12  and  C_13 
REMARK    5  A    between atoms: N_16  and  C_17 
REMARK    6  A    between atoms: C_23  and  O_24 
ROOT
HETATM    1  C   UNL     1      -6.862   3.896 -32.166  1.00  0.00     0.080 C 
HETATM    2  C   UNL     1      -5.434   3.556 -32.614  1.00  0.00     0.029 C 
HETATM    3  C   UNL     1      -5.128   2.063 -32.483  1.00  0.00     0.098 C 
HETATM    4  N   UNL     1      -6.132   1.321 -33.250  1.00  0.00    -0.268 NA
HETATM    5  C   UNL     1      -7.495   1.477 -32.724  1.00  0.00     0.098 C 
HETATM    6  C   UNL     1      -7.893   2.952 -32.801  1.00  0.00     0.029 C 
ENDROOT
BRANCH   1   7
HETATM    7  C   UNL     1      -6.982   3.945 -30.646  1.00  0.00     0.222 C 
HETATM    8  N   UNL     1      -6.667   5.170 -30.104  1.00  0.00    -0.352 N 
HETATM    9  H   UNL     1      -6.339   5.923 -30.696  1.00  0.00     0.162 HD
HETATM   10  O   UNL     1      -7.338   2.999 -29.948  1.00  0.00    -0.273 OA
BRANCH   8  11
HETATM   11  C   UNL     1      -6.855   5.454 -28.695  1.00  0.00     0.225 C 
BRANCH  11  12
HETATM   12  C   UNL     1      -5.560   5.919 -28.023  1.00  0.00     0.239 C 
HETATM   13  N   UNL     1      -4.769   6.668 -28.875  1.00  0.00    -0.326 N 
HETATM   14  H   UNL     1      -5.217   6.965 -29.744  1.00  0.00     0.169 HD
HETATM   15  O   UNL     1      -5.325   5.643 -26.850  1.00  0.00    -0.271 OA
BRANCH  13  16
HETATM   16  C   UNL     1      -3.448   7.106 -28.666  1.00  0.00     0.035 A 
HETATM   17  C   UNL     1      -3.032   7.809 -27.538  1.00  0.00     0.031 A 
HETATM   18  C   UNL     1      -1.689   8.165 -27.385  1.00  0.00     0.022 A 
HETATM   19  C   UNL     1      -0.749   7.816 -28.356  1.00  0.00     0.017 A 
HETATM   20  C   UNL     1      -1.143   7.111 -29.502  1.00  0.00    -0.043 A 
HETATM   21 BR   UNL     1       1.056   8.317 -28.052  1.00  0.00    -0.051 Br
HETATM   22  C   UNL     1      -0.167   6.691 -30.565  1.00  0.00     0.049 C 
HETATM   23  C   UNL     1      -2.500   6.767 -29.642  1.00  0.00     0.037 A 
ENDBRANCH  13  16
ENDBRANCH  11  12
ENDBRANCH   8  11
ENDBRANCH   1   7
BRANCH   4  24
HETATM   24  C   UNL     1      -5.786   0.007 -33.604  1.00  0.00     0.106 A 
HETATM   25  N   UNL     1      -4.805  -0.630 -32.927  1.00  0.00    -0.233 NA
HETATM   26  C   UNL     1      -4.525  -1.922 -33.217  1.00  0.00     0.102 A 
HETATM   27  C   UNL     1      -5.203  -2.651 -34.206  1.00  0.00    -0.004 A 
HETATM   28  C   UNL     1      -3.529  -2.580 -32.503  1.00  0.00     0.095 A 
HETATM   29  C   UNL     1      -6.216  -1.992 -34.901  1.00  0.00     0.017 A 
HETATM   30  C   UNL     1      -4.869  -3.996 -34.457  1.00  0.00     0.014 A 
HETATM   31  C   UNL     1      -6.513  -0.666 -34.587  1.00  0.00     0.045 A 
HETATM   32  C   UNL     1      -3.864  -4.622 -33.719  1.00  0.00     0.004 A 
HETATM   33  C   UNL     1      -3.189  -3.910 -32.734  1.00  0.00     0.039 A 
BRANCH  28  34
HETATM   34  O   UNL     1      -2.852  -1.900 -31.519  1.00  0.00    -0.358 OA
HETATM   35  H   UNL     1      -2.411  -1.171 -32.006  1.00  0.00     0.218 HD
ENDBRANCH  28  34
ENDBRANCH   4  24
TORSDOF 6
ENDMDL
MODEL 8
REMARK VINA RESULT:      -8.8      2.479      3.363
REMARK  6 active torsions:
REMARK  status: ('A' for Active; 'I' for Inactive)
REMARK    1  A    between atoms: C_7  and  N_8 
REMARK       I    between atoms: N_8  and  C_9 
REMARK    2  A    between atoms: C_9  and  C_10 
REMARK    3  A    between atoms: C_10  and  N_11 
REMARK       I    between atoms: N_11  and  C_12 
REMARK    4  A    between atoms: C_12  and  C_13 
REMARK    5  A    between atoms: N_16  and  C_17 
REMARK    6  A    between atoms: C_23  and  O_24 
ROOT
HETATM    1  C   UNL     1      -8.537   2.975 -33.218  1.00  0.00     0.080 C 
HETATM    2  C   UNL     1      -7.130   2.977 -33.831  1.00  0.00     0.029 C 
HETATM    3  C   UNL     1      -6.336   1.724 -33.457  1.00  0.00     0.098 C 
HETATM    4  N   UNL     1      -7.111   0.551 -33.871  1.00  0.00    -0.268 NA
HETATM    5  C   UNL     1      -8.388   0.418 -33.157  1.00  0.00     0.098 C 
HETATM    6  C   UNL     1      -9.257   1.640 -33.459  1.00  0.00     0.029 C 
ENDROOT
BRANCH   1   7
HETATM    7  C   UNL     1      -8.512   3.359 -31.741  1.00  0.00     0.222 C 
HETATM    8  N   UNL     1      -7.597   4.342 -31.440  1.00  0.00    -0.352 N 
HETATM    9  H   UNL     1      -6.982   4.707 -32.157  1.00  0.00     0.162 HD
HETATM   10  O   UNL     1      -9.239   2.865 -30.885  1.00  0.00    -0.273 OA
BRANCH   8  11
HETATM   11  C   UNL     1      -7.522   4.939 -30.121  1.00  0.00     0.225 C 
BRANCH  11  12
HETATM   12  C   UNL     1      -6.082   5.264 -29.715  1.00  0.00     0.239 C 
HETATM   13  N   UNL     1      -5.275   5.518 -30.810  1.00  0.00    -0.326 N 
HETATM   14  H   UNL     1      -5.766   5.641 -31.699  1.00  0.00     0.169 HD
HETATM   15  O   UNL     1      -5.753   5.300 -28.533  1.00  0.00    -0.271 OA
BRANCH  13  16
HETATM   16  C   UNL     1      -3.877   5.674 -30.835  1.00  0.00     0.035 A 
HETATM   17  C   UNL     1      -3.012   4.813 -31.506  1.00  0.00     0.031 A 
HETATM   18  C   UNL     1      -1.637   5.067 -31.521  1.00  0.00     0.022 A 
HETATM   19  C   UNL     1      -1.117   6.187 -30.871  1.00  0.00     0.017 A 
HETATM   20  C   UNL     1      -1.967   7.067 -30.187  1.00  0.00    -0.043 A 
HETATM   21 BR   UNL     1       0.758   6.468 -30.968  1.00  0.00    -0.051 Br
HETATM   22  C   UNL     1      -1.460   8.299 -29.490  1.00  0.00     0.049 C 
HETATM   23  C   UNL     1      -3.347   6.792 -30.176  1.00  0.00     0.037 A 
ENDBRANCH  13  16
ENDBRANCH  11  12
ENDBRANCH   8  11
ENDBRANCH   1   7
BRANCH   4  24
HETATM   24  C   UNL     1      -6.387  -0.644 -34.009  1.00  0.00     0.106 A 
HETATM   25  N   UNL     1      -5.374  -0.913 -33.155  1.00  0.00    -0.233 NA
HETATM   26  C   UNL     1      -4.729  -2.100 -33.240  1.00  0.00     0.102 A 
HETATM   27  C   UNL     1      -5.052  -3.084 -34.186  1.00  0.00    -0.004 A 
HETATM   28  C   UNL     1      -3.700  -2.381 -32.345  1.00  0.00     0.095 A 
HETATM   29  C   UNL     1      -6.098  -2.805 -35.063  1.00  0.00     0.017 A 
HETATM   30  C   UNL     1      -4.346  -4.303 -34.219  1.00  0.00     0.014 A 
HETATM   31  C   UNL     1      -6.773  -1.589 -34.962  1.00  0.00     0.045 A 
HETATM   32  C   UNL     1      -3.320  -4.548 -33.304  1.00  0.00     0.004 A 
HETATM   33  C   UNL     1      -2.995  -3.581 -32.359  1.00  0.00     0.039 A 
BRANCH  28  34
HETATM   34  O   UNL     1      -3.365  -1.444 -31.397  1.00  0.00    -0.358 OA
HETATM   35  H   UNL     1      -3.209  -1.980 -30.590  1.00  0.00     0.218 HD
ENDBRANCH  28  34
ENDBRANCH   4  24
TORSDOF 6
ENDMDL
MODEL 9
REMARK VINA RESULT:      -8.8      5.369      8.486
REMARK  6 active torsions:
REMARK  status: ('A' for Active; 'I' for Inactive)
REMARK    1  A    between atoms: C_7  and  N_8 
REMARK       I    between atoms: N_8  and  C_9 
REMARK    2  A    between atoms: C_9  and  C_10 
REMARK    3  A    between atoms: C_10  and  N_11 
REMARK       I    between atoms: N_11  and  C_12 
REMARK    4  A    between atoms: C_12  and  C_13 
REMARK    5  A    between atoms: N_16  and  C_17 
REMARK    6  A    between atoms: C_23  and  O_24 
ROOT
HETATM    1  C   UNL     1      -6.894   4.838 -30.301  1.00  0.00     0.080 C 
HETATM    2  C   UNL     1      -7.528   3.549 -29.759  1.00  0.00     0.029 C 
HETATM    3  C   UNL     1      -7.914   2.581 -30.878  1.00  0.00     0.098 C 
HETATM    4  N   UNL     1      -6.718   2.306 -31.678  1.00  0.00    -0.268 NA
HETATM    5  C   UNL     1      -6.196   3.494 -32.367  1.00  0.00     0.098 C 
HETATM    6  C   UNL     1      -5.790   4.537 -31.324  1.00  0.00     0.029 C 
ENDROOT
BRANCH   1   7
HETATM    7  C   UNL     1      -7.945   5.798 -30.850  1.00  0.00     0.222 C 
HETATM    8  N   UNL     1      -9.119   5.804 -30.132  1.00  0.00    -0.352 N 
HETATM    9  H   UNL     1      -9.245   5.172 -29.351  1.00  0.00     0.162 HD
HETATM   10  O   UNL     1      -7.779   6.520 -31.829  1.00  0.00    -0.273 OA
BRANCH   8  11
HETATM   11  C   UNL     1     -10.182   6.749 -30.413  1.00  0.00     0.225 C 
BRANCH  11  12
HETATM   12  C   UNL     1     -11.312   6.119 -31.231  1.00  0.00     0.239 C 
HETATM   13  N   UNL     1     -11.443   4.764 -30.986  1.00  0.00    -0.326 N 
HETATM   14  H   UNL     1     -10.919   4.411 -30.182  1.00  0.00     0.169 HD
HETATM   15  O   UNL     1     -12.000   6.802 -31.984  1.00  0.00    -0.271 OA
BRANCH  13  16
HETATM   16  C   UNL     1     -12.243   3.835 -31.676  1.00  0.00     0.035 A 
HETATM   17  C   UNL     1     -13.598   3.639 -31.424  1.00  0.00     0.031 A 
HETATM   18  C   UNL     1     -14.333   2.727 -32.189  1.00  0.00     0.022 A 
HETATM   19  C   UNL     1     -13.718   2.009 -33.216  1.00  0.00     0.017 A 
HETATM   20  C   UNL     1     -12.354   2.187 -33.487  1.00  0.00    -0.043 A 
HETATM   21 BR   UNL     1     -14.798   0.814 -34.221  1.00  0.00    -0.051 Br
HETATM   22  C   UNL     1     -11.651   1.455 -34.596  1.00  0.00     0.049 C 
HETATM   23  C   UNL     1     -11.629   3.103 -32.702  1.00  0.00     0.037 A 
ENDBRANCH  13  16
ENDBRANCH  11  12
ENDBRANCH   8  11
ENDBRANCH   1   7
BRANCH   4  24
HETATM   24  C   UNL     1      -6.759   1.142 -32.463  1.00  0.00     0.106 A 
HETATM   25  N   UNL     1      -5.626   0.431 -32.660  1.00  0.00    -0.233 NA
HETATM   26  C   UNL     1      -5.681  -0.731 -33.350  1.00  0.00     0.102 A 
HETATM   27  C   UNL     1      -6.868  -1.248 -33.891  1.00  0.00    -0.004 A 
HETATM   28  C   UNL     1      -4.516  -1.471 -33.532  1.00  0.00     0.095 A 
HETATM   29  C   UNL     1      -8.034  -0.514 -33.685  1.00  0.00     0.017 A 
HETATM   30  C   UNL     1      -6.861  -2.468 -34.596  1.00  0.00     0.014 A 
HETATM   31  C   UNL     1      -7.977   0.675 -32.957  1.00  0.00     0.045 A 
HETATM   32  C   UNL     1      -5.672  -3.181 -34.758  1.00  0.00     0.004 A 
HETATM   33  C   UNL     1      -4.491  -2.681 -34.221  1.00  0.00     0.039 A 
BRANCH  28  34
HETATM   34  O   UNL     1      -3.337  -1.001 -33.005  1.00  0.00    -0.358 OA
HETATM   35  H   UNL     1      -3.268  -0.094 -33.372  1.00  0.00     0.218 HD
ENDBRANCH  28  34
ENDBRANCH   4  24
TORSDOF 6
ENDMDL
MODEL 10
REMARK VINA RESULT:      -8.8      3.086      4.872
REMARK  6 active torsions:
REMARK  status: ('A' for Active; 'I' for Inactive)
REMARK    1  A    between atoms: C_7  and  N_8 
REMARK       I    between atoms: N_8  and  C_9 
REMARK    2  A    between atoms: C_9  and  C_10 
REMARK    3  A    between atoms: C_10  and  N_11 
REMARK       I    between atoms: N_11  and  C_12 
REMARK    4  A    between atoms: C_12  and  C_13 
REMARK    5  A    between atoms: N_16  and  C_17 
REMARK    6  A    between atoms: C_23  and  O_24 
ROOT
HETATM    1  C   UNL     1      -3.690   2.823 -31.495  1.00  0.00     0.080 C 
HETATM    2  C   UNL     1      -4.875   3.321 -30.656  1.00  0.00     0.029 C 
HETATM    3  C   UNL     1      -6.178   3.346 -31.456  1.00  0.00     0.098 C 
HETATM    4  N   UNL     1      -6.413   2.002 -31.989  1.00  0.00    -0.268 NA
HETATM    5  C   UNL     1      -5.387   1.570 -32.949  1.00  0.00     0.098 C 
HETATM    6  C   UNL     1      -4.032   1.526 -32.241  1.00  0.00     0.029 C 
ENDROOT
BRANCH   1   7
HETATM    7  C   UNL     1      -3.164   3.907 -32.431  1.00  0.00     0.222 C 
HETATM    8  N   UNL     1      -1.991   4.487 -32.004  1.00  0.00    -0.352 N 
HETATM    9  H   UNL     1      -1.583   4.223 -31.116  1.00  0.00     0.162 HD
HETATM   10  O   UNL     1      -3.707   4.239 -33.481  1.00  0.00    -0.273 OA
BRANCH   8  11
HETATM   11  C   UNL     1      -1.264   5.435 -32.825  1.00  0.00     0.225 C 
BRANCH  11  12
HETATM   12  C   UNL     1      -1.045   6.770 -32.107  1.00  0.00     0.239 C 
HETATM   13  N   UNL     1      -0.808   6.604 -30.755  1.00  0.00    -0.326 N 
HETATM   14  H   UNL     1      -0.625   5.644 -30.455  1.00  0.00     0.169 HD
HETATM   15  O   UNL     1      -1.068   7.829 -32.728  1.00  0.00    -0.271 OA
BRANCH  13  16
HETATM   16  C   UNL     1      -0.742   7.598 -29.761  1.00  0.00     0.035 A 
HETATM   17  C   UNL     1      -1.771   8.496 -29.491  1.00  0.00     0.031 A 
HETATM   18  C   UNL     1      -1.644   9.424 -28.453  1.00  0.00     0.022 A 
HETATM   19  C   UNL     1      -0.487   9.457 -27.673  1.00  0.00     0.017 A 
HETATM   20  C   UNL     1       0.565   8.566 -27.927  1.00  0.00    -0.043 A 
HETATM   21 BR   UNL     1      -0.411  10.730 -26.267  1.00  0.00    -0.051 Br
HETATM   22  C   UNL     1       1.822   8.546 -27.102  1.00  0.00     0.049 C 
HETATM   23  C   UNL     1       0.422   7.644 -28.980  1.00  0.00     0.037 A 
ENDBRANCH  13  16
ENDBRANCH  11  12
ENDBRANCH   8  11
ENDBRANCH   1   7
BRANCH   4  24
HETATM   24  C   UNL     1      -7.733   1.716 -32.373  1.00  0.00     0.106 A 
HETATM   25  N   UNL     1      -8.408   2.595 -33.148  1.00  0.00    -0.233 NA
HETATM   26  C   UNL     1      -9.651   2.283 -33.582  1.00  0.00     0.102 A 
HETATM   27  C   UNL     1     -10.297   1.080 -33.262  1.00  0.00    -0.004 A 
HETATM   28  C   UNL     1     -10.333   3.182 -34.397  1.00  0.00     0.095 A 
HETATM   29  C   UNL     1      -9.599   0.175 -32.465  1.00  0.00     0.017 A 
HETATM   30  C   UNL     1     -11.591   0.812 -33.750  1.00  0.00     0.014 A 
HETATM   31  C   UNL     1      -8.311   0.491 -32.034  1.00  0.00     0.045 A 
HETATM   32  C   UNL     1     -12.243   1.738 -34.565  1.00  0.00     0.004 A 
HETATM   33  C   UNL     1     -11.610   2.932 -34.892  1.00  0.00     0.039 A 
BRANCH  28  34
HETATM   34  O   UNL     1      -9.726   4.366 -34.740  1.00  0.00    -0.358 OA
HETATM   35  H   UNL     1      -9.138   4.552 -33.977  1.00  0.00     0.218 HD
ENDBRANCH  28  34
ENDBRANCH   4  24
TORSDOF 6
ENDMDL
