MODEL 1
REMARK VINA RESULT:      -8.9      0.000      0.000
REMARK  8 active torsions:
REMARK  status: ('A' for Active; 'I' for Inactive)
REMARK    1  A    between atoms: C_4  and  N_5 
REMARK       I    between atoms: N_5  and  C_6 
REMARK    2  A    between atoms: C_6  and  C_7 
REMARK    3  A    between atoms: C_7  and  N_8 
REMARK    4  A    between atoms: C_7  and  C_24 
REMARK    5  A    between atoms: N_8  and  C_11 
REMARK    6  A    between atoms: C_11  and  C_12 
REMARK    7  A    between atoms: C_15  and  N_16 
REMARK    8  A    between atoms: C_31  and  O_32 
ROOT
HETATM    1  C   UNL     1      -4.792   3.917 -32.147  1.00  0.00     0.310 C 
ENDROOT
BRANCH   1   2
HETATM    2  C   UNL     1      -6.045   4.825 -32.100  1.00  0.00     0.257 C 
HETATM    3  N   UNL     1      -7.283   4.386 -32.459  1.00  0.00    -0.323 N 
HETATM    4  H   UNL     1      -7.934   5.134 -32.696  1.00  0.00     0.169 HD
HETATM    5  O   UNL     1      -5.892   6.006 -31.754  1.00  0.00    -0.270 OA
BRANCH   3   6
HETATM    6  C   UNL     1      -7.752   3.098 -32.791  1.00  0.00     0.069 A 
HETATM    7  C   UNL     1      -7.255   2.357 -33.868  1.00  0.00     0.039 A 
HETATM    8  C   UNL     1      -7.765   1.083 -34.153  1.00  0.00    -0.060 A 
HETATM    9  C   UNL     1      -7.255   0.304 -35.331  1.00  0.00     0.048 C 
HETATM   10  C   UNL     1      -8.782   0.562 -33.349  1.00  0.00     0.009 A 
HETATM   11  C   UNL     1      -9.252   1.274 -32.244  1.00  0.00     0.039 A 
HETATM   12  C   UNL     1      -8.734   2.537 -31.950  1.00  0.00     0.095 A 
BRANCH  12  13
HETATM   13  O   UNL     1      -9.130   3.329 -30.900  1.00  0.00    -0.354 OA
HETATM   14  C   UNL     1     -10.474   3.802 -30.921  1.00  0.00     0.210 C 
ENDBRANCH  12  13
ENDBRANCH   3   6
ENDBRANCH   1   2
BRANCH   1  15
HETATM   15  N   UNL     1      -4.371   3.553 -30.724  1.00  0.00    -0.054 N 
HETATM   16  H   UNL     1      -3.382   3.267 -30.781  1.00  0.00     0.278 HD
HETATM   17  H   UNL     1      -4.411   4.383 -30.127  1.00  0.00     0.278 HD
BRANCH  15  18
HETATM   18  C   UNL     1      -5.087   2.429 -30.058  1.00  0.00     0.272 C 
BRANCH  18  19
HETATM   19  C   UNL     1      -4.859   1.144 -30.804  1.00  0.00    -0.033 A 
HETATM   20  C   UNL     1      -3.585   0.828 -31.290  1.00  0.00     0.011 A 
HETATM   21  C   UNL     1      -3.368  -0.349 -32.014  1.00  0.00     0.030 A 
HETATM   22  C   UNL     1      -4.404  -1.256 -32.258  1.00  0.00     0.037 A 
HETATM   23  C   UNL     1      -5.673  -0.943 -31.750  1.00  0.00     0.030 A 
HETATM   24  C   UNL     1      -5.904   0.245 -31.042  1.00  0.00     0.011 A 
BRANCH  22  25
HETATM   25  N   UNL     1      -4.179  -2.456 -32.980  1.00  0.00    -0.318 N 
HETATM   26  C   UNL     1      -3.420  -3.555 -32.540  1.00  0.00     0.224 C 
HETATM   27  O   UNL     1      -2.810  -3.694 -31.492  1.00  0.00    -0.273 OA
HETATM   28  C   UNL     1      -3.389  -4.569 -33.660  1.00  0.00     0.105 C 
HETATM   29  C   UNL     1      -4.555  -4.152 -34.534  1.00  0.00     0.029 C 
HETATM   30  C   UNL     1      -4.617  -2.652 -34.342  1.00  0.00     0.133 C 
ENDBRANCH  22  25
ENDBRANCH  18  19
ENDBRANCH  15  18
ENDBRANCH   1  15
BRANCH   1  31
HETATM   31  C   UNL     1      -3.625   4.449 -32.957  1.00  0.00    -0.019 A 
HETATM   32  C   UNL     1      -2.361   4.575 -32.354  1.00  0.00     0.010 A 
HETATM   33  C   UNL     1      -1.283   5.098 -33.071  1.00  0.00     0.001 A 
HETATM   34  C   UNL     1      -1.451   5.509 -34.391  1.00  0.00     0.000 A 
HETATM   35  C   UNL     1      -2.698   5.401 -35.000  1.00  0.00     0.001 A 
HETATM   36  C   UNL     1      -3.780   4.879 -34.289  1.00  0.00     0.010 A 
ENDBRANCH   1  31
TORSDOF 8
ENDMDL
MODEL 2
REMARK VINA RESULT:      -8.3      2.875      7.458
REMARK  8 active torsions:
REMARK  status: ('A' for Active; 'I' for Inactive)
REMARK    1  A    between atoms: C_4  and  N_5 
REMARK       I    between atoms: N_5  and  C_6 
REMARK    2  A    between atoms: C_6  and  C_7 
REMARK    3  A    between atoms: C_7  and  N_8 
REMARK    4  A    between atoms: C_7  and  C_24 
REMARK    5  A    between atoms: N_8  and  C_11 
REMARK    6  A    between atoms: C_11  and  C_12 
REMARK    7  A    between atoms: C_15  and  N_16 
REMARK    8  A    between atoms: C_31  and  O_32 
ROOT
HETATM    1  C   UNL     1      -5.247   0.790 -32.891  1.00  0.00     0.310 C 
ENDROOT
BRANCH   1   2
HETATM    2  C   UNL     1      -4.288   0.899 -31.680  1.00  0.00     0.257 C 
HETATM    3  N   UNL     1      -3.531   2.004 -31.440  1.00  0.00    -0.323 N 
HETATM    4  H   UNL     1      -2.729   1.833 -30.834  1.00  0.00     0.169 HD
HETATM    5  O   UNL     1      -4.191  -0.083 -30.929  1.00  0.00    -0.270 OA
BRANCH   3   6
HETATM    6  C   UNL     1      -3.515   3.272 -32.061  1.00  0.00     0.069 A 
HETATM    7  C   UNL     1      -2.600   3.623 -33.059  1.00  0.00     0.039 A 
HETATM    8  C   UNL     1      -2.629   4.900 -33.634  1.00  0.00    -0.060 A 
HETATM    9  C   UNL     1      -1.624   5.288 -34.680  1.00  0.00     0.048 C 
HETATM   10  C   UNL     1      -3.582   5.824 -33.195  1.00  0.00     0.009 A 
HETATM   11  C   UNL     1      -4.529   5.467 -32.232  1.00  0.00     0.039 A 
HETATM   12  C   UNL     1      -4.510   4.189 -31.670  1.00  0.00     0.095 A 
BRANCH  12  13
HETATM   13  O   UNL     1      -5.382   3.737 -30.708  1.00  0.00    -0.354 OA
HETATM   14  C   UNL     1      -6.560   4.507 -30.493  1.00  0.00     0.210 C 
ENDBRANCH  12  13
ENDBRANCH   3   6
ENDBRANCH   1   2
BRANCH   1  15
HETATM   15  N   UNL     1      -6.622   1.331 -32.504  1.00  0.00    -0.054 N 
HETATM   16  H   UNL     1      -7.249   0.514 -32.451  1.00  0.00     0.278 HD
HETATM   17  H   UNL     1      -6.583   1.743 -31.568  1.00  0.00     0.278 HD
BRANCH  15  18
HETATM   18  C   UNL     1      -7.276   2.289 -33.440  1.00  0.00     0.272 C 
BRANCH  18  19
HETATM   19  C   UNL     1      -8.765   2.080 -33.452  1.00  0.00    -0.033 A 
HETATM   20  C   UNL     1      -9.299   0.807 -33.228  1.00  0.00     0.011 A 
HETATM   21  C   UNL     1     -10.681   0.594 -33.269  1.00  0.00     0.030 A 
HETATM   22  C   UNL     1     -11.573   1.644 -33.513  1.00  0.00     0.037 A 
HETATM   23  C   UNL     1     -11.031   2.922 -33.715  1.00  0.00     0.030 A 
HETATM   24  C   UNL     1      -9.645   3.139 -33.697  1.00  0.00     0.011 A 
BRANCH  22  25
HETATM   25  N   UNL     1     -12.975   1.431 -33.540  1.00  0.00    -0.318 N 
HETATM   26  C   UNL     1     -13.941   2.204 -32.873  1.00  0.00     0.224 C 
HETATM   27  O   UNL     1     -13.781   3.175 -32.151  1.00  0.00    -0.273 OA
HETATM   28  C   UNL     1     -15.290   1.567 -33.120  1.00  0.00     0.105 C 
HETATM   29  C   UNL     1     -15.039   0.689 -34.331  1.00  0.00     0.029 C 
HETATM   30  C   UNL     1     -13.587   0.288 -34.176  1.00  0.00     0.133 C 
ENDBRANCH  22  25
ENDBRANCH  18  19
ENDBRANCH  15  18
ENDBRANCH   1  15
BRANCH   1  31
HETATM   31  C   UNL     1      -5.344  -0.582 -33.531  1.00  0.00    -0.019 A 
HETATM   32  C   UNL     1      -6.605  -1.094 -33.886  1.00  0.00     0.010 A 
HETATM   33  C   UNL     1      -6.721  -2.371 -34.440  1.00  0.00     0.001 A 
HETATM   34  C   UNL     1      -5.587  -3.154 -34.641  1.00  0.00     0.000 A 
HETATM   35  C   UNL     1      -4.332  -2.666 -34.287  1.00  0.00     0.001 A 
HETATM   36  C   UNL     1      -4.210  -1.391 -33.731  1.00  0.00     0.010 A 
ENDBRANCH   1  31
TORSDOF 8
ENDMDL
MODEL 3
REMARK VINA RESULT:      -8.2      2.643      6.500
REMARK  8 active torsions:
REMARK  status: ('A' for Active; 'I' for Inactive)
REMARK    1  A    between atoms: C_4  and  N_5 
REMARK       I    between atoms: N_5  and  C_6 
REMARK    2  A    between atoms: C_6  and  C_7 
REMARK    3  A    between atoms: C_7  and  N_8 
REMARK    4  A    between atoms: C_7  and  C_24 
REMARK    5  A    between atoms: N_8  and  C_11 
REMARK    6  A    between atoms: C_11  and  C_12 
REMARK    7  A    between atoms: C_15  and  N_16 
REMARK    8  A    between atoms: C_31  and  O_32 
ROOT
HETATM    1  C   UNL     1      -7.880   1.489 -32.790  1.00  0.00     0.310 C 
ENDROOT
BRANCH   1   2
HETATM    2  C   UNL     1      -9.087   1.149 -31.882  1.00  0.00     0.257 C 
HETATM    3  N   UNL     1      -9.439   1.913 -30.811  1.00  0.00    -0.323 N 
HETATM    4  H   UNL     1     -10.015   1.425 -30.126  1.00  0.00     0.169 HD
HETATM    5  O   UNL     1      -9.726   0.116 -32.131  1.00  0.00    -0.270 OA
BRANCH   3   6
HETATM    6  C   UNL     1      -8.959   3.162 -30.364  1.00  0.00     0.069 A 
HETATM    7  C   UNL     1      -7.653   3.361 -29.904  1.00  0.00     0.039 A 
HETATM    8  C   UNL     1      -7.236   4.625 -29.466  1.00  0.00    -0.060 A 
HETATM    9  C   UNL     1      -5.845   4.828 -28.940  1.00  0.00     0.048 C 
HETATM   10  C   UNL     1      -8.144   5.687 -29.490  1.00  0.00     0.009 A 
HETATM   11  C   UNL     1      -9.436   5.509 -29.991  1.00  0.00     0.039 A 
HETATM   12  C   UNL     1      -9.847   4.254 -30.442  1.00  0.00     0.095 A 
BRANCH  12  13
HETATM   13  O   UNL     1     -11.094   3.963 -30.940  1.00  0.00    -0.354 OA
HETATM   14  C   UNL     1     -11.604   4.830 -31.949  1.00  0.00     0.210 C 
ENDBRANCH  12  13
ENDBRANCH   3   6
ENDBRANCH   1   2
BRANCH   1  15
HETATM   15  N   UNL     1      -8.353   2.326 -33.977  1.00  0.00    -0.054 N 
HETATM   16  H   UNL     1      -7.700   2.126 -34.749  1.00  0.00     0.278 HD
HETATM   17  H   UNL     1      -9.280   2.011 -34.277  1.00  0.00     0.278 HD
BRANCH  15  18
HETATM   18  C   UNL     1      -8.360   3.807 -33.818  1.00  0.00     0.272 C 
BRANCH  18  19
HETATM   19  C   UNL     1      -6.963   4.322 -33.611  1.00  0.00    -0.033 A 
HETATM   20  C   UNL     1      -5.874   3.650 -34.178  1.00  0.00     0.011 A 
HETATM   21  C   UNL     1      -4.568   4.101 -33.965  1.00  0.00     0.030 A 
HETATM   22  C   UNL     1      -4.306   5.243 -33.201  1.00  0.00     0.037 A 
HETATM   23  C   UNL     1      -5.403   5.923 -32.654  1.00  0.00     0.030 A 
HETATM   24  C   UNL     1      -6.715   5.465 -32.844  1.00  0.00     0.011 A 
BRANCH  22  25
HETATM   25  N   UNL     1      -2.981   5.707 -32.998  1.00  0.00    -0.318 N 
HETATM   26  C   UNL     1      -1.979   5.051 -32.260  1.00  0.00     0.224 C 
HETATM   27  O   UNL     1      -2.043   3.993 -31.655  1.00  0.00    -0.273 OA
HETATM   28  C   UNL     1      -0.760   5.944 -32.246  1.00  0.00     0.105 C 
HETATM   29  C   UNL     1      -1.014   6.891 -33.403  1.00  0.00     0.029 C 
HETATM   30  C   UNL     1      -2.523   7.005 -33.436  1.00  0.00     0.133 C 
ENDBRANCH  22  25
ENDBRANCH  18  19
ENDBRANCH  15  18
ENDBRANCH   1  15
BRANCH   1  31
HETATM   31  C   UNL     1      -7.040   0.308 -33.237  1.00  0.00    -0.019 A 
HETATM   32  C   UNL     1      -5.960  -0.116 -32.442  1.00  0.00     0.010 A 
HETATM   33  C   UNL     1      -5.149  -1.176 -32.854  1.00  0.00     0.001 A 
HETATM   34  C   UNL     1      -5.399  -1.821 -34.063  1.00  0.00     0.000 A 
HETATM   35  C   UNL     1      -6.457  -1.408 -34.866  1.00  0.00     0.001 A 
HETATM   36  C   UNL     1      -7.270  -0.348 -34.461  1.00  0.00     0.010 A 
ENDBRANCH   1  31
TORSDOF 8
ENDMDL
MODEL 4
REMARK VINA RESULT:      -8.1      2.659      6.517
REMARK  8 active torsions:
REMARK  status: ('A' for Active; 'I' for Inactive)
REMARK    1  A    between atoms: C_4  and  N_5 
REMARK       I    between atoms: N_5  and  C_6 
REMARK    2  A    between atoms: C_6  and  C_7 
REMARK    3  A    between atoms: C_7  and  N_8 
REMARK    4  A    between atoms: C_7  and  C_24 
REMARK    5  A    between atoms: N_8  and  C_11 
REMARK    6  A    between atoms: C_11  and  C_12 
REMARK    7  A    between atoms: C_15  and  N_16 
REMARK    8  A    between atoms: C_31  and  O_32 
ROOT
HETATM    1  C   UNL     1      -5.391   2.432 -32.826  1.00  0.00     0.310 C 
ENDROOT
BRANCH   1   2
HETATM    2  C   UNL     1      -5.831   2.534 -31.345  1.00  0.00     0.257 C 
HETATM    3  N   UNL     1      -7.138   2.494 -30.963  1.00  0.00    -0.323 N 
HETATM    4  H   UNL     1      -7.311   2.891 -30.040  1.00  0.00     0.169 HD
HETATM    5  O   UNL     1      -4.949   2.695 -30.488  1.00  0.00    -0.270 OA
BRANCH   3   6
HETATM    6  C   UNL     1      -8.312   2.228 -31.698  1.00  0.00     0.069 A 
HETATM    7  C   UNL     1      -8.838   0.943 -31.863  1.00  0.00     0.039 A 
HETATM    8  C   UNL     1     -10.006   0.741 -32.610  1.00  0.00    -0.060 A 
HETATM    9  C   UNL     1     -10.549  -0.644 -32.815  1.00  0.00     0.048 C 
HETATM   10  C   UNL     1     -10.639   1.841 -33.195  1.00  0.00     0.009 A 
HETATM   11  C   UNL     1     -10.148   3.133 -32.997  1.00  0.00     0.039 A 
HETATM   12  C   UNL     1      -8.993   3.337 -32.240  1.00  0.00     0.095 A 
BRANCH  12  13
HETATM   13  O   UNL     1      -8.415   4.559 -31.994  1.00  0.00    -0.354 OA
HETATM   14  C   UNL     1      -8.717   5.611 -32.907  1.00  0.00     0.210 C 
ENDBRANCH  12  13
ENDBRANCH   3   6
ENDBRANCH   1   2
BRANCH   1  15
HETATM   15  N   UNL     1      -5.753   3.723 -33.557  1.00  0.00    -0.054 N 
HETATM   16  H   UNL     1      -6.371   3.449 -34.335  1.00  0.00     0.278 HD
HETATM   17  H   UNL     1      -6.297   4.331 -32.939  1.00  0.00     0.278 HD
BRANCH  15  18
HETATM   18  C   UNL     1      -4.643   4.505 -34.170  1.00  0.00     0.272 C 
BRANCH  18  19
HETATM   19  C   UNL     1      -3.655   4.932 -33.121  1.00  0.00    -0.033 A 
HETATM   20  C   UNL     1      -4.066   5.743 -32.057  1.00  0.00     0.011 A 
HETATM   21  C   UNL     1      -3.149   6.172 -31.091  1.00  0.00     0.030 A 
HETATM   22  C   UNL     1      -1.804   5.793 -31.144  1.00  0.00     0.037 A 
HETATM   23  C   UNL     1      -1.405   4.963 -32.201  1.00  0.00     0.030 A 
HETATM   24  C   UNL     1      -2.313   4.545 -33.185  1.00  0.00     0.011 A 
BRANCH  22  25
HETATM   25  N   UNL     1      -0.878   6.218 -30.157  1.00  0.00    -0.318 N 
HETATM   26  C   UNL     1       0.171   5.449 -29.622  1.00  0.00     0.224 C 
HETATM   27  O   UNL     1       0.483   4.297 -29.877  1.00  0.00    -0.273 OA
HETATM   28  C   UNL     1       0.845   6.274 -28.550  1.00  0.00     0.105 C 
HETATM   29  C   UNL     1       0.395   7.687 -28.870  1.00  0.00     0.029 C 
HETATM   30  C   UNL     1      -0.978   7.487 -29.475  1.00  0.00     0.133 C 
ENDBRANCH  22  25
ENDBRANCH  18  19
ENDBRANCH  15  18
ENDBRANCH   1  15
BRANCH   1  31
HETATM   31  C   UNL     1      -5.880   1.207 -33.575  1.00  0.00    -0.019 A 
HETATM   32  C   UNL     1      -6.739   1.365 -34.677  1.00  0.00     0.010 A 
HETATM   33  C   UNL     1      -7.233   0.250 -35.357  1.00  0.00     0.001 A 
HETATM   34  C   UNL     1      -6.885  -1.034 -34.943  1.00  0.00     0.000 A 
HETATM   35  C   UNL     1      -6.044  -1.208 -33.849  1.00  0.00     0.001 A 
HETATM   36  C   UNL     1      -5.548  -0.098 -33.164  1.00  0.00     0.010 A 
ENDBRANCH   1  31
TORSDOF 8
ENDMDL
MODEL 5
REMARK VINA RESULT:      -8.1      2.529      7.330
REMARK  8 active torsions:
REMARK  status: ('A' for Active; 'I' for Inactive)
REMARK    1  A    between atoms: C_4  and  N_5 
REMARK       I    between atoms: N_5  and  C_6 
REMARK    2  A    between atoms: C_6  and  C_7 
REMARK    3  A    between atoms: C_7  and  N_8 
REMARK    4  A    between atoms: C_7  and  C_24 
REMARK    5  A    between atoms: N_8  and  C_11 
REMARK    6  A    between atoms: C_11  and  C_12 
REMARK    7  A    between atoms: C_15  and  N_16 
REMARK    8  A    between atoms: C_31  and  O_32 
ROOT
HETATM    1  C   UNL     1      -8.962   2.805 -32.984  1.00  0.00     0.310 C 
ENDROOT
BRANCH   1   2
HETATM    2  C   UNL     1      -8.767   2.234 -31.558  1.00  0.00     0.257 C 
HETATM    3  N   UNL     1      -7.925   1.198 -31.290  1.00  0.00    -0.323 N 
HETATM    4  H   UNL     1      -8.127   0.716 -30.415  1.00  0.00     0.169 HD
HETATM    5  O   UNL     1      -9.439   2.727 -30.640  1.00  0.00    -0.270 OA
BRANCH   3   6
HETATM    6  C   UNL     1      -6.989   0.527 -32.106  1.00  0.00     0.069 A 
HETATM    7  C   UNL     1      -7.316  -0.584 -32.891  1.00  0.00     0.039 A 
HETATM    8  C   UNL     1      -6.341  -1.212 -33.677  1.00  0.00    -0.060 A 
HETATM    9  C   UNL     1      -6.685  -2.426 -34.491  1.00  0.00     0.048 C 
HETATM   10  C   UNL     1      -5.034  -0.719 -33.664  1.00  0.00     0.009 A 
HETATM   11  C   UNL     1      -4.709   0.418 -32.920  1.00  0.00     0.039 A 
HETATM   12  C   UNL     1      -5.683   1.054 -32.149  1.00  0.00     0.095 A 
BRANCH  12  13
HETATM   13  O   UNL     1      -5.472   2.166 -31.370  1.00  0.00    -0.354 OA
HETATM   14  C   UNL     1      -4.121   2.480 -31.047  1.00  0.00     0.210 C 
ENDBRANCH  12  13
ENDBRANCH   3   6
ENDBRANCH   1   2
BRANCH   1  15
HETATM   15  N   UNL     1      -8.753   4.318 -32.961  1.00  0.00    -0.054 N 
HETATM   16  H   UNL     1      -9.693   4.739 -33.023  1.00  0.00     0.278 HD
HETATM   17  H   UNL     1      -8.355   4.601 -32.062  1.00  0.00     0.278 HD
BRANCH  15  18
HETATM   18  C   UNL     1      -7.959   4.923 -34.068  1.00  0.00     0.272 C 
BRANCH  18  19
HETATM   19  C   UNL     1      -6.565   5.240 -33.604  1.00  0.00    -0.033 A 
HETATM   20  C   UNL     1      -6.361   6.142 -32.554  1.00  0.00     0.011 A 
HETATM   21  C   UNL     1      -5.067   6.469 -32.135  1.00  0.00     0.030 A 
HETATM   22  C   UNL     1      -3.940   5.895 -32.734  1.00  0.00     0.037 A 
HETATM   23  C   UNL     1      -4.154   4.976 -33.771  1.00  0.00     0.030 A 
HETATM   24  C   UNL     1      -5.447   4.659 -34.211  1.00  0.00     0.011 A 
BRANCH  22  25
HETATM   25  N   UNL     1      -2.629   6.217 -32.299  1.00  0.00    -0.318 N 
HETATM   26  C   UNL     1      -1.714   7.044 -32.974  1.00  0.00     0.224 C 
HETATM   27  O   UNL     1      -1.848   7.624 -34.040  1.00  0.00    -0.273 OA
HETATM   28  C   UNL     1      -0.423   7.039 -32.187  1.00  0.00     0.105 C 
HETATM   29  C   UNL     1      -0.855   6.543 -30.821  1.00  0.00     0.029 C 
HETATM   30  C   UNL     1      -2.014   5.621 -31.135  1.00  0.00     0.133 C 
ENDBRANCH  22  25
ENDBRANCH  18  19
ENDBRANCH  15  18
ENDBRANCH   1  15
BRANCH   1  31
HETATM   31  C   UNL     1     -10.261   2.428 -33.671  1.00  0.00    -0.019 A 
HETATM   32  C   UNL     1     -10.852   3.326 -34.577  1.00  0.00     0.010 A 
HETATM   33  C   UNL     1     -12.068   3.016 -35.191  1.00  0.00     0.001 A 
HETATM   34  C   UNL     1     -12.712   1.815 -34.904  1.00  0.00     0.000 A 
HETATM   35  C   UNL     1     -12.145   0.920 -34.002  1.00  0.00     0.001 A 
HETATM   36  C   UNL     1     -10.931   1.224 -33.385  1.00  0.00     0.010 A 
ENDBRANCH   1  31
TORSDOF 8
ENDMDL
MODEL 6
REMARK VINA RESULT:      -7.7      2.236      5.815
REMARK  8 active torsions:
REMARK  status: ('A' for Active; 'I' for Inactive)
REMARK    1  A    between atoms: C_4  and  N_5 
REMARK       I    between atoms: N_5  and  C_6 
REMARK    2  A    between atoms: C_6  and  C_7 
REMARK    3  A    between atoms: C_7  and  N_8 
REMARK    4  A    between atoms: C_7  and  C_24 
REMARK    5  A    between atoms: N_8  and  C_11 
REMARK    6  A    between atoms: C_11  and  C_12 
REMARK    7  A    between atoms: C_15  and  N_16 
REMARK    8  A    between atoms: C_31  and  O_32 
ROOT
HETATM    1  C   UNL     1      -4.589   4.375 -31.568  1.00  0.00     0.310 C 
ENDROOT
BRANCH   1   2
HETATM    2  C   UNL     1      -4.465   5.698 -32.363  1.00  0.00     0.257 C 
HETATM    3  N   UNL     1      -3.376   6.510 -32.271  1.00  0.00    -0.323 N 
HETATM    4  H   UNL     1      -3.550   7.470 -32.567  1.00  0.00     0.169 HD
HETATM    5  O   UNL     1      -5.419   6.034 -33.079  1.00  0.00    -0.270 OA
BRANCH   3   6
HETATM    6  C   UNL     1      -2.135   6.331 -31.623  1.00  0.00     0.069 A 
HETATM    7  C   UNL     1      -1.827   6.908 -30.387  1.00  0.00     0.039 A 
HETATM    8  C   UNL     1      -0.574   6.698 -29.796  1.00  0.00    -0.060 A 
HETATM    9  C   UNL     1      -0.232   7.347 -28.486  1.00  0.00     0.048 C 
HETATM   10  C   UNL     1       0.369   5.908 -30.459  1.00  0.00     0.009 A 
HETATM   11  C   UNL     1       0.053   5.289 -31.671  1.00  0.00     0.039 A 
HETATM   12  C   UNL     1      -1.201   5.485 -32.253  1.00  0.00     0.095 A 
BRANCH  12  13
HETATM   13  O   UNL     1      -1.612   4.939 -33.445  1.00  0.00    -0.354 OA
HETATM   14  C   UNL     1      -1.168   5.583 -34.636  1.00  0.00     0.210 C 
ENDBRANCH  12  13
ENDBRANCH   3   6
ENDBRANCH   1   2
BRANCH   1  15
HETATM   15  N   UNL     1      -3.873   3.256 -32.322  1.00  0.00    -0.054 N 
HETATM   16  H   UNL     1      -4.540   2.912 -33.029  1.00  0.00     0.278 HD
HETATM   17  H   UNL     1      -3.068   3.637 -32.827  1.00  0.00     0.278 HD
BRANCH  15  18
HETATM   18  C   UNL     1      -3.447   2.060 -31.542  1.00  0.00     0.272 C 
BRANCH  18  19
HETATM   19  C   UNL     1      -3.947   0.801 -32.195  1.00  0.00    -0.033 A 
HETATM   20  C   UNL     1      -3.375  -0.434 -31.871  1.00  0.00     0.011 A 
HETATM   21  C   UNL     1      -3.809  -1.608 -32.495  1.00  0.00     0.030 A 
HETATM   22  C   UNL     1      -4.837  -1.592 -33.444  1.00  0.00     0.037 A 
HETATM   23  C   UNL     1      -5.419  -0.354 -33.748  1.00  0.00     0.030 A 
HETATM   24  C   UNL     1      -4.975   0.831 -33.142  1.00  0.00     0.011 A 
BRANCH  22  25
HETATM   25  N   UNL     1      -5.286  -2.785 -34.066  1.00  0.00    -0.318 N 
HETATM   26  C   UNL     1      -4.557  -3.982 -34.182  1.00  0.00     0.224 C 
HETATM   27  O   UNL     1      -3.425  -4.229 -33.798  1.00  0.00    -0.273 OA
HETATM   28  C   UNL     1      -5.393  -4.953 -34.983  1.00  0.00     0.105 C 
HETATM   29  C   UNL     1      -6.788  -4.369 -34.883  1.00  0.00     0.029 C 
HETATM   30  C   UNL     1      -6.537  -2.880 -34.781  1.00  0.00     0.133 C 
ENDBRANCH  22  25
ENDBRANCH  18  19
ENDBRANCH  15  18
ENDBRANCH   1  15
BRANCH   1  31
HETATM   31  C   UNL     1      -5.999   3.973 -31.176  1.00  0.00    -0.019 A 
HETATM   32  C   UNL     1      -6.428   4.151 -29.849  1.00  0.00     0.010 A 
HETATM   33  C   UNL     1      -7.707   3.752 -29.458  1.00  0.00     0.001 A 
HETATM   34  C   UNL     1      -8.571   3.165 -30.379  1.00  0.00     0.000 A 
HETATM   35  C   UNL     1      -8.159   2.972 -31.694  1.00  0.00     0.001 A 
HETATM   36  C   UNL     1      -6.881   3.368 -32.091  1.00  0.00     0.010 A 
ENDBRANCH   1  31
TORSDOF 8
ENDMDL
MODEL 7
REMARK VINA RESULT:      -7.7      2.636      4.632
REMARK  8 active torsions:
REMARK  status: ('A' for Active; 'I' for Inactive)
REMARK    1  A    between atoms: C_4  and  N_5 
REMARK       I    between atoms: N_5  and  C_6 
REMARK    2  A    between atoms: C_6  and  C_7 
REMARK    3  A    between atoms: C_7  and  N_8 
REMARK    4  A    between atoms: C_7  and  C_24 
REMARK    5  A    between atoms: N_8  and  C_11 
REMARK    6  A    between atoms: C_11  and  C_12 
REMARK    7  A    between atoms: C_15  and  N_16 
REMARK    8  A    between atoms: C_31  and  O_32 
ROOT
HETATM    1  C   UNL     1      -3.166   4.848 -32.445  1.00  0.00     0.310 C 
ENDROOT
BRANCH   1   2
HETATM    2  C   UNL     1      -4.231   5.922 -32.776  1.00  0.00     0.257 C 
HETATM    3  N   UNL     1      -4.675   6.823 -31.857  1.00  0.00    -0.323 N 
HETATM    4  H   UNL     1      -5.577   7.240 -32.088  1.00  0.00     0.169 HD
HETATM    5  O   UNL     1      -4.716   5.923 -33.917  1.00  0.00    -0.270 OA
BRANCH   3   6
HETATM    6  C   UNL     1      -4.238   7.105 -30.545  1.00  0.00     0.069 A 
HETATM    7  C   UNL     1      -3.160   7.950 -30.263  1.00  0.00     0.039 A 
HETATM    8  C   UNL     1      -2.768   8.186 -28.938  1.00  0.00    -0.060 A 
HETATM    9  C   UNL     1      -1.589   9.066 -28.638  1.00  0.00     0.048 C 
HETATM   10  C   UNL     1      -3.465   7.562 -27.900  1.00  0.00     0.009 A 
HETATM   11  C   UNL     1      -4.572   6.754 -28.171  1.00  0.00     0.039 A 
HETATM   12  C   UNL     1      -4.972   6.530 -29.489  1.00  0.00     0.095 A 
BRANCH  12  13
HETATM   13  O   UNL     1      -6.033   5.744 -29.870  1.00  0.00    -0.354 OA
HETATM   14  C   UNL     1      -6.707   5.027 -28.839  1.00  0.00     0.210 C 
ENDBRANCH  12  13
ENDBRANCH   3   6
ENDBRANCH   1   2
BRANCH   1  15
HETATM   15  N   UNL     1      -3.763   3.811 -31.496  1.00  0.00    -0.054 N 
HETATM   16  H   UNL     1      -3.080   3.040 -31.445  1.00  0.00     0.278 HD
HETATM   17  H   UNL     1      -3.843   4.206 -30.556  1.00  0.00     0.278 HD
BRANCH  15  18
HETATM   18  C   UNL     1      -5.059   3.185 -31.883  1.00  0.00     0.272 C 
BRANCH  18  19
HETATM   19  C   UNL     1      -4.857   1.744 -32.259  1.00  0.00    -0.033 A 
HETATM   20  C   UNL     1      -3.582   1.171 -32.191  1.00  0.00     0.011 A 
HETATM   21  C   UNL     1      -3.376  -0.159 -32.569  1.00  0.00     0.030 A 
HETATM   22  C   UNL     1      -4.433  -0.965 -33.005  1.00  0.00     0.037 A 
HETATM   23  C   UNL     1      -5.711  -0.391 -33.050  1.00  0.00     0.030 A 
HETATM   24  C   UNL     1      -5.922   0.949 -32.693  1.00  0.00     0.011 A 
BRANCH  22  25
HETATM   25  N   UNL     1      -4.225  -2.319 -33.374  1.00  0.00    -0.318 N 
HETATM   26  C   UNL     1      -3.482  -3.268 -32.651  1.00  0.00     0.224 C 
HETATM   27  O   UNL     1      -2.874  -3.127 -31.602  1.00  0.00    -0.273 OA
HETATM   28  C   UNL     1      -3.464  -4.548 -33.455  1.00  0.00     0.105 C 
HETATM   29  C   UNL     1      -4.625  -4.367 -34.414  1.00  0.00     0.029 C 
HETATM   30  C   UNL     1      -4.665  -2.870 -34.635  1.00  0.00     0.133 C 
ENDBRANCH  22  25
ENDBRANCH  18  19
ENDBRANCH  15  18
ENDBRANCH   1  15
BRANCH   1  31
HETATM   31  C   UNL     1      -1.837   5.375 -31.936  1.00  0.00    -0.019 A 
HETATM   32  C   UNL     1      -1.263   4.811 -30.783  1.00  0.00     0.010 A 
HETATM   33  C   UNL     1      -0.061   5.306 -30.275  1.00  0.00     0.001 A 
HETATM   34  C   UNL     1       0.579   6.372 -30.903  1.00  0.00     0.000 A 
HETATM   35  C   UNL     1       0.020   6.948 -32.039  1.00  0.00     0.001 A 
HETATM   36  C   UNL     1      -1.182   6.458 -32.552  1.00  0.00     0.010 A 
ENDBRANCH   1  31
TORSDOF 8
ENDMDL
MODEL 8
REMARK VINA RESULT:      -7.4      2.441      6.991
REMARK  8 active torsions:
REMARK  status: ('A' for Active; 'I' for Inactive)
REMARK    1  A    between atoms: C_4  and  N_5 
REMARK       I    between atoms: N_5  and  C_6 
REMARK    2  A    between atoms: C_6  and  C_7 
REMARK    3  A    between atoms: C_7  and  N_8 
REMARK    4  A    between atoms: C_7  and  C_24 
REMARK    5  A    between atoms: N_8  and  C_11 
REMARK    6  A    between atoms: C_11  and  C_12 
REMARK    7  A    between atoms: C_15  and  N_16 
REMARK    8  A    between atoms: C_31  and  O_32 
ROOT
HETATM    1  C   UNL     1      -6.637   0.023 -33.809  1.00  0.00     0.310 C 
ENDROOT
BRANCH   1   2
HETATM    2  C   UNL     1      -7.291   0.754 -35.006  1.00  0.00     0.257 C 
HETATM    3  N   UNL     1      -8.139   1.808 -34.849  1.00  0.00    -0.323 N 
HETATM    4  H   UNL     1      -8.739   1.980 -35.654  1.00  0.00     0.169 HD
HETATM    5  O   UNL     1      -7.052   0.328 -36.146  1.00  0.00    -0.270 OA
BRANCH   3   6
HETATM    6  C   UNL     1      -8.503   2.544 -33.701  1.00  0.00     0.069 A 
HETATM    7  C   UNL     1      -7.876   3.737 -33.327  1.00  0.00     0.039 A 
HETATM    8  C   UNL     1      -8.277   4.420 -32.171  1.00  0.00    -0.060 A 
HETATM    9  C   UNL     1      -7.580   5.682 -31.752  1.00  0.00     0.048 C 
HETATM   10  C   UNL     1      -9.310   3.893 -31.392  1.00  0.00     0.009 A 
HETATM   11  C   UNL     1      -9.973   2.727 -31.783  1.00  0.00     0.039 A 
HETATM   12  C   UNL     1      -9.584   2.054 -32.942  1.00  0.00     0.095 A 
BRANCH  12  13
HETATM   13  O   UNL     1     -10.155   0.895 -33.412  1.00  0.00    -0.354 OA
HETATM   14  C   UNL     1     -10.031  -0.263 -32.591  1.00  0.00     0.210 C 
ENDBRANCH  12  13
ENDBRANCH   3   6
ENDBRANCH   1   2
BRANCH   1  15
HETATM   15  N   UNL     1      -5.483   0.863 -33.265  1.00  0.00    -0.054 N 
HETATM   16  H   UNL     1      -4.632   0.292 -33.379  1.00  0.00     0.278 HD
HETATM   17  H   UNL     1      -5.362   1.701 -33.840  1.00  0.00     0.278 HD
BRANCH  15  18
HETATM   18  C   UNL     1      -5.528   1.251 -31.827  1.00  0.00     0.272 C 
BRANCH  18  19
HETATM   19  C   UNL     1      -4.869   2.586 -31.620  1.00  0.00    -0.033 A 
HETATM   20  C   UNL     1      -3.958   3.075 -32.562  1.00  0.00     0.011 A 
HETATM   21  C   UNL     1      -3.314   4.301 -32.365  1.00  0.00     0.030 A 
HETATM   22  C   UNL     1      -3.572   5.086 -31.237  1.00  0.00     0.037 A 
HETATM   23  C   UNL     1      -4.503   4.600 -30.307  1.00  0.00     0.030 A 
HETATM   24  C   UNL     1      -5.136   3.361 -30.487  1.00  0.00     0.011 A 
BRANCH  22  25
HETATM   25  N   UNL     1      -2.930   6.336 -31.044  1.00  0.00    -0.318 N 
HETATM   26  C   UNL     1      -3.523   7.602 -31.196  1.00  0.00     0.224 C 
HETATM   27  O   UNL     1      -4.666   7.878 -31.523  1.00  0.00    -0.273 OA
HETATM   28  C   UNL     1      -2.449   8.642 -30.969  1.00  0.00     0.105 C 
HETATM   29  C   UNL     1      -1.372   7.869 -30.234  1.00  0.00     0.029 C 
HETATM   30  C   UNL     1      -1.516   6.464 -30.779  1.00  0.00     0.133 C 
ENDBRANCH  22  25
ENDBRANCH  18  19
ENDBRANCH  15  18
ENDBRANCH   1  15
BRANCH   1  31
HETATM   31  C   UNL     1      -6.213  -1.411 -34.066  1.00  0.00    -0.019 A 
HETATM   32  C   UNL     1      -4.849  -1.750 -34.023  1.00  0.00     0.010 A 
HETATM   33  C   UNL     1      -4.434  -3.055 -34.295  1.00  0.00     0.001 A 
HETATM   34  C   UNL     1      -5.368  -4.035 -34.620  1.00  0.00     0.000 A 
HETATM   35  C   UNL     1      -6.721  -3.714 -34.677  1.00  0.00     0.001 A 
HETATM   36  C   UNL     1      -7.143  -2.411 -34.407  1.00  0.00     0.010 A 
ENDBRANCH   1  31
TORSDOF 8
ENDMDL
MODEL 9
REMARK VINA RESULT:      -7.4      2.219      6.949
REMARK  8 active torsions:
REMARK  status: ('A' for Active; 'I' for Inactive)
REMARK    1  A    between atoms: C_4  and  N_5 
REMARK       I    between atoms: N_5  and  C_6 
REMARK    2  A    between atoms: C_6  and  C_7 
REMARK    3  A    between atoms: C_7  and  N_8 
REMARK    4  A    between atoms: C_7  and  C_24 
REMARK    5  A    between atoms: N_8  and  C_11 
REMARK    6  A    between atoms: C_11  and  C_12 
REMARK    7  A    between atoms: C_15  and  N_16 
REMARK    8  A    between atoms: C_31  and  O_32 
ROOT
HETATM    1  C   UNL     1      -6.910   2.734 -31.963  1.00  0.00     0.310 C 
ENDROOT
BRANCH   1   2
HETATM    2  C   UNL     1      -6.646   1.993 -30.629  1.00  0.00     0.257 C 
HETATM    3  N   UNL     1      -6.017   0.787 -30.572  1.00  0.00    -0.323 N 
HETATM    4  H   UNL     1      -6.195   0.268 -29.712  1.00  0.00     0.169 HD
HETATM    5  O   UNL     1      -7.064   2.515 -29.585  1.00  0.00    -0.270 OA
BRANCH   3   6
HETATM    6  C   UNL     1      -5.368   0.029 -31.569  1.00  0.00     0.069 A 
HETATM    7  C   UNL     1      -6.032  -0.898 -32.379  1.00  0.00     0.039 A 
HETATM    8  C   UNL     1      -5.332  -1.626 -33.350  1.00  0.00    -0.060 A 
HETATM    9  C   UNL     1      -6.039  -2.647 -34.194  1.00  0.00     0.048 C 
HETATM   10  C   UNL     1      -3.958  -1.419 -33.497  1.00  0.00     0.009 A 
HETATM   11  C   UNL     1      -3.295  -0.462 -32.725  1.00  0.00     0.039 A 
HETATM   12  C   UNL     1      -3.995   0.275 -31.769  1.00  0.00     0.095 A 
BRANCH  12  13
HETATM   13  O   UNL     1      -3.443   1.228 -30.947  1.00  0.00    -0.354 OA
HETATM   14  C   UNL     1      -3.161   2.497 -31.531  1.00  0.00     0.210 C 
ENDBRANCH  12  13
ENDBRANCH   3   6
ENDBRANCH   1   2
BRANCH   1  15
HETATM   15  N   UNL     1      -7.835   3.923 -31.712  1.00  0.00    -0.054 N 
HETATM   16  H   UNL     1      -8.748   3.668 -32.119  1.00  0.00     0.278 HD
HETATM   17  H   UNL     1      -7.977   4.047 -30.707  1.00  0.00     0.278 HD
BRANCH  15  18
HETATM   18  C   UNL     1      -7.464   5.230 -32.325  1.00  0.00     0.272 C 
BRANCH  18  19
HETATM   19  C   UNL     1      -5.993   5.491 -32.159  1.00  0.00    -0.033 A 
HETATM   20  C   UNL     1      -5.460   5.732 -30.888  1.00  0.00     0.011 A 
HETATM   21  C   UNL     1      -4.099   6.008 -30.724  1.00  0.00     0.030 A 
HETATM   22  C   UNL     1      -3.224   6.033 -31.816  1.00  0.00     0.037 A 
HETATM   23  C   UNL     1      -3.762   5.770 -33.084  1.00  0.00     0.030 A 
HETATM   24  C   UNL     1      -5.129   5.513 -33.258  1.00  0.00     0.011 A 
BRANCH  22  25
HETATM   25  N   UNL     1      -1.841   6.299 -31.647  1.00  0.00    -0.318 N 
HETATM   26  C   UNL     1      -1.174   7.478 -32.025  1.00  0.00     0.224 C 
HETATM   27  O   UNL     1      -1.627   8.473 -32.568  1.00  0.00    -0.273 OA
HETATM   28  C   UNL     1       0.296   7.289 -31.729  1.00  0.00     0.105 C 
HETATM   29  C   UNL     1       0.303   6.134 -30.746  1.00  0.00     0.029 C 
HETATM   30  C   UNL     1      -0.902   5.316 -31.161  1.00  0.00     0.133 C 
ENDBRANCH  22  25
ENDBRANCH  18  19
ENDBRANCH  15  18
ENDBRANCH   1  15
BRANCH   1  31
HETATM   31  C   UNL     1      -7.403   1.871 -33.109  1.00  0.00    -0.019 A 
HETATM   32  C   UNL     1      -6.620   1.746 -34.270  1.00  0.00     0.010 A 
HETATM   33  C   UNL     1      -7.074   0.988 -35.352  1.00  0.00     0.001 A 
HETATM   34  C   UNL     1      -8.312   0.354 -35.294  1.00  0.00     0.000 A 
HETATM   35  C   UNL     1      -9.104   0.476 -34.156  1.00  0.00     0.001 A 
HETATM   36  C   UNL     1      -8.658   1.233 -33.072  1.00  0.00     0.010 A 
ENDBRANCH   1  31
TORSDOF 8
ENDMDL
MODEL 10
REMARK VINA RESULT:      -7.4      2.692      5.880
REMARK  8 active torsions:
REMARK  status: ('A' for Active; 'I' for Inactive)
REMARK    1  A    between atoms: C_4  and  N_5 
REMARK       I    between atoms: N_5  and  C_6 
REMARK    2  A    between atoms: C_6  and  C_7 
REMARK    3  A    between atoms: C_7  and  N_8 
REMARK    4  A    between atoms: C_7  and  C_24 
REMARK    5  A    between atoms: N_8  and  C_11 
REMARK    6  A    between atoms: C_11  and  C_12 
REMARK    7  A    between atoms: C_15  and  N_16 
REMARK    8  A    between atoms: C_31  and  O_32 
ROOT
HETATM    1  C   UNL     1      -4.332   4.686 -31.179  1.00  0.00     0.310 C 
ENDROOT
BRANCH   1   2
HETATM    2  C   UNL     1      -4.086   5.658 -32.359  1.00  0.00     0.257 C 
HETATM    3  N   UNL     1      -3.012   6.493 -32.411  1.00  0.00    -0.323 N 
HETATM    4  H   UNL     1      -3.133   7.284 -33.042  1.00  0.00     0.169 HD
HETATM    5  O   UNL     1      -4.929   5.690 -33.267  1.00  0.00    -0.270 OA
BRANCH   3   6
HETATM    6  C   UNL     1      -1.873   6.594 -31.583  1.00  0.00     0.069 A 
HETATM    7  C   UNL     1      -0.843   5.649 -31.579  1.00  0.00     0.039 A 
HETATM    8  C   UNL     1       0.261   5.801 -30.730  1.00  0.00    -0.060 A 
HETATM    9  C   UNL     1       1.349   4.766 -30.701  1.00  0.00     0.048 C 
HETATM   10  C   UNL     1       0.318   6.909 -29.880  1.00  0.00     0.009 A 
HETATM   11  C   UNL     1      -0.683   7.883 -29.911  1.00  0.00     0.039 A 
HETATM   12  C   UNL     1      -1.775   7.740 -30.768  1.00  0.00     0.095 A 
BRANCH  12  13
HETATM   13  O   UNL     1      -2.820   8.625 -30.870  1.00  0.00    -0.354 OA
HETATM   14  C   UNL     1      -2.589   9.952 -30.406  1.00  0.00     0.210 C 
ENDBRANCH  12  13
ENDBRANCH   3   6
ENDBRANCH   1   2
BRANCH   1  15
HETATM   15  N   UNL     1      -4.676   3.300 -31.722  1.00  0.00    -0.054 N 
HETATM   16  H   UNL     1      -5.645   3.108 -31.427  1.00  0.00     0.278 HD
HETATM   17  H   UNL     1      -4.669   3.316 -32.745  1.00  0.00     0.278 HD
BRANCH  15  18
HETATM   18  C   UNL     1      -3.865   2.148 -31.238  1.00  0.00     0.272 C 
BRANCH  18  19
HETATM   19  C   UNL     1      -4.274   0.883 -31.940  1.00  0.00    -0.033 A 
HETATM   20  C   UNL     1      -3.377   0.230 -32.793  1.00  0.00     0.011 A 
HETATM   21  C   UNL     1      -3.757  -0.929 -33.477  1.00  0.00     0.030 A 
HETATM   22  C   UNL     1      -5.031  -1.484 -33.318  1.00  0.00     0.037 A 
HETATM   23  C   UNL     1      -5.917  -0.836 -32.445  1.00  0.00     0.030 A 
HETATM   24  C   UNL     1      -5.551   0.338 -31.772  1.00  0.00     0.011 A 
BRANCH  22  25
HETATM   25  N   UNL     1      -5.411  -2.668 -34.001  1.00  0.00    -0.318 N 
HETATM   26  C   UNL     1      -4.649  -3.846 -34.100  1.00  0.00     0.224 C 
HETATM   27  O   UNL     1      -3.540  -4.080 -33.647  1.00  0.00    -0.273 OA
HETATM   28  C   UNL     1      -5.407  -4.811 -34.982  1.00  0.00     0.105 C 
HETATM   29  C   UNL     1      -6.819  -4.259 -34.961  1.00  0.00     0.029 C 
HETATM   30  C   UNL     1      -6.609  -2.768 -34.801  1.00  0.00     0.133 C 
ENDBRANCH  22  25
ENDBRANCH  18  19
ENDBRANCH  15  18
ENDBRANCH   1  15
BRANCH   1  31
HETATM   31  C   UNL     1      -5.340   5.149 -30.145  1.00  0.00    -0.019 A 
HETATM   32  C   UNL     1      -6.583   4.498 -30.047  1.00  0.00     0.010 A 
HETATM   33  C   UNL     1      -7.541   4.933 -29.129  1.00  0.00     0.001 A 
HETATM   34  C   UNL     1      -7.277   6.025 -28.305  1.00  0.00     0.000 A 
HETATM   35  C   UNL     1      -6.056   6.687 -28.396  1.00  0.00     0.001 A 
HETATM   36  C   UNL     1      -5.095   6.257 -29.312  1.00  0.00     0.010 A 
ENDBRANCH   1  31
TORSDOF 8
ENDMDL
