MODEL 1
REMARK VINA RESULT:      -9.7      0.000      0.000
REMARK  8 active torsions:
REMARK  status: ('A' for Active; 'I' for Inactive)
REMARK    1  A    between atoms: C_2  and  O_3 
REMARK    2  A    between atoms: O_3  and  C_4 
REMARK    3  A    between atoms: C_7  and  N_8 
REMARK       I    between atoms: N_8  and  C_9 
REMARK    4  A    between atoms: C_9  and  C_10 
REMARK    5  A    between atoms: C_12  and  N_13 
REMARK    6  A    between atoms: N_16  and  C_18 
REMARK    7  A    between atoms: C_18  and  C_19 
REMARK    8  A    between atoms: C_18  and  C_25 
ROOT
HETATM    1  C   UNL     1      -9.984   4.373 -30.757  1.00  0.00     0.164 C 
HETATM    2  N   UNL     1      -9.811   2.961 -31.141  1.00  0.00    -0.249 NA
HETATM    3  C   UNL     1     -10.317   2.563 -32.344  1.00  0.00     0.181 C 
HETATM    4  N   UNL     1     -11.113   3.284 -33.068  1.00  0.00    -0.185 NA
HETATM    5  C   UNL     1     -11.465   4.527 -32.619  1.00  0.00     0.247 C 
HETATM    6  O   UNL     1     -11.755   5.452 -33.375  1.00  0.00    -0.271 OA
HETATM    7  C   UNL     1     -11.381   4.785 -31.144  1.00  0.00     0.134 C 
HETATM    8  H   UNL     1      -8.844   2.696 -30.972  1.00  0.00     0.131 HD
ENDROOT
BRANCH   3   9
HETATM    9  N   UNL     1      -9.927   1.316 -32.773  1.00  0.00    -0.353 N 
HETATM   10  C   UNL     1      -9.411   0.235 -31.925  1.00  0.00     0.153 C 
HETATM   11  C   UNL     1      -7.892   0.074 -32.156  1.00  0.00     0.256 C 
HETATM   12  N   UNL     1      -7.610  -0.164 -33.642  1.00  0.00    -0.056 N 
HETATM   13  H   UNL     1      -8.145  -0.986 -33.930  1.00  0.00     0.281 HD
HETATM   14  C   UNL     1      -8.193   0.980 -34.485  1.00  0.00     0.256 C 
HETATM   15  C   UNL     1      -9.708   1.087 -34.216  1.00  0.00     0.153 C 
BRANCH  12  16
HETATM   16  C   UNL     1      -6.150  -0.491 -33.981  1.00  0.00     0.254 C 
BRANCH  16  17
HETATM   17  C   UNL     1      -5.175   0.150 -32.995  1.00  0.00    -0.023 A 
HETATM   18  C   UNL     1      -4.813   1.509 -33.079  1.00  0.00     0.009 A 
HETATM   19  C   UNL     1      -3.889   2.060 -32.191  1.00  0.00     0.001 A 
HETATM   20  C   UNL     1      -3.315   1.268 -31.201  1.00  0.00     0.000 A 
HETATM   21  C   UNL     1      -3.670  -0.074 -31.090  1.00  0.00     0.001 A 
HETATM   22  C   UNL     1      -4.594  -0.630 -31.977  1.00  0.00     0.009 A 
ENDBRANCH  16  17
BRANCH  16  23
HETATM   23  C   UNL     1      -5.884  -1.975 -34.302  1.00  0.00    -0.023 A 
HETATM   24  C   UNL     1      -4.605  -2.562 -34.222  1.00  0.00     0.009 A 
HETATM   25  C   UNL     1      -4.416  -3.927 -34.465  1.00  0.00     0.001 A 
HETATM   26  C   UNL     1      -5.498  -4.742 -34.775  1.00  0.00     0.000 A 
HETATM   27  C   UNL     1      -6.775  -4.198 -34.828  1.00  0.00     0.001 A 
HETATM   28  C   UNL     1      -6.968  -2.836 -34.579  1.00  0.00     0.009 A 
ENDBRANCH  16  23
ENDBRANCH  12  16
ENDBRANCH   3   9
BRANCH   1  29
HETATM   29  C   UNL     1      -8.784   5.168 -31.354  1.00  0.00     0.240 C 
HETATM   30  N   UNL     1      -7.648   4.457 -31.683  1.00  0.00    -0.326 N 
HETATM   31  H   UNL     1      -7.543   3.504 -31.345  1.00  0.00     0.169 HD
HETATM   32  O   UNL     1      -8.905   6.396 -31.442  1.00  0.00    -0.271 OA
BRANCH  30  33
HETATM   33  C   UNL     1      -6.465   4.973 -32.257  1.00  0.00     0.034 A 
HETATM   34  C   UNL     1      -5.517   5.721 -31.559  1.00  0.00     0.032 A 
HETATM   35  C   UNL     1      -4.370   6.204 -32.208  1.00  0.00     0.039 A 
HETATM   36  C   UNL     1      -4.160   5.934 -33.559  1.00  0.00     0.068 A 
HETATM   37  C   UNL     1      -5.111   5.194 -34.259  1.00  0.00     0.039 A 
HETATM   38  C   UNL     1      -6.261   4.726 -33.619  1.00  0.00     0.032 A 
BRANCH  36  39
HETATM   39  O   UNL     1      -3.082   6.322 -34.304  1.00  0.00    -0.352 OA
BRANCH  39  40
HETATM   40  C   UNL     1      -2.130   5.319 -34.651  1.00  0.00     0.171 C 
HETATM   41  C   UNL     1      -1.516   4.795 -33.365  1.00  0.00     0.034 C 
ENDBRANCH  39  40
ENDBRANCH  36  39
ENDBRANCH  30  33
ENDBRANCH   1  29
TORSDOF 8
ENDMDL
MODEL 2
REMARK VINA RESULT:      -9.6      2.423      6.456
REMARK  8 active torsions:
REMARK  status: ('A' for Active; 'I' for Inactive)
REMARK    1  A    between atoms: C_2  and  O_3 
REMARK    2  A    between atoms: O_3  and  C_4 
REMARK    3  A    between atoms: C_7  and  N_8 
REMARK       I    between atoms: N_8  and  C_9 
REMARK    4  A    between atoms: C_9  and  C_10 
REMARK    5  A    between atoms: C_12  and  N_13 
REMARK    6  A    between atoms: N_16  and  C_18 
REMARK    7  A    between atoms: C_18  and  C_19 
REMARK    8  A    between atoms: C_18  and  C_25 
ROOT
HETATM    1  C   UNL     1      -3.777   5.381 -31.098  1.00  0.00     0.164 C 
HETATM    2  N   UNL     1      -5.250   5.358 -31.082  1.00  0.00    -0.249 NA
HETATM    3  C   UNL     1      -5.902   5.560 -32.263  1.00  0.00     0.181 C 
HETATM    4  N   UNL     1      -5.324   5.975 -33.346  1.00  0.00    -0.185 NA
HETATM    5  C   UNL     1      -3.978   6.214 -33.322  1.00  0.00     0.247 C 
HETATM    6  O   UNL     1      -3.264   6.106 -34.316  1.00  0.00    -0.271 OA
HETATM    7  C   UNL     1      -3.346   6.512 -31.995  1.00  0.00     0.134 C 
HETATM    8  H   UNL     1      -5.556   4.543 -30.556  1.00  0.00     0.131 HD
ENDROOT
BRANCH   3   9
HETATM    9  N   UNL     1      -7.251   5.292 -32.256  1.00  0.00    -0.353 N 
HETATM   10  C   UNL     1      -8.032   4.837 -31.099  1.00  0.00     0.153 C 
HETATM   11  C   UNL     1      -8.398   3.347 -31.273  1.00  0.00     0.256 C 
HETATM   12  N   UNL     1      -9.139   3.139 -32.597  1.00  0.00    -0.056 N 
HETATM   13  H   UNL     1      -9.957   3.750 -32.593  1.00  0.00     0.281 HD
HETATM   14  C   UNL     1      -8.289   3.654 -33.769  1.00  0.00     0.256 C 
HETATM   15  C   UNL     1      -7.963   5.144 -33.542  1.00  0.00     0.153 C 
BRANCH  12  16
HETATM   16  C   UNL     1      -9.690   1.724 -32.817  1.00  0.00     0.254 C 
BRANCH  16  17
HETATM   17  C   UNL     1     -11.093   1.744 -33.424  1.00  0.00    -0.023 A 
HETATM   18  C   UNL     1     -11.716   2.942 -33.824  1.00  0.00     0.009 A 
HETATM   19  C   UNL     1     -13.014   2.936 -34.338  1.00  0.00     0.001 A 
HETATM   20  C   UNL     1     -13.708   1.737 -34.466  1.00  0.00     0.000 A 
HETATM   21  C   UNL     1     -13.104   0.539 -34.091  1.00  0.00     0.001 A 
HETATM   22  C   UNL     1     -11.807   0.540 -33.577  1.00  0.00     0.009 A 
ENDBRANCH  16  17
BRANCH  16  23
HETATM   23  C   UNL     1      -8.699   0.746 -33.476  1.00  0.00    -0.023 A 
HETATM   24  C   UNL     1      -8.468   0.705 -34.866  1.00  0.00     0.009 A 
HETATM   25  C   UNL     1      -7.516  -0.158 -35.420  1.00  0.00     0.001 A 
HETATM   26  C   UNL     1      -6.759  -0.987 -34.600  1.00  0.00     0.000 A 
HETATM   27  C   UNL     1      -6.941  -0.945 -33.224  1.00  0.00     0.001 A 
HETATM   28  C   UNL     1      -7.887  -0.078 -32.667  1.00  0.00     0.009 A 
ENDBRANCH  16  23
ENDBRANCH  12  16
ENDBRANCH   3   9
BRANCH   1  29
HETATM   29  C   UNL     1      -3.294   3.939 -31.437  1.00  0.00     0.240 C 
HETATM   30  N   UNL     1      -4.231   2.927 -31.403  1.00  0.00    -0.326 N 
HETATM   31  H   UNL     1      -5.134   3.100 -30.968  1.00  0.00     0.169 HD
HETATM   32  O   UNL     1      -2.087   3.783 -31.659  1.00  0.00    -0.271 OA
BRANCH  30  33
HETATM   33  C   UNL     1      -4.013   1.563 -31.701  1.00  0.00     0.034 A 
HETATM   34  C   UNL     1      -3.485   1.100 -32.906  1.00  0.00     0.032 A 
HETATM   35  C   UNL     1      -3.308  -0.275 -33.125  1.00  0.00     0.039 A 
HETATM   36  C   UNL     1      -3.650  -1.196 -32.137  1.00  0.00     0.068 A 
HETATM   37  C   UNL     1      -4.186  -0.733 -30.936  1.00  0.00     0.039 A 
HETATM   38  C   UNL     1      -4.378   0.633 -30.722  1.00  0.00     0.032 A 
BRANCH  36  39
HETATM   39  O   UNL     1      -3.509  -2.552 -32.210  1.00  0.00    -0.352 OA
BRANCH  39  40
HETATM   40  C   UNL     1      -3.854  -3.181 -33.443  1.00  0.00     0.171 C 
HETATM   41  C   UNL     1      -3.499  -4.653 -33.330  1.00  0.00     0.034 C 
ENDBRANCH  39  40
ENDBRANCH  36  39
ENDBRANCH  30  33
ENDBRANCH   1  29
TORSDOF 8
ENDMDL
MODEL 3
REMARK VINA RESULT:      -9.3      4.142      6.963
REMARK  8 active torsions:
REMARK  status: ('A' for Active; 'I' for Inactive)
REMARK    1  A    between atoms: C_2  and  O_3 
REMARK    2  A    between atoms: O_3  and  C_4 
REMARK    3  A    between atoms: C_7  and  N_8 
REMARK       I    between atoms: N_8  and  C_9 
REMARK    4  A    between atoms: C_9  and  C_10 
REMARK    5  A    between atoms: C_12  and  N_13 
REMARK    6  A    between atoms: N_16  and  C_18 
REMARK    7  A    between atoms: C_18  and  C_19 
REMARK    8  A    between atoms: C_18  and  C_25 
ROOT
HETATM    1  C   UNL     1      -1.982   7.060 -33.582  1.00  0.00     0.164 C 
HETATM    2  N   UNL     1      -3.391   6.627 -33.586  1.00  0.00    -0.249 NA
HETATM    3  C   UNL     1      -3.692   5.439 -32.986  1.00  0.00     0.181 C 
HETATM    4  N   UNL     1      -2.804   4.577 -32.603  1.00  0.00    -0.185 NA
HETATM    5  C   UNL     1      -1.481   4.868 -32.792  1.00  0.00     0.247 C 
HETATM    6  O   UNL     1      -0.592   4.431 -32.065  1.00  0.00    -0.271 OA
HETATM    7  C   UNL     1      -1.130   5.851 -33.868  1.00  0.00     0.134 C 
HETATM    8  H   UNL     1      -3.972   7.412 -33.302  1.00  0.00     0.131 HD
ENDROOT
BRANCH   3   9
HETATM    9  N   UNL     1      -5.031   5.188 -32.795  1.00  0.00    -0.353 N 
HETATM   10  C   UNL     1      -5.689   4.960 -31.503  1.00  0.00     0.153 C 
HETATM   11  C   UNL     1      -6.055   3.467 -31.363  1.00  0.00     0.256 C 
HETATM   12  N   UNL     1      -6.922   3.026 -32.547  1.00  0.00    -0.056 N 
HETATM   13  H   UNL     1      -7.741   3.634 -32.573  1.00  0.00     0.281 HD
HETATM   14  C   UNL     1      -6.198   3.310 -33.872  1.00  0.00     0.256 C 
HETATM   15  C   UNL     1      -5.866   4.814 -33.955  1.00  0.00     0.153 C 
BRANCH  12  16
HETATM   16  C   UNL     1      -7.479   1.599 -32.447  1.00  0.00     0.254 C 
BRANCH  16  17
HETATM   17  C   UNL     1      -8.897   1.498 -33.008  1.00  0.00    -0.023 A 
HETATM   18  C   UNL     1      -9.465   2.522 -33.790  1.00  0.00     0.009 A 
HETATM   19  C   UNL     1     -10.777   2.422 -34.256  1.00  0.00     0.001 A 
HETATM   20  C   UNL     1     -11.541   1.298 -33.954  1.00  0.00     0.000 A 
HETATM   21  C   UNL     1     -10.993   0.268 -33.194  1.00  0.00     0.001 A 
HETATM   22  C   UNL     1      -9.682   0.363 -32.726  1.00  0.00     0.009 A 
ENDBRANCH  16  17
BRANCH  16  23
HETATM   23  C   UNL     1      -6.505   0.499 -32.910  1.00  0.00    -0.023 A 
HETATM   24  C   UNL     1      -5.463   0.004 -32.100  1.00  0.00     0.009 A 
HETATM   25  C   UNL     1      -4.636  -1.038 -32.535  1.00  0.00     0.001 A 
HETATM   26  C   UNL     1      -4.840  -1.623 -33.779  1.00  0.00     0.000 A 
HETATM   27  C   UNL     1      -5.880  -1.179 -34.585  1.00  0.00     0.001 A 
HETATM   28  C   UNL     1      -6.712  -0.143 -34.150  1.00  0.00     0.009 A 
ENDBRANCH  16  23
ENDBRANCH  12  16
ENDBRANCH   3   9
BRANCH   1  29
HETATM   29  C   UNL     1      -1.740   7.841 -32.255  1.00  0.00     0.240 C 
HETATM   30  N   UNL     1      -1.140   7.162 -31.215  1.00  0.00    -0.326 N 
HETATM   31  H   UNL     1      -1.065   6.149 -31.261  1.00  0.00     0.169 HD
HETATM   32  O   UNL     1      -2.154   9.005 -32.199  1.00  0.00    -0.271 OA
BRANCH  30  33
HETATM   33  C   UNL     1      -0.807   7.684 -29.946  1.00  0.00     0.034 A 
HETATM   34  C   UNL     1      -1.683   8.420 -29.147  1.00  0.00     0.032 A 
HETATM   35  C   UNL     1      -1.269   8.911 -27.899  1.00  0.00     0.039 A 
HETATM   36  C   UNL     1       0.022   8.661 -27.437  1.00  0.00     0.068 A 
HETATM   37  C   UNL     1       0.900   7.932 -28.239  1.00  0.00     0.039 A 
HETATM   38  C   UNL     1       0.495   7.457 -29.488  1.00  0.00     0.032 A 
BRANCH  36  39
HETATM   39  O   UNL     1       0.544   9.058 -26.239  1.00  0.00    -0.352 OA
BRANCH  39  40
HETATM   40  C   UNL     1       1.608   8.279 -25.697  1.00  0.00     0.171 C 
HETATM   41  C   UNL     1       2.562   9.222 -24.988  1.00  0.00     0.034 C 
ENDBRANCH  39  40
ENDBRANCH  36  39
ENDBRANCH  30  33
ENDBRANCH   1  29
TORSDOF 8
ENDMDL
MODEL 4
REMARK VINA RESULT:      -8.9      3.192      8.068
REMARK  8 active torsions:
REMARK  status: ('A' for Active; 'I' for Inactive)
REMARK    1  A    between atoms: C_2  and  O_3 
REMARK    2  A    between atoms: O_3  and  C_4 
REMARK    3  A    between atoms: C_7  and  N_8 
REMARK       I    between atoms: N_8  and  C_9 
REMARK    4  A    between atoms: C_9  and  C_10 
REMARK    5  A    between atoms: C_12  and  N_13 
REMARK    6  A    between atoms: N_16  and  C_18 
REMARK    7  A    between atoms: C_18  and  C_19 
REMARK    8  A    between atoms: C_18  and  C_25 
ROOT
HETATM    1  C   UNL     1      -8.805   4.714 -33.156  1.00  0.00     0.164 C 
HETATM    2  N   UNL     1      -7.962   5.741 -32.518  1.00  0.00    -0.249 NA
HETATM    3  C   UNL     1      -7.765   5.655 -31.171  1.00  0.00     0.181 C 
HETATM    4  N   UNL     1      -8.433   4.864 -30.392  1.00  0.00    -0.185 NA
HETATM    5  C   UNL     1      -9.385   4.050 -30.941  1.00  0.00     0.247 C 
HETATM    6  O   UNL     1      -9.696   2.965 -30.454  1.00  0.00    -0.271 OA
HETATM    7  C   UNL     1      -9.984   4.464 -32.252  1.00  0.00     0.134 C 
HETATM    8  H   UNL     1      -7.115   5.853 -33.070  1.00  0.00     0.131 HD
ENDROOT
BRANCH   3   9
HETATM    9  N   UNL     1      -6.788   6.474 -30.656  1.00  0.00    -0.353 N 
HETATM   10  C   UNL     1      -6.055   7.510 -31.393  1.00  0.00     0.153 C 
HETATM   11  C   UNL     1      -4.609   7.037 -31.655  1.00  0.00     0.256 C 
HETATM   12  N   UNL     1      -3.929   6.670 -30.333  1.00  0.00    -0.056 N 
HETATM   13  H   UNL     1      -3.975   7.489 -29.724  1.00  0.00     0.281 HD
HETATM   14  C   UNL     1      -4.748   5.603 -29.591  1.00  0.00     0.256 C 
HETATM   15  C   UNL     1      -6.177   6.135 -29.354  1.00  0.00     0.153 C 
BRANCH  12  16
HETATM   16  C   UNL     1      -2.437   6.329 -30.443  1.00  0.00     0.254 C 
BRANCH  16  17
HETATM   17  C   UNL     1      -2.007   6.099 -31.891  1.00  0.00    -0.023 A 
HETATM   18  C   UNL     1      -1.410   7.115 -32.663  1.00  0.00     0.009 A 
HETATM   19  C   UNL     1      -1.064   6.890 -33.996  1.00  0.00     0.001 A 
HETATM   20  C   UNL     1      -1.303   5.650 -34.580  1.00  0.00     0.000 A 
HETATM   21  C   UNL     1      -1.878   4.627 -33.830  1.00  0.00     0.001 A 
HETATM   22  C   UNL     1      -2.226   4.846 -32.496  1.00  0.00     0.009 A 
ENDBRANCH  16  17
BRANCH  16  23
HETATM   23  C   UNL     1      -1.510   7.240 -29.615  1.00  0.00    -0.023 A 
HETATM   24  C   UNL     1      -1.937   8.456 -29.044  1.00  0.00     0.009 A 
HETATM   25  C   UNL     1      -1.079   9.226 -28.250  1.00  0.00     0.001 A 
HETATM   26  C   UNL     1       0.216   8.793 -27.991  1.00  0.00     0.000 A 
HETATM   27  C   UNL     1       0.653   7.583 -28.513  1.00  0.00     0.001 A 
HETATM   28  C   UNL     1      -0.203   6.808 -29.301  1.00  0.00     0.009 A 
ENDBRANCH  16  23
ENDBRANCH  12  16
ENDBRANCH   3   9
BRANCH   1  29
HETATM   29  C   UNL     1      -7.881   3.513 -33.519  1.00  0.00     0.240 C 
HETATM   30  N   UNL     1      -8.373   2.242 -33.306  1.00  0.00    -0.326 N 
HETATM   31  H   UNL     1      -9.210   2.121 -32.742  1.00  0.00     0.169 HD
HETATM   32  O   UNL     1      -6.742   3.777 -33.922  1.00  0.00    -0.271 OA
BRANCH  30  33
HETATM   33  C   UNL     1      -7.717   1.024 -33.589  1.00  0.00     0.034 A 
HETATM   34  C   UNL     1      -7.754   0.384 -34.829  1.00  0.00     0.032 A 
HETATM   35  C   UNL     1      -7.079  -0.831 -35.025  1.00  0.00     0.039 A 
HETATM   36  C   UNL     1      -6.355  -1.410 -33.985  1.00  0.00     0.068 A 
HETATM   37  C   UNL     1      -6.325  -0.775 -32.744  1.00  0.00     0.039 A 
HETATM   38  C   UNL     1      -7.009   0.425 -32.542  1.00  0.00     0.032 A 
BRANCH  36  39
HETATM   39  O   UNL     1      -5.638  -2.571 -34.047  1.00  0.00    -0.352 OA
BRANCH  39  40
HETATM   40  C   UNL     1      -5.647  -3.283 -35.282  1.00  0.00     0.171 C 
HETATM   41  C   UNL     1      -6.543  -4.497 -35.114  1.00  0.00     0.034 C 
ENDBRANCH  39  40
ENDBRANCH  36  39
ENDBRANCH  30  33
ENDBRANCH   1  29
TORSDOF 8
ENDMDL
MODEL 5
REMARK VINA RESULT:      -8.9      2.412      7.286
REMARK  8 active torsions:
REMARK  status: ('A' for Active; 'I' for Inactive)
REMARK    1  A    between atoms: C_2  and  O_3 
REMARK    2  A    between atoms: O_3  and  C_4 
REMARK    3  A    between atoms: C_7  and  N_8 
REMARK       I    between atoms: N_8  and  C_9 
REMARK    4  A    between atoms: C_9  and  C_10 
REMARK    5  A    between atoms: C_12  and  N_13 
REMARK    6  A    between atoms: N_16  and  C_18 
REMARK    7  A    between atoms: C_18  and  C_19 
REMARK    8  A    between atoms: C_18  and  C_25 
ROOT
HETATM    1  C   UNL     1      -3.057   4.934 -31.212  1.00  0.00     0.164 C 
HETATM    2  N   UNL     1      -4.456   5.195 -30.828  1.00  0.00    -0.249 NA
HETATM    3  C   UNL     1      -5.268   5.789 -31.749  1.00  0.00     0.181 C 
HETATM    4  N   UNL     1      -4.843   6.324 -32.849  1.00  0.00    -0.185 NA
HETATM    5  C   UNL     1      -3.503   6.286 -33.124  1.00  0.00     0.247 C 
HETATM    6  O   UNL     1      -3.058   6.277 -34.269  1.00  0.00    -0.271 OA
HETATM    7  C   UNL     1      -2.559   6.138 -31.969  1.00  0.00     0.134 C 
HETATM    8  H   UNL     1      -4.835   4.354 -30.398  1.00  0.00     0.131 HD
ENDROOT
BRANCH   3   9
HETATM    9  N   UNL     1      -6.610   5.793 -31.449  1.00  0.00    -0.353 N 
HETATM   10  C   UNL     1      -7.285   4.891 -30.507  1.00  0.00     0.153 C 
HETATM   11  C   UNL     1      -8.127   3.860 -31.289  1.00  0.00     0.256 C 
HETATM   12  N   UNL     1      -9.111   4.580 -32.216  1.00  0.00    -0.056 N 
HETATM   13  H   UNL     1      -9.680   5.201 -31.639  1.00  0.00     0.281 HD
HETATM   14  C   UNL     1      -8.357   5.527 -33.161  1.00  0.00     0.256 C 
HETATM   15  C   UNL     1      -7.542   6.534 -32.323  1.00  0.00     0.153 C 
BRANCH  12  16
HETATM   16  C   UNL     1     -10.111   3.666 -32.937  1.00  0.00     0.254 C 
BRANCH  16  17
HETATM   17  C   UNL     1      -9.538   2.270 -33.183  1.00  0.00    -0.023 A 
HETATM   18  C   UNL     1      -8.832   1.950 -34.358  1.00  0.00     0.009 A 
HETATM   19  C   UNL     1      -8.354   0.657 -34.577  1.00  0.00     0.001 A 
HETATM   20  C   UNL     1      -8.568  -0.335 -33.625  1.00  0.00     0.000 A 
HETATM   21  C   UNL     1      -9.251  -0.036 -32.449  1.00  0.00     0.001 A 
HETATM   22  C   UNL     1      -9.731   1.255 -32.226  1.00  0.00     0.009 A 
ENDBRANCH  16  17
BRANCH  16  23
HETATM   23  C   UNL     1     -11.540   3.701 -32.361  1.00  0.00    -0.023 A 
HETATM   24  C   UNL     1     -12.652   3.152 -33.030  1.00  0.00     0.009 A 
HETATM   25  C   UNL     1     -13.924   3.152 -32.447  1.00  0.00     0.001 A 
HETATM   26  C   UNL     1     -14.114   3.683 -31.177  1.00  0.00     0.000 A 
HETATM   27  C   UNL     1     -13.030   4.201 -30.479  1.00  0.00     0.001 A 
HETATM   28  C   UNL     1     -11.757   4.195 -31.057  1.00  0.00     0.009 A 
ENDBRANCH  16  23
ENDBRANCH  12  16
ENDBRANCH   3   9
BRANCH   1  29
HETATM   29  C   UNL     1      -3.020   3.546 -31.918  1.00  0.00     0.240 C 
HETATM   30  N   UNL     1      -3.770   2.528 -31.366  1.00  0.00    -0.326 N 
HETATM   31  H   UNL     1      -4.148   2.642 -30.428  1.00  0.00     0.169 HD
HETATM   32  O   UNL     1      -2.273   3.428 -32.897  1.00  0.00    -0.271 OA
BRANCH  30  33
HETATM   33  C   UNL     1      -3.899   1.210 -31.857  1.00  0.00     0.034 A 
HETATM   34  C   UNL     1      -3.148   0.127 -31.400  1.00  0.00     0.032 A 
HETATM   35  C   UNL     1      -3.333  -1.152 -31.949  1.00  0.00     0.039 A 
HETATM   36  C   UNL     1      -4.277  -1.357 -32.953  1.00  0.00     0.068 A 
HETATM   37  C   UNL     1      -5.021  -0.272 -33.416  1.00  0.00     0.039 A 
HETATM   38  C   UNL     1      -4.828   1.003 -32.883  1.00  0.00     0.032 A 
BRANCH  36  39
HETATM   39  O   UNL     1      -4.572  -2.546 -33.556  1.00  0.00    -0.352 OA
BRANCH  39  40
HETATM   40  C   UNL     1      -5.576  -2.537 -34.569  1.00  0.00     0.171 C 
HETATM   41  C   UNL     1      -5.954  -3.977 -34.864  1.00  0.00     0.034 C 
ENDBRANCH  39  40
ENDBRANCH  36  39
ENDBRANCH  30  33
ENDBRANCH   1  29
TORSDOF 8
ENDMDL
MODEL 6
REMARK VINA RESULT:      -8.8      2.159      5.901
REMARK  8 active torsions:
REMARK  status: ('A' for Active; 'I' for Inactive)
REMARK    1  A    between atoms: C_2  and  O_3 
REMARK    2  A    between atoms: O_3  and  C_4 
REMARK    3  A    between atoms: C_7  and  N_8 
REMARK       I    between atoms: N_8  and  C_9 
REMARK    4  A    between atoms: C_9  and  C_10 
REMARK    5  A    between atoms: C_12  and  N_13 
REMARK    6  A    between atoms: N_16  and  C_18 
REMARK    7  A    between atoms: C_18  and  C_19 
REMARK    8  A    between atoms: C_18  and  C_25 
ROOT
HETATM    1  C   UNL     1      -5.855   6.506 -32.439  1.00  0.00     0.164 C 
HETATM    2  N   UNL     1      -5.334   5.128 -32.418  1.00  0.00    -0.249 NA
HETATM    3  C   UNL     1      -5.002   4.592 -31.208  1.00  0.00     0.181 C 
HETATM    4  N   UNL     1      -4.916   5.279 -30.113  1.00  0.00    -0.185 NA
HETATM    5  C   UNL     1      -5.186   6.619 -30.154  1.00  0.00     0.247 C 
HETATM    6  O   UNL     1      -5.627   7.240 -29.190  1.00  0.00    -0.271 OA
HETATM    7  C   UNL     1      -5.036   7.320 -31.471  1.00  0.00     0.134 C 
HETATM    8  H   UNL     1      -5.936   4.545 -32.996  1.00  0.00     0.131 HD
ENDROOT
BRANCH   3   9
HETATM    9  N   UNL     1      -4.755   3.239 -31.200  1.00  0.00    -0.353 N 
HETATM   10  C   UNL     1      -4.177   2.462 -32.303  1.00  0.00     0.153 C 
HETATM   11  C   UNL     1      -5.274   1.600 -32.963  1.00  0.00     0.256 C 
HETATM   12  N   UNL     1      -5.946   0.711 -31.911  1.00  0.00    -0.056 N 
HETATM   13  H   UNL     1      -5.216   0.152 -31.467  1.00  0.00     0.281 HD
HETATM   14  C   UNL     1      -6.510   1.570 -30.770  1.00  0.00     0.256 C 
HETATM   15  C   UNL     1      -5.369   2.401 -30.149  1.00  0.00     0.153 C 
BRANCH  12  16
HETATM   16  C   UNL     1      -6.952  -0.305 -32.468  1.00  0.00     0.254 C 
BRANCH  16  17
HETATM   17  C   UNL     1      -8.217   0.372 -32.997  1.00  0.00    -0.023 A 
HETATM   18  C   UNL     1      -9.497   0.047 -32.507  1.00  0.00     0.009 A 
HETATM   19  C   UNL     1     -10.639   0.650 -33.036  1.00  0.00     0.001 A 
HETATM   20  C   UNL     1     -10.523   1.589 -34.056  1.00  0.00     0.000 A 
HETATM   21  C   UNL     1      -9.265   1.936 -34.544  1.00  0.00     0.001 A 
HETATM   22  C   UNL     1      -8.120   1.335 -34.019  1.00  0.00     0.009 A 
ENDBRANCH  16  17
BRANCH  16  23
HETATM   23  C   UNL     1      -6.338  -1.373 -33.393  1.00  0.00    -0.023 A 
HETATM   24  C   UNL     1      -4.961  -1.669 -33.417  1.00  0.00     0.009 A 
HETATM   25  C   UNL     1      -4.450  -2.687 -34.230  1.00  0.00     0.001 A 
HETATM   26  C   UNL     1      -5.302  -3.445 -35.025  1.00  0.00     0.000 A 
HETATM   27  C   UNL     1      -6.669  -3.198 -34.997  1.00  0.00     0.001 A 
HETATM   28  C   UNL     1      -7.182  -2.186 -34.180  1.00  0.00     0.009 A 
ENDBRANCH  16  23
ENDBRANCH  12  16
ENDBRANCH   3   9
BRANCH   1  29
HETATM   29  C   UNL     1      -7.396   6.424 -32.222  1.00  0.00     0.240 C 
HETATM   30  N   UNL     1      -8.009   5.210 -32.451  1.00  0.00    -0.326 N 
HETATM   31  H   UNL     1      -7.498   4.479 -32.941  1.00  0.00     0.169 HD
HETATM   32  O   UNL     1      -7.981   7.469 -31.914  1.00  0.00    -0.271 OA
BRANCH  30  33
HETATM   33  C   UNL     1      -9.380   4.912 -32.289  1.00  0.00     0.034 A 
HETATM   34  C   UNL     1     -10.373   5.277 -33.199  1.00  0.00     0.032 A 
HETATM   35  C   UNL     1     -11.716   4.948 -32.958  1.00  0.00     0.039 A 
HETATM   36  C   UNL     1     -12.074   4.243 -31.811  1.00  0.00     0.068 A 
HETATM   37  C   UNL     1     -11.083   3.886 -30.898  1.00  0.00     0.039 A 
HETATM   38  C   UNL     1      -9.748   4.226 -31.127  1.00  0.00     0.032 A 
BRANCH  36  39
HETATM   39  O   UNL     1     -13.334   3.842 -31.467  1.00  0.00    -0.352 OA
BRANCH  39  40
HETATM   40  C   UNL     1     -14.241   3.551 -32.527  1.00  0.00     0.171 C 
HETATM   41  C   UNL     1     -14.165   2.062 -32.812  1.00  0.00     0.034 C 
ENDBRANCH  39  40
ENDBRANCH  36  39
ENDBRANCH  30  33
ENDBRANCH   1  29
TORSDOF 8
ENDMDL
MODEL 7
REMARK VINA RESULT:      -8.7      2.441      6.205
REMARK  8 active torsions:
REMARK  status: ('A' for Active; 'I' for Inactive)
REMARK    1  A    between atoms: C_2  and  O_3 
REMARK    2  A    between atoms: O_3  and  C_4 
REMARK    3  A    between atoms: C_7  and  N_8 
REMARK       I    between atoms: N_8  and  C_9 
REMARK    4  A    between atoms: C_9  and  C_10 
REMARK    5  A    between atoms: C_12  and  N_13 
REMARK    6  A    between atoms: N_16  and  C_18 
REMARK    7  A    between atoms: C_18  and  C_19 
REMARK    8  A    between atoms: C_18  and  C_25 
ROOT
HETATM    1  C   UNL     1      -7.156   7.033 -30.803  1.00  0.00     0.164 C 
HETATM    2  N   UNL     1      -6.331   5.868 -31.172  1.00  0.00    -0.249 NA
HETATM    3  C   UNL     1      -6.102   4.924 -30.214  1.00  0.00     0.181 C 
HETATM    4  N   UNL     1      -6.380   5.084 -28.959  1.00  0.00    -0.185 NA
HETATM    5  C   UNL     1      -6.952   6.260 -28.558  1.00  0.00     0.247 C 
HETATM    6  O   UNL     1      -7.694   6.341 -27.581  1.00  0.00    -0.271 OA
HETATM    7  C   UNL     1      -6.743   7.468 -29.421  1.00  0.00     0.134 C 
HETATM    8  H   UNL     1      -6.663   5.506 -32.063  1.00  0.00     0.131 HD
ENDROOT
BRANCH   3   9
HETATM    9  N   UNL     1      -5.543   3.747 -30.657  1.00  0.00    -0.353 N 
HETATM   10  C   UNL     1      -4.630   3.602 -31.797  1.00  0.00     0.153 C 
HETATM   11  C   UNL     1      -5.373   2.935 -32.975  1.00  0.00     0.256 C 
HETATM   12  N   UNL     1      -5.968   1.597 -32.530  1.00  0.00    -0.056 N 
HETATM   13  H   UNL     1      -5.204   1.024 -32.167  1.00  0.00     0.281 HD
HETATM   14  C   UNL     1      -6.894   1.801 -31.321  1.00  0.00     0.256 C 
HETATM   15  C   UNL     1      -6.096   2.463 -30.178  1.00  0.00     0.153 C 
BRANCH  12  16
HETATM   16  C   UNL     1      -6.602   0.763 -33.651  1.00  0.00     0.254 C 
BRANCH  16  17
HETATM   17  C   UNL     1      -5.906  -0.586 -33.827  1.00  0.00    -0.023 A 
HETATM   18  C   UNL     1      -4.778  -0.948 -33.065  1.00  0.00     0.009 A 
HETATM   19  C   UNL     1      -4.136  -2.170 -33.274  1.00  0.00     0.001 A 
HETATM   20  C   UNL     1      -4.610  -3.051 -34.241  1.00  0.00     0.000 A 
HETATM   21  C   UNL     1      -5.733  -2.718 -34.995  1.00  0.00     0.001 A 
HETATM   22  C   UNL     1      -6.378  -1.498 -34.790  1.00  0.00     0.009 A 
ENDBRANCH  16  17
BRANCH  16  23
HETATM   23  C   UNL     1      -8.142   0.712 -33.618  1.00  0.00    -0.023 A 
HETATM   24  C   UNL     1      -8.864  -0.191 -32.812  1.00  0.00     0.009 A 
HETATM   25  C   UNL     1     -10.263  -0.166 -32.766  1.00  0.00     0.001 A 
HETATM   26  C   UNL     1     -10.973   0.770 -33.508  1.00  0.00     0.000 A 
HETATM   27  C   UNL     1     -10.287   1.694 -34.286  1.00  0.00     0.001 A 
HETATM   28  C   UNL     1      -8.890   1.676 -34.328  1.00  0.00     0.009 A 
ENDBRANCH  16  23
ENDBRANCH  12  16
ENDBRANCH   3   9
BRANCH   1  29
HETATM   29  C   UNL     1      -8.645   6.644 -31.044  1.00  0.00     0.240 C 
HETATM   30  N   UNL     1      -8.905   5.658 -31.974  1.00  0.00    -0.326 N 
HETATM   31  H   UNL     1      -8.166   5.367 -32.610  1.00  0.00     0.169 HD
HETATM   32  O   UNL     1      -9.505   7.285 -30.429  1.00  0.00    -0.271 OA
BRANCH  30  33
HETATM   33  C   UNL     1     -10.171   5.138 -32.324  1.00  0.00     0.034 A 
HETATM   34  C   UNL     1     -10.832   5.425 -33.518  1.00  0.00     0.032 A 
HETATM   35  C   UNL     1     -12.095   4.873 -33.785  1.00  0.00     0.039 A 
HETATM   36  C   UNL     1     -12.700   4.022 -32.862  1.00  0.00     0.068 A 
HETATM   37  C   UNL     1     -12.043   3.742 -31.665  1.00  0.00     0.039 A 
HETATM   38  C   UNL     1     -10.794   4.304 -31.390  1.00  0.00     0.032 A 
BRANCH  36  39
HETATM   39  O   UNL     1     -13.908   3.401 -33.005  1.00  0.00    -0.352 OA
BRANCH  39  40
HETATM   40  C   UNL     1     -14.586   3.004 -31.814  1.00  0.00     0.171 C 
HETATM   41  C   UNL     1     -15.781   2.160 -32.218  1.00  0.00     0.034 C 
ENDBRANCH  39  40
ENDBRANCH  36  39
ENDBRANCH  30  33
ENDBRANCH   1  29
TORSDOF 8
ENDMDL
MODEL 8
REMARK VINA RESULT:      -8.6      1.222      3.322
REMARK  8 active torsions:
REMARK  status: ('A' for Active; 'I' for Inactive)
REMARK    1  A    between atoms: C_2  and  O_3 
REMARK    2  A    between atoms: O_3  and  C_4 
REMARK    3  A    between atoms: C_7  and  N_8 
REMARK       I    between atoms: N_8  and  C_9 
REMARK    4  A    between atoms: C_9  and  C_10 
REMARK    5  A    between atoms: C_12  and  N_13 
REMARK    6  A    between atoms: N_16  and  C_18 
REMARK    7  A    between atoms: C_18  and  C_19 
REMARK    8  A    between atoms: C_18  and  C_25 
ROOT
HETATM    1  C   UNL     1     -11.087   4.519 -31.925  1.00  0.00     0.164 C 
HETATM    2  N   UNL     1     -10.716   3.109 -32.135  1.00  0.00    -0.249 NA
HETATM    3  C   UNL     1     -10.636   2.657 -33.420  1.00  0.00     0.181 C 
HETATM    4  N   UNL     1     -11.065   3.320 -34.447  1.00  0.00    -0.185 NA
HETATM    5  C   UNL     1     -11.620   4.554 -34.249  1.00  0.00     0.247 C 
HETATM    6  O   UNL     1     -11.586   5.444 -35.095  1.00  0.00    -0.271 OA
HETATM    7  C   UNL     1     -12.192   4.851 -32.895  1.00  0.00     0.134 C 
HETATM    8  H   UNL     1      -9.908   2.897 -31.554  1.00  0.00     0.131 HD
ENDROOT
BRANCH   3   9
HETATM    9  N   UNL     1     -10.055   1.421 -33.585  1.00  0.00    -0.353 N 
HETATM   10  C   UNL     1     -10.160   0.289 -32.656  1.00  0.00     0.153 C 
HETATM   11  C   UNL     1      -8.819   0.099 -31.914  1.00  0.00     0.256 C 
HETATM   12  N   UNL     1      -7.682  -0.077 -32.924  1.00  0.00    -0.056 N 
HETATM   13  H   UNL     1      -7.920  -0.870 -33.522  1.00  0.00     0.281 HD
HETATM   14  C   UNL     1      -7.633   1.119 -33.886  1.00  0.00     0.256 C 
HETATM   15  C   UNL     1      -8.994   1.253 -34.599  1.00  0.00     0.153 C 
BRANCH  12  16
HETATM   16  C   UNL     1      -6.319  -0.427 -32.312  1.00  0.00     0.254 C 
BRANCH  16  17
HETATM   17  C   UNL     1      -5.601  -1.524 -33.099  1.00  0.00    -0.023 A 
HETATM   18  C   UNL     1      -6.124  -2.046 -34.297  1.00  0.00     0.009 A 
HETATM   19  C   UNL     1      -5.470  -3.076 -34.975  1.00  0.00     0.001 A 
HETATM   20  C   UNL     1      -4.282  -3.598 -34.471  1.00  0.00     0.000 A 
HETATM   21  C   UNL     1      -3.740  -3.085 -33.295  1.00  0.00     0.001 A 
HETATM   22  C   UNL     1      -4.391  -2.055 -32.614  1.00  0.00     0.009 A 
ENDBRANCH  16  17
BRANCH  16  23
HETATM   23  C   UNL     1      -5.453   0.792 -31.939  1.00  0.00    -0.023 A 
HETATM   24  C   UNL     1      -5.704   1.595 -30.808  1.00  0.00     0.009 A 
HETATM   25  C   UNL     1      -4.859   2.659 -30.471  1.00  0.00     0.001 A 
HETATM   26  C   UNL     1      -3.737   2.936 -31.243  1.00  0.00     0.000 A 
HETATM   27  C   UNL     1      -3.447   2.141 -32.344  1.00  0.00     0.001 A 
HETATM   28  C   UNL     1      -4.284   1.074 -32.679  1.00  0.00     0.009 A 
ENDBRANCH  16  23
ENDBRANCH  12  16
ENDBRANCH   3   9
BRANCH   1  29
HETATM   29  C   UNL     1      -9.776   5.359 -31.979  1.00  0.00     0.240 C 
HETATM   30  N   UNL     1      -8.580   4.672 -32.034  1.00  0.00    -0.326 N 
HETATM   31  H   UNL     1      -8.570   3.676 -31.832  1.00  0.00     0.169 HD
HETATM   32  O   UNL     1      -9.887   6.589 -31.911  1.00  0.00    -0.271 OA
BRANCH  30  33
HETATM   33  C   UNL     1      -7.286   5.233 -32.116  1.00  0.00     0.034 A 
HETATM   34  C   UNL     1      -6.685   5.967 -31.092  1.00  0.00     0.032 A 
HETATM   35  C   UNL     1      -5.397   6.498 -31.258  1.00  0.00     0.039 A 
HETATM   36  C   UNL     1      -4.697   6.291 -32.445  1.00  0.00     0.068 A 
HETATM   37  C   UNL     1      -5.301   5.565 -33.470  1.00  0.00     0.039 A 
HETATM   38  C   UNL     1      -6.589   5.050 -33.314  1.00  0.00     0.032 A 
BRANCH  36  39
HETATM   39  O   UNL     1      -3.435   6.730 -32.728  1.00  0.00    -0.352 OA
BRANCH  39  40
HETATM   40  C   UNL     1      -2.459   6.632 -31.692  1.00  0.00     0.171 C 
HETATM   41  C   UNL     1      -1.329   5.753 -32.199  1.00  0.00     0.034 C 
ENDBRANCH  39  40
ENDBRANCH  36  39
ENDBRANCH  30  33
ENDBRANCH   1  29
TORSDOF 8
ENDMDL
MODEL 9
REMARK VINA RESULT:      -8.6      3.203      7.482
REMARK  8 active torsions:
REMARK  status: ('A' for Active; 'I' for Inactive)
REMARK    1  A    between atoms: C_2  and  O_3 
REMARK    2  A    between atoms: O_3  and  C_4 
REMARK    3  A    between atoms: C_7  and  N_8 
REMARK       I    between atoms: N_8  and  C_9 
REMARK    4  A    between atoms: C_9  and  C_10 
REMARK    5  A    between atoms: C_12  and  N_13 
REMARK    6  A    between atoms: N_16  and  C_18 
REMARK    7  A    between atoms: C_18  and  C_19 
REMARK    8  A    between atoms: C_18  and  C_25 
ROOT
HETATM    1  C   UNL     1      -8.293   4.655 -33.064  1.00  0.00     0.164 C 
HETATM    2  N   UNL     1      -7.557   5.712 -32.348  1.00  0.00    -0.249 NA
HETATM    3  C   UNL     1      -7.564   5.680 -30.984  1.00  0.00     0.181 C 
HETATM    4  N   UNL     1      -8.338   4.913 -30.283  1.00  0.00    -0.185 NA
HETATM    5  C   UNL     1      -9.195   4.070 -30.936  1.00  0.00     0.247 C 
HETATM    6  O   UNL     1      -9.571   3.002 -30.459  1.00  0.00    -0.271 OA
HETATM    7  C   UNL     1      -9.593   4.428 -32.337  1.00  0.00     0.134 C 
HETATM    8  H   UNL     1      -6.638   5.811 -32.771  1.00  0.00     0.131 HD
ENDROOT
BRANCH   3   9
HETATM    9  N   UNL     1      -6.677   6.527 -30.361  1.00  0.00    -0.353 N 
HETATM   10  C   UNL     1      -6.278   7.857 -30.836  1.00  0.00     0.153 C 
HETATM   11  C   UNL     1      -4.835   7.801 -31.383  1.00  0.00     0.256 C 
HETATM   12  N   UNL     1      -3.888   7.254 -30.311  1.00  0.00    -0.056 N 
HETATM   13  H   UNL     1      -3.977   7.851 -29.487  1.00  0.00     0.281 HD
HETATM   14  C   UNL     1      -4.365   5.875 -29.831  1.00  0.00     0.256 C 
HETATM   15  C   UNL     1      -5.805   5.997 -29.292  1.00  0.00     0.153 C 
BRANCH  12  16
HETATM   16  C   UNL     1      -2.399   7.292 -30.680  1.00  0.00     0.254 C 
BRANCH  16  17
HETATM   17  C   UNL     1      -1.503   6.982 -29.481  1.00  0.00    -0.023 A 
HETATM   18  C   UNL     1      -1.733   7.547 -28.212  1.00  0.00     0.009 A 
HETATM   19  C   UNL     1      -0.876   7.279 -27.143  1.00  0.00     0.001 A 
HETATM   20  C   UNL     1       0.220   6.440 -27.321  1.00  0.00     0.000 A 
HETATM   21  C   UNL     1       0.457   5.859 -28.565  1.00  0.00     0.001 A 
HETATM   22  C   UNL     1      -0.397   6.124 -29.636  1.00  0.00     0.009 A 
ENDBRANCH  16  17
BRANCH  16  23
HETATM   23  C   UNL     1      -2.043   6.547 -31.980  1.00  0.00    -0.023 A 
HETATM   24  C   UNL     1      -2.410   5.208 -32.224  1.00  0.00     0.009 A 
HETATM   25  C   UNL     1      -2.119   4.584 -33.443  1.00  0.00     0.001 A 
HETATM   26  C   UNL     1      -1.471   5.286 -34.453  1.00  0.00     0.000 A 
HETATM   27  C   UNL     1      -1.127   6.617 -34.254  1.00  0.00     0.001 A 
HETATM   28  C   UNL     1      -1.423   7.244 -33.040  1.00  0.00     0.009 A 
ENDBRANCH  16  23
ENDBRANCH  12  16
ENDBRANCH   3   9
BRANCH   1  29
HETATM   29  C   UNL     1      -7.320   3.449 -33.238  1.00  0.00     0.240 C 
HETATM   30  N   UNL     1      -7.848   2.180 -33.112  1.00  0.00    -0.326 N 
HETATM   31  H   UNL     1      -8.777   2.065 -32.715  1.00  0.00     0.169 HD
HETATM   32  O   UNL     1      -6.125   3.707 -33.420  1.00  0.00    -0.271 OA
BRANCH  30  33
HETATM   33  C   UNL     1      -7.154   0.959 -33.258  1.00  0.00     0.034 A 
HETATM   34  C   UNL     1      -6.433   0.341 -32.236  1.00  0.00     0.032 A 
HETATM   35  C   UNL     1      -5.764  -0.871 -32.467  1.00  0.00     0.039 A 
HETATM   36  C   UNL     1      -5.819  -1.479 -33.720  1.00  0.00     0.068 A 
HETATM   37  C   UNL     1      -6.533  -0.857 -34.744  1.00  0.00     0.039 A 
HETATM   38  C   UNL     1      -7.186   0.357 -34.520  1.00  0.00     0.032 A 
BRANCH  36  39
HETATM   39  O   UNL     1      -5.237  -2.662 -34.072  1.00  0.00    -0.352 OA
BRANCH  39  40
HETATM   40  C   UNL     1      -5.631  -3.243 -35.313  1.00  0.00     0.171 C 
HETATM   41  C   UNL     1      -6.422  -4.503 -35.007  1.00  0.00     0.034 C 
ENDBRANCH  39  40
ENDBRANCH  36  39
ENDBRANCH  30  33
ENDBRANCH   1  29
TORSDOF 8
ENDMDL
MODEL 10
REMARK VINA RESULT:      -8.5      2.335      7.011
REMARK  8 active torsions:
REMARK  status: ('A' for Active; 'I' for Inactive)
REMARK    1  A    between atoms: C_2  and  O_3 
REMARK    2  A    between atoms: O_3  and  C_4 
REMARK    3  A    between atoms: C_7  and  N_8 
REMARK       I    between atoms: N_8  and  C_9 
REMARK    4  A    between atoms: C_9  and  C_10 
REMARK    5  A    between atoms: C_12  and  N_13 
REMARK    6  A    between atoms: N_16  and  C_18 
REMARK    7  A    between atoms: C_18  and  C_19 
REMARK    8  A    between atoms: C_18  and  C_25 
ROOT
HETATM    1  C   UNL     1      -2.918   4.833 -31.202  1.00  0.00     0.164 C 
HETATM    2  N   UNL     1      -4.244   5.004 -30.581  1.00  0.00    -0.249 NA
HETATM    3  C   UNL     1      -5.236   5.550 -31.342  1.00  0.00     0.181 C 
HETATM    4  N   UNL     1      -5.038   6.116 -32.490  1.00  0.00    -0.185 NA
HETATM    5  C   UNL     1      -3.766   6.163 -32.990  1.00  0.00     0.247 C 
HETATM    6  O   UNL     1      -3.523   6.186 -34.194  1.00  0.00    -0.271 OA
HETATM    7  C   UNL     1      -2.631   6.068 -32.015  1.00  0.00     0.134 C 
HETATM    8  H   UNL     1      -4.493   4.139 -30.106  1.00  0.00     0.131 HD
ENDROOT
BRANCH   3   9
HETATM    9  N   UNL     1      -6.505   5.469 -30.817  1.00  0.00    -0.353 N 
HETATM   10  C   UNL     1      -6.928   4.593 -29.718  1.00  0.00     0.153 C 
HETATM   11  C   UNL     1      -7.788   3.438 -30.276  1.00  0.00     0.256 C 
HETATM   12  N   UNL     1      -8.974   4.000 -31.066  1.00  0.00    -0.056 N 
HETATM   13  H   UNL     1      -9.496   4.617 -30.441  1.00  0.00     0.281 HD
HETATM   14  C   UNL     1      -8.477   4.928 -32.184  1.00  0.00     0.256 C 
HETATM   15  C   UNL     1      -7.633   6.061 -31.565  1.00  0.00     0.153 C 
BRANCH  12  16
HETATM   16  C   UNL     1      -9.989   2.954 -31.544  1.00  0.00     0.254 C 
BRANCH  16  17
HETATM   17  C   UNL     1     -11.316   3.590 -31.957  1.00  0.00    -0.023 A 
HETATM   18  C   UNL     1     -11.928   3.306 -33.194  1.00  0.00     0.009 A 
HETATM   19  C   UNL     1     -13.119   3.932 -33.563  1.00  0.00     0.001 A 
HETATM   20  C   UNL     1     -13.722   4.847 -32.705  1.00  0.00     0.000 A 
HETATM   21  C   UNL     1     -13.142   5.131 -31.471  1.00  0.00     0.001 A 
HETATM   22  C   UNL     1     -11.950   4.507 -31.097  1.00  0.00     0.009 A 
ENDBRANCH  16  17
BRANCH  16  23
HETATM   23  C   UNL     1      -9.421   1.914 -32.529  1.00  0.00    -0.023 A 
HETATM   24  C   UNL     1      -8.828   2.264 -33.759  1.00  0.00     0.009 A 
HETATM   25  C   UNL     1      -8.270   1.293 -34.599  1.00  0.00     0.001 A 
HETATM   26  C   UNL     1      -8.275  -0.045 -34.225  1.00  0.00     0.000 A 
HETATM   27  C   UNL     1      -8.823  -0.416 -33.003  1.00  0.00     0.001 A 
HETATM   28  C   UNL     1      -9.374   0.552 -32.159  1.00  0.00     0.009 A 
ENDBRANCH  16  23
ENDBRANCH  12  16
ENDBRANCH   3   9
BRANCH   1  29
HETATM   29  C   UNL     1      -2.918   3.452 -31.925  1.00  0.00     0.240 C 
HETATM   30  N   UNL     1      -3.624   2.423 -31.337  1.00  0.00    -0.326 N 
HETATM   31  H   UNL     1      -3.941   2.524 -30.376  1.00  0.00     0.169 HD
HETATM   32  O   UNL     1      -2.236   3.350 -32.952  1.00  0.00    -0.271 OA
BRANCH  30  33
HETATM   33  C   UNL     1      -3.776   1.110 -31.835  1.00  0.00     0.034 A 
HETATM   34  C   UNL     1      -2.971   0.033 -31.462  1.00  0.00     0.032 A 
HETATM   35  C   UNL     1      -3.185  -1.241 -32.011  1.00  0.00     0.039 A 
HETATM   36  C   UNL     1      -4.211  -1.448 -32.930  1.00  0.00     0.068 A 
HETATM   37  C   UNL     1      -5.011  -0.370 -33.309  1.00  0.00     0.039 A 
HETATM   38  C   UNL     1      -4.789   0.901 -32.776  1.00  0.00     0.032 A 
BRANCH  36  39
HETATM   39  O   UNL     1      -4.541  -2.634 -33.521  1.00  0.00    -0.352 OA
BRANCH  39  40
HETATM   40  C   UNL     1      -5.458  -2.591 -34.613  1.00  0.00     0.171 C 
HETATM   41  C   UNL     1      -5.836  -4.019 -34.962  1.00  0.00     0.034 C 
ENDBRANCH  39  40
ENDBRANCH  36  39
ENDBRANCH  30  33
ENDBRANCH   1  29
TORSDOF 8
ENDMDL
