MODEL 1
REMARK VINA RESULT:      -9.9      0.000      0.000
REMARK  6 active torsions:
REMARK  status: ('A' for Active; 'I' for Inactive)
REMARK    1  A    between atoms: C_4  and  C_5 
REMARK    2  A    between atoms: C_5  and  N_6 
REMARK    3  A    between atoms: C_10  and  C_11 
REMARK    4  A    between atoms: C_11  and  C_12 
REMARK    5  A    between atoms: N_21  and  C_22 
REMARK    6  A    between atoms: C_22  and  C_23 
ROOT
HETATM    1  C   UNL     1      -5.924   0.410 -32.525  1.00  0.00     0.164 A 
HETATM    2  N   UNL     1      -5.791   1.536 -33.439  1.00  0.00    -0.319 N 
HETATM    3  C   UNL     1      -6.940   2.288 -33.508  1.00  0.00     0.326 A 
HETATM    4  O   UNL     1      -7.063   3.232 -34.267  1.00  0.00    -0.247 OA
HETATM    5  N   UNL     1      -7.826   1.827 -32.594  1.00  0.00    -0.265 N 
HETATM    6  C   UNL     1      -7.351   0.689 -32.002  1.00  0.00     0.263 A 
HETATM    7  O   UNL     1      -7.927   0.033 -31.145  1.00  0.00    -0.270 OA
HETATM    8  H   UNL     1      -5.330   1.385 -34.334  1.00  0.00     0.166 HD
ENDROOT
BRANCH   1   9
HETATM    9  C   UNL     1      -4.892   0.469 -31.341  1.00  0.00     0.033 C 
HETATM   10  C   UNL     1      -5.359   1.246 -30.096  1.00  0.00     0.036 C 
HETATM   11  C   UNL     1      -5.424   2.754 -30.288  1.00  0.00     0.235 C 
HETATM   12  N   UNL     1      -4.144   3.317 -30.856  1.00  0.00    -0.067 N 
HETATM   13  H   UNL     1      -3.481   3.341 -30.073  1.00  0.00     0.280 HD
HETATM   14  C   UNL     1      -3.497   2.526 -31.973  1.00  0.00     0.235 C 
HETATM   15  C   UNL     1      -3.501   1.031 -31.693  1.00  0.00     0.036 C 
BRANCH  12  16
HETATM   16  C   UNL     1      -4.315   4.770 -31.313  1.00  0.00     0.274 C 
BRANCH  16  17
HETATM   17  C   UNL     1      -3.134   5.355 -32.046  1.00  0.00    -0.026 A 
HETATM   18  C   UNL     1      -1.989   5.700 -31.293  1.00  0.00     0.016 A 
HETATM   19  C   UNL     1      -0.837   6.203 -31.903  1.00  0.00    -0.061 A 
HETATM   20  C   UNL     1       0.383   6.543 -31.097  1.00  0.00     0.048 C 
HETATM   21  C   UNL     1      -0.830   6.374 -33.287  1.00  0.00     0.007 A 
HETATM   22  C   UNL     1      -1.960   6.056 -34.044  1.00  0.00     0.008 A 
HETATM   23  C   UNL     1      -3.116   5.535 -33.443  1.00  0.00    -0.054 A 
HETATM   24  C   UNL     1      -4.317   5.273 -34.311  1.00  0.00     0.049 C 
ENDBRANCH  16  17
ENDBRANCH  12  16
ENDBRANCH   1   9
BRANCH   1  25
HETATM   25  C   UNL     1      -5.808  -0.882 -33.327  1.00  0.00     0.072 A 
HETATM   26  N   UNL     1      -4.555  -1.432 -33.350  1.00  0.00    -0.262 NA
HETATM   27  C   UNL     1      -4.389  -2.583 -34.044  1.00  0.00     0.117 A 
HETATM   28  C   UNL     1      -5.410  -3.228 -34.716  1.00  0.00     0.019 A 
HETATM   29  C   UNL     1      -6.679  -2.666 -34.673  1.00  0.00     0.003 A 
HETATM   30  C   UNL     1      -6.889  -1.485 -33.964  1.00  0.00     0.030 A 
ENDBRANCH   1  25
BRANCH   5  31
HETATM   31  C   UNL     1      -9.091   2.464 -32.282  1.00  0.00     0.168 C 
BRANCH  31  32
HETATM   32  C   UNL     1     -10.169   2.285 -33.350  1.00  0.00     0.140 C 
HETATM   33  O   UNL     1     -11.270   3.165 -33.049  1.00  0.00    -0.384 OA
HETATM   34  C   UNL     1     -12.494   2.426 -33.173  1.00  0.00     0.168 C 
HETATM   35  C   UNL     1     -12.151   1.150 -33.909  1.00  0.00     0.029 C 
HETATM   36  C   UNL     1     -10.749   0.881 -33.422  1.00  0.00     0.036 C 
ENDBRANCH  31  32
ENDBRANCH   5  31
TORSDOF 6
ENDMDL
MODEL 2
REMARK VINA RESULT:      -9.6      2.510      8.207
REMARK  6 active torsions:
REMARK  status: ('A' for Active; 'I' for Inactive)
REMARK    1  A    between atoms: C_4  and  C_5 
REMARK    2  A    between atoms: C_5  and  N_6 
REMARK    3  A    between atoms: C_10  and  C_11 
REMARK    4  A    between atoms: C_11  and  C_12 
REMARK    5  A    between atoms: N_21  and  C_22 
REMARK    6  A    between atoms: C_22  and  C_23 
ROOT
HETATM    1  C   UNL     1      -6.694   1.811 -32.632  1.00  0.00     0.164 A 
HETATM    2  N   UNL     1      -7.371   1.614 -33.906  1.00  0.00    -0.319 N 
HETATM    3  C   UNL     1      -6.768   0.643 -34.670  1.00  0.00     0.326 A 
HETATM    4  O   UNL     1      -7.134   0.374 -35.800  1.00  0.00    -0.247 OA
HETATM    5  N   UNL     1      -5.786   0.056 -33.946  1.00  0.00    -0.265 N 
HETATM    6  C   UNL     1      -5.620   0.707 -32.754  1.00  0.00     0.263 A 
HETATM    7  O   UNL     1      -4.803   0.421 -31.889  1.00  0.00    -0.270 OA
HETATM    8  H   UNL     1      -7.675   2.434 -34.427  1.00  0.00     0.166 HD
ENDROOT
BRANCH   1   9
HETATM    9  C   UNL     1      -7.629   1.523 -31.402  1.00  0.00     0.033 C 
HETATM   10  C   UNL     1      -8.611   0.349 -31.579  1.00  0.00     0.036 C 
HETATM   11  C   UNL     1      -9.750   0.627 -32.547  1.00  0.00     0.235 C 
HETATM   12  N   UNL     1     -10.467   1.918 -32.236  1.00  0.00    -0.067 N 
HETATM   13  H   UNL     1     -11.066   1.715 -31.427  1.00  0.00     0.280 HD
HETATM   14  C   UNL     1      -9.597   3.101 -31.867  1.00  0.00     0.235 C 
HETATM   15  C   UNL     1      -8.477   2.713 -30.914  1.00  0.00     0.036 C 
BRANCH  12  16
HETATM   16  C   UNL     1     -11.411   2.333 -33.370  1.00  0.00     0.274 C 
BRANCH  16  17
HETATM   17  C   UNL     1     -12.871   2.399 -32.997  1.00  0.00    -0.026 A 
HETATM   18  C   UNL     1     -13.343   3.571 -32.365  1.00  0.00     0.016 A 
HETATM   19  C   UNL     1     -14.690   3.729 -32.031  1.00  0.00    -0.061 A 
HETATM   20  C   UNL     1     -15.186   4.990 -31.382  1.00  0.00     0.048 C 
HETATM   21  C   UNL     1     -15.581   2.697 -32.323  1.00  0.00     0.007 A 
HETATM   22  C   UNL     1     -15.128   1.523 -32.930  1.00  0.00     0.008 A 
HETATM   23  C   UNL     1     -13.780   1.361 -33.285  1.00  0.00    -0.054 A 
HETATM   24  C   UNL     1     -13.350   0.047 -33.879  1.00  0.00     0.049 C 
ENDBRANCH  16  17
ENDBRANCH  12  16
ENDBRANCH   1   9
BRANCH   1  25
HETATM   25  C   UNL     1      -6.119   3.222 -32.600  1.00  0.00     0.072 A 
HETATM   26  N   UNL     1      -6.485   4.015 -33.654  1.00  0.00    -0.262 NA
HETATM   27  C   UNL     1      -6.007   5.282 -33.681  1.00  0.00     0.117 A 
HETATM   28  C   UNL     1      -5.185   5.813 -32.706  1.00  0.00     0.019 A 
HETATM   29  C   UNL     1      -4.832   5.002 -31.635  1.00  0.00     0.003 A 
HETATM   30  C   UNL     1      -5.309   3.695 -31.571  1.00  0.00     0.030 A 
ENDBRANCH   1  25
BRANCH   5  31
HETATM   31  C   UNL     1      -5.031  -1.105 -34.374  1.00  0.00     0.168 C 
BRANCH  31  32
HETATM   32  C   UNL     1      -5.634  -2.443 -33.945  1.00  0.00     0.140 C 
HETATM   33  O   UNL     1      -4.589  -3.436 -33.924  1.00  0.00    -0.384 OA
HETATM   34  C   UNL     1      -5.066  -4.617 -34.584  1.00  0.00     0.168 C 
HETATM   35  C   UNL     1      -6.566  -4.463 -34.706  1.00  0.00     0.029 C 
HETATM   36  C   UNL     1      -6.709  -2.972 -34.882  1.00  0.00     0.036 C 
ENDBRANCH  31  32
ENDBRANCH   5  31
TORSDOF 6
ENDMDL
MODEL 3
REMARK VINA RESULT:      -9.6      2.019      7.276
REMARK  6 active torsions:
REMARK  status: ('A' for Active; 'I' for Inactive)
REMARK    1  A    between atoms: C_4  and  C_5 
REMARK    2  A    between atoms: C_5  and  N_6 
REMARK    3  A    between atoms: C_10  and  C_11 
REMARK    4  A    between atoms: C_11  and  C_12 
REMARK    5  A    between atoms: N_21  and  C_22 
REMARK    6  A    between atoms: C_22  and  C_23 
ROOT
HETATM    1  C   UNL     1      -7.789   3.196 -32.423  1.00  0.00     0.164 A 
HETATM    2  N   UNL     1      -6.913   3.062 -33.579  1.00  0.00    -0.319 N 
HETATM    3  C   UNL     1      -6.185   4.204 -33.814  1.00  0.00     0.326 A 
HETATM    4  O   UNL     1      -5.446   4.327 -34.774  1.00  0.00    -0.247 OA
HETATM    5  N   UNL     1      -6.405   5.084 -32.810  1.00  0.00    -0.265 N 
HETATM    6  C   UNL     1      -7.377   4.614 -31.969  1.00  0.00     0.263 A 
HETATM    7  O   UNL     1      -7.803   5.186 -30.976  1.00  0.00    -0.270 OA
HETATM    8  H   UNL     1      -7.278   2.612 -34.417  1.00  0.00     0.166 HD
ENDROOT
BRANCH   1   9
HETATM    9  C   UNL     1      -7.464   2.150 -31.296  1.00  0.00     0.033 C 
HETATM   10  C   UNL     1      -5.978   2.039 -30.906  1.00  0.00     0.036 C 
HETATM   11  C   UNL     1      -5.103   1.374 -31.958  1.00  0.00     0.235 C 
HETATM   12  N   UNL     1      -5.664   0.051 -32.419  1.00  0.00    -0.067 N 
HETATM   13  H   UNL     1      -5.450  -0.617 -31.670  1.00  0.00     0.280 HD
HETATM   14  C   UNL     1      -7.158  -0.001 -32.659  1.00  0.00     0.235 C 
HETATM   15  C   UNL     1      -7.939   0.709 -31.564  1.00  0.00     0.036 C 
BRANCH  12  16
HETATM   16  C   UNL     1      -4.944  -0.468 -33.669  1.00  0.00     0.274 C 
BRANCH  16  17
HETATM   17  C   UNL     1      -4.752  -1.963 -33.724  1.00  0.00    -0.026 A 
HETATM   18  C   UNL     1      -5.590  -2.709 -34.583  1.00  0.00     0.016 A 
HETATM   19  C   UNL     1      -5.446  -4.091 -34.726  1.00  0.00    -0.061 A 
HETATM   20  C   UNL     1      -6.325  -4.871 -35.661  1.00  0.00     0.048 C 
HETATM   21  C   UNL     1      -4.454  -4.742 -33.993  1.00  0.00     0.007 A 
HETATM   22  C   UNL     1      -3.630  -4.024 -33.125  1.00  0.00     0.008 A 
HETATM   23  C   UNL     1      -3.756  -2.632 -32.986  1.00  0.00    -0.054 A 
HETATM   24  C   UNL     1      -2.876  -1.931 -31.987  1.00  0.00     0.049 C 
ENDBRANCH  16  17
ENDBRANCH  12  16
ENDBRANCH   1   9
BRANCH   1  25
HETATM   25  C   UNL     1      -9.235   3.102 -32.897  1.00  0.00     0.072 A 
HETATM   26  N   UNL     1     -10.160   3.599 -32.019  1.00  0.00    -0.262 NA
HETATM   27  C   UNL     1     -11.463   3.547 -32.385  1.00  0.00     0.117 A 
HETATM   28  C   UNL     1     -11.902   3.029 -33.588  1.00  0.00     0.019 A 
HETATM   29  C   UNL     1     -10.952   2.540 -34.475  1.00  0.00     0.003 A 
HETATM   30  C   UNL     1      -9.602   2.583 -34.136  1.00  0.00     0.030 A 
ENDBRANCH   1  25
BRANCH   5  31
HETATM   31  C   UNL     1      -5.697   6.339 -32.646  1.00  0.00     0.168 C 
BRANCH  31  32
HETATM   32  C   UNL     1      -4.275   6.196 -32.105  1.00  0.00     0.140 C 
HETATM   33  O   UNL     1      -3.354   6.198 -33.215  1.00  0.00    -0.384 OA
HETATM   34  C   UNL     1      -2.417   5.127 -33.035  1.00  0.00     0.168 C 
HETATM   35  C   UNL     1      -2.556   4.674 -31.599  1.00  0.00     0.029 C 
HETATM   36  C   UNL     1      -4.024   4.903 -31.344  1.00  0.00     0.036 C 
ENDBRANCH  31  32
ENDBRANCH   5  31
TORSDOF 6
ENDMDL
MODEL 4
REMARK VINA RESULT:      -9.6      1.603      2.195
REMARK  6 active torsions:
REMARK  status: ('A' for Active; 'I' for Inactive)
REMARK    1  A    between atoms: C_4  and  C_5 
REMARK    2  A    between atoms: C_5  and  N_6 
REMARK    3  A    between atoms: C_10  and  C_11 
REMARK    4  A    between atoms: C_11  and  C_12 
REMARK    5  A    between atoms: N_21  and  C_22 
REMARK    6  A    between atoms: C_22  and  C_23 
ROOT
HETATM    1  C   UNL     1      -6.876   2.170 -32.431  1.00  0.00     0.164 A 
HETATM    2  N   UNL     1      -6.472   3.282 -33.280  1.00  0.00    -0.319 N 
HETATM    3  C   UNL     1      -7.461   4.230 -33.399  1.00  0.00     0.326 A 
HETATM    4  O   UNL     1      -7.354   5.205 -34.121  1.00  0.00    -0.247 OA
HETATM    5  N   UNL     1      -8.485   3.909 -32.574  1.00  0.00    -0.265 N 
HETATM    6  C   UNL     1      -8.268   2.685 -32.002  1.00  0.00     0.263 A 
HETATM    7  O   UNL     1      -9.018   2.117 -31.219  1.00  0.00    -0.270 OA
HETATM    8  H   UNL     1      -5.975   3.078 -34.145  1.00  0.00     0.166 HD
ENDROOT
BRANCH   1   9
HETATM    9  C   UNL     1      -5.948   2.005 -31.173  1.00  0.00     0.033 C 
HETATM   10  C   UNL     1      -5.542   3.316 -30.474  1.00  0.00     0.036 C 
HETATM   11  C   UNL     1      -4.550   4.162 -31.259  1.00  0.00     0.235 C 
HETATM   12  N   UNL     1      -3.348   3.367 -31.709  1.00  0.00    -0.067 N 
HETATM   13  H   UNL     1      -2.758   3.262 -30.875  1.00  0.00     0.280 HD
HETATM   14  C   UNL     1      -3.619   1.979 -32.248  1.00  0.00     0.235 C 
HETATM   15  C   UNL     1      -4.638   1.227 -31.406  1.00  0.00     0.036 C 
BRANCH  12  16
HETATM   16  C   UNL     1      -2.505   4.139 -32.730  1.00  0.00     0.274 C 
BRANCH  16  17
HETATM   17  C   UNL     1      -1.519   5.116 -32.141  1.00  0.00    -0.026 A 
HETATM   18  C   UNL     1      -0.843   4.745 -30.958  1.00  0.00     0.016 A 
HETATM   19  C   UNL     1       0.120   5.573 -30.375  1.00  0.00    -0.061 A 
HETATM   20  C   UNL     1       0.851   5.158 -29.131  1.00  0.00     0.048 C 
HETATM   21  C   UNL     1       0.407   6.797 -30.979  1.00  0.00     0.007 A 
HETATM   22  C   UNL     1      -0.266   7.188 -32.138  1.00  0.00     0.008 A 
HETATM   23  C   UNL     1      -1.223   6.357 -32.740  1.00  0.00    -0.054 A 
HETATM   24  C   UNL     1      -1.954   6.868 -33.952  1.00  0.00     0.049 C 
ENDBRANCH  16  17
ENDBRANCH  12  16
ENDBRANCH   1   9
BRANCH   1  25
HETATM   25  C   UNL     1      -6.927   0.904 -33.279  1.00  0.00     0.072 A 
HETATM   26  N   UNL     1      -6.869   1.116 -34.630  1.00  0.00    -0.262 NA
HETATM   27  C   UNL     1      -6.907   0.029 -35.437  1.00  0.00     0.117 A 
HETATM   28  C   UNL     1      -6.993  -1.269 -34.972  1.00  0.00     0.019 A 
HETATM   29  C   UNL     1      -7.039  -1.471 -33.599  1.00  0.00     0.003 A 
HETATM   30  C   UNL     1      -6.995  -0.377 -32.737  1.00  0.00     0.030 A 
ENDBRANCH   1  25
BRANCH   5  31
HETATM   31  C   UNL     1      -9.637   4.752 -32.327  1.00  0.00     0.168 C 
BRANCH  31  32
HETATM   32  C   UNL     1     -10.859   4.420 -33.184  1.00  0.00     0.140 C 
HETATM   33  O   UNL     1     -11.676   3.466 -32.476  1.00  0.00    -0.384 OA
HETATM   34  C   UNL     1     -12.052   2.421 -33.385  1.00  0.00     0.168 C 
HETATM   35  C   UNL     1     -11.743   2.932 -34.775  1.00  0.00     0.029 C 
HETATM   36  C   UNL     1     -10.526   3.787 -34.526  1.00  0.00     0.036 C 
ENDBRANCH  31  32
ENDBRANCH   5  31
TORSDOF 6
ENDMDL
MODEL 5
REMARK VINA RESULT:      -9.4      2.738      7.201
REMARK  6 active torsions:
REMARK  status: ('A' for Active; 'I' for Inactive)
REMARK    1  A    between atoms: C_4  and  C_5 
REMARK    2  A    between atoms: C_5  and  N_6 
REMARK    3  A    between atoms: C_10  and  C_11 
REMARK    4  A    between atoms: C_11  and  C_12 
REMARK    5  A    between atoms: N_21  and  C_22 
REMARK    6  A    between atoms: C_22  and  C_23 
ROOT
HETATM    1  C   UNL     1      -9.443   3.404 -32.836  1.00  0.00     0.164 A 
HETATM    2  N   UNL     1      -8.311   3.499 -33.748  1.00  0.00    -0.319 N 
HETATM    3  C   UNL     1      -7.584   4.649 -33.555  1.00  0.00     0.326 A 
HETATM    4  O   UNL     1      -6.640   4.956 -34.261  1.00  0.00    -0.247 OA
HETATM    5  N   UNL     1      -8.065   5.302 -32.472  1.00  0.00    -0.265 N 
HETATM    6  C   UNL     1      -9.195   4.685 -32.008  1.00  0.00     0.263 A 
HETATM    7  O   UNL     1      -9.865   5.044 -31.049  1.00  0.00    -0.270 OA
HETATM    8  H   UNL     1      -8.450   3.244 -34.724  1.00  0.00     0.166 HD
ENDROOT
BRANCH   1   9
HETATM    9  C   UNL     1      -9.365   2.137 -31.909  1.00  0.00     0.033 C 
HETATM   10  C   UNL     1      -8.024   1.933 -31.179  1.00  0.00     0.036 C 
HETATM   11  C   UNL     1      -6.879   1.504 -32.083  1.00  0.00     0.235 C 
HETATM   12  N   UNL     1      -7.238   0.316 -32.942  1.00  0.00    -0.067 N 
HETATM   13  H   UNL     1      -7.191  -0.500 -32.320  1.00  0.00     0.280 HD
HETATM   14  C   UNL     1      -8.617   0.328 -33.566  1.00  0.00     0.235 C 
HETATM   15  C   UNL     1      -9.685   0.791 -32.588  1.00  0.00     0.036 C 
BRANCH  12  16
HETATM   16  C   UNL     1      -6.199   0.073 -34.042  1.00  0.00     0.274 C 
BRANCH  16  17
HETATM   17  C   UNL     1      -5.598  -1.310 -34.062  1.00  0.00    -0.026 A 
HETATM   18  C   UNL     1      -6.325  -2.341 -34.698  1.00  0.00     0.016 A 
HETATM   19  C   UNL     1      -5.817  -3.638 -34.800  1.00  0.00    -0.061 A 
HETATM   20  C   UNL     1      -6.587  -4.721 -35.500  1.00  0.00     0.048 C 
HETATM   21  C   UNL     1      -4.565  -3.914 -34.251  1.00  0.00     0.007 A 
HETATM   22  C   UNL     1      -3.841  -2.912 -33.602  1.00  0.00     0.008 A 
HETATM   23  C   UNL     1      -4.335  -1.602 -33.508  1.00  0.00    -0.054 A 
HETATM   24  C   UNL     1      -3.531  -0.587 -32.741  1.00  0.00     0.049 C 
ENDBRANCH  16  17
ENDBRANCH  12  16
ENDBRANCH   1   9
BRANCH   1  25
HETATM   25  C   UNL     1     -10.729   3.442 -33.652  1.00  0.00     0.072 A 
HETATM   26  N   UNL     1     -10.548   3.485 -35.008  1.00  0.00    -0.262 NA
HETATM   27  C   UNL     1     -11.654   3.518 -35.788  1.00  0.00     0.117 A 
HETATM   28  C   UNL     1     -12.944   3.503 -35.292  1.00  0.00     0.019 A 
HETATM   29  C   UNL     1     -13.114   3.446 -33.915  1.00  0.00     0.003 A 
HETATM   30  C   UNL     1     -11.999   3.406 -33.081  1.00  0.00     0.030 A 
ENDBRANCH   1  25
BRANCH   5  31
HETATM   31  C   UNL     1      -7.456   6.478 -31.883  1.00  0.00     0.168 C 
BRANCH  31  32
HETATM   32  C   UNL     1      -6.382   6.178 -30.838  1.00  0.00     0.140 C 
HETATM   33  O   UNL     1      -5.193   5.723 -31.514  1.00  0.00    -0.384 OA
HETATM   34  C   UNL     1      -4.700   4.556 -30.840  1.00  0.00     0.168 C 
HETATM   35  C   UNL     1      -5.412   4.500 -29.507  1.00  0.00     0.029 C 
HETATM   36  C   UNL     1      -6.760   5.082 -29.852  1.00  0.00     0.036 C 
ENDBRANCH  31  32
ENDBRANCH   5  31
TORSDOF 6
ENDMDL
MODEL 6
REMARK VINA RESULT:      -9.1      2.934      8.022
REMARK  6 active torsions:
REMARK  status: ('A' for Active; 'I' for Inactive)
REMARK    1  A    between atoms: C_4  and  C_5 
REMARK    2  A    between atoms: C_5  and  N_6 
REMARK    3  A    between atoms: C_10  and  C_11 
REMARK    4  A    between atoms: C_11  and  C_12 
REMARK    5  A    between atoms: N_21  and  C_22 
REMARK    6  A    between atoms: C_22  and  C_23 
ROOT
HETATM    1  C   UNL     1      -5.077   5.348 -31.661  1.00  0.00     0.164 A 
HETATM    2  N   UNL     1      -5.035   4.905 -33.048  1.00  0.00    -0.319 N 
HETATM    3  C   UNL     1      -4.137   5.628 -33.797  1.00  0.00     0.326 A 
HETATM    4  O   UNL     1      -3.999   5.465 -34.996  1.00  0.00    -0.247 OA
HETATM    5  N   UNL     1      -3.452   6.464 -32.982  1.00  0.00    -0.265 N 
HETATM    6  C   UNL     1      -3.967   6.421 -31.715  1.00  0.00     0.263 A 
HETATM    7  O   UNL     1      -3.569   7.071 -30.758  1.00  0.00    -0.270 OA
HETATM    8  H   UNL     1      -5.913   4.701 -33.520  1.00  0.00     0.166 HD
ENDROOT
BRANCH   1   9
HETATM    9  C   UNL     1      -4.681   4.209 -30.652  1.00  0.00     0.033 C 
HETATM   10  C   UNL     1      -3.743   3.125 -31.215  1.00  0.00     0.036 C 
HETATM   11  C   UNL     1      -4.400   2.189 -32.218  1.00  0.00     0.235 C 
HETATM   12  N   UNL     1      -5.690   1.603 -31.697  1.00  0.00    -0.067 N 
HETATM   13  H   UNL     1      -5.414   0.868 -31.036  1.00  0.00     0.280 HD
HETATM   14  C   UNL     1      -6.612   2.550 -30.961  1.00  0.00     0.235 C 
HETATM   15  C   UNL     1      -5.856   3.455 -30.000  1.00  0.00     0.036 C 
BRANCH  12  16
HETATM   16  C   UNL     1      -6.484   0.900 -32.804  1.00  0.00     0.274 C 
BRANCH  16  17
HETATM   17  C   UNL     1      -5.892  -0.398 -33.293  1.00  0.00    -0.026 A 
HETATM   18  C   UNL     1      -4.850  -0.979 -32.536  1.00  0.00     0.016 A 
HETATM   19  C   UNL     1      -4.281  -2.203 -32.896  1.00  0.00    -0.061 A 
HETATM   20  C   UNL     1      -3.191  -2.825 -32.070  1.00  0.00     0.048 C 
HETATM   21  C   UNL     1      -4.752  -2.854 -34.036  1.00  0.00     0.007 A 
HETATM   22  C   UNL     1      -5.767  -2.285 -34.806  1.00  0.00     0.008 A 
HETATM   23  C   UNL     1      -6.358  -1.063 -34.445  1.00  0.00    -0.054 A 
HETATM   24  C   UNL     1      -7.403  -0.477 -35.354  1.00  0.00     0.049 C 
ENDBRANCH  16  17
ENDBRANCH  12  16
ENDBRANCH   1   9
BRANCH   1  25
HETATM   25  C   UNL     1      -6.462   5.915 -31.374  1.00  0.00     0.072 A 
HETATM   26  N   UNL     1      -7.386   5.702 -32.362  1.00  0.00    -0.262 NA
HETATM   27  C   UNL     1      -8.637   6.180 -32.164  1.00  0.00     0.117 A 
HETATM   28  C   UNL     1      -9.028   6.859 -31.026  1.00  0.00     0.019 A 
HETATM   29  C   UNL     1      -8.085   7.057 -30.026  1.00  0.00     0.003 A 
HETATM   30  C   UNL     1      -6.789   6.574 -30.192  1.00  0.00     0.030 A 
ENDBRANCH   1  25
BRANCH   5  31
HETATM   31  C   UNL     1      -2.325   7.277 -33.397  1.00  0.00     0.168 C 
BRANCH  31  32
HETATM   32  C   UNL     1      -0.964   6.745 -32.949  1.00  0.00     0.140 C 
HETATM   33  O   UNL     1      -1.082   5.333 -32.687  1.00  0.00    -0.384 OA
HETATM   34  C   UNL     1      -0.443   5.043 -31.435  1.00  0.00     0.168 C 
HETATM   35  C   UNL     1       0.391   6.257 -31.091  1.00  0.00     0.029 C 
HETATM   36  C   UNL     1      -0.439   7.376 -31.668  1.00  0.00     0.036 C 
ENDBRANCH  31  32
ENDBRANCH   5  31
TORSDOF 6
ENDMDL
MODEL 7
REMARK VINA RESULT:      -9.1      2.168      7.583
REMARK  6 active torsions:
REMARK  status: ('A' for Active; 'I' for Inactive)
REMARK    1  A    between atoms: C_4  and  C_5 
REMARK    2  A    between atoms: C_5  and  N_6 
REMARK    3  A    between atoms: C_10  and  C_11 
REMARK    4  A    between atoms: C_11  and  C_12 
REMARK    5  A    between atoms: N_21  and  C_22 
REMARK    6  A    between atoms: C_22  and  C_23 
ROOT
HETATM    1  C   UNL     1      -6.768   3.371 -31.554  1.00  0.00     0.164 A 
HETATM    2  N   UNL     1      -6.297   3.226 -32.924  1.00  0.00    -0.319 N 
HETATM    3  C   UNL     1      -5.476   4.262 -33.304  1.00  0.00     0.326 A 
HETATM    4  O   UNL     1      -5.031   4.369 -34.433  1.00  0.00    -0.247 OA
HETATM    5  N   UNL     1      -5.240   5.056 -32.233  1.00  0.00    -0.265 N 
HETATM    6  C   UNL     1      -5.999   4.655 -31.168  1.00  0.00     0.263 A 
HETATM    7  O   UNL     1      -6.017   5.179 -30.063  1.00  0.00    -0.270 OA
HETATM    8  H   UNL     1      -6.959   2.927 -33.638  1.00  0.00     0.166 HD
ENDROOT
BRANCH   1   9
HETATM    9  C   UNL     1      -6.326   2.176 -30.634  1.00  0.00     0.033 C 
HETATM   10  C   UNL     1      -4.816   1.872 -30.627  1.00  0.00     0.036 C 
HETATM   11  C   UNL     1      -4.298   1.246 -31.913  1.00  0.00     0.235 C 
HETATM   12  N   UNL     1      -5.112   0.048 -32.337  1.00  0.00    -0.067 N 
HETATM   13  H   UNL     1      -4.817  -0.720 -31.722  1.00  0.00     0.280 HD
HETATM   14  C   UNL     1      -6.615   0.175 -32.211  1.00  0.00     0.235 C 
HETATM   15  C   UNL     1      -7.027   0.831 -30.902  1.00  0.00     0.036 C 
BRANCH  12  16
HETATM   16  C   UNL     1      -4.771  -0.397 -33.764  1.00  0.00     0.274 C 
BRANCH  16  17
HETATM   17  C   UNL     1      -5.160  -1.814 -34.105  1.00  0.00    -0.026 A 
HETATM   18  C   UNL     1      -4.239  -2.844 -33.809  1.00  0.00     0.016 A 
HETATM   19  C   UNL     1      -4.542  -4.186 -34.050  1.00  0.00    -0.061 A 
HETATM   20  C   UNL     1      -3.566  -5.276 -33.709  1.00  0.00     0.048 C 
HETATM   21  C   UNL     1      -5.781  -4.506 -34.605  1.00  0.00     0.007 A 
HETATM   22  C   UNL     1      -6.694  -3.499 -34.922  1.00  0.00     0.008 A 
HETATM   23  C   UNL     1      -6.407  -2.148 -34.668  1.00  0.00    -0.054 A 
HETATM   24  C   UNL     1      -7.412  -1.111 -35.091  1.00  0.00     0.049 C 
ENDBRANCH  16  17
ENDBRANCH  12  16
ENDBRANCH   1   9
BRANCH   1  25
HETATM   25  C   UNL     1      -8.282   3.550 -31.578  1.00  0.00     0.072 A 
HETATM   26  N   UNL     1      -8.844   3.849 -30.367  1.00  0.00    -0.262 NA
HETATM   27  C   UNL     1     -10.187   4.022 -30.325  1.00  0.00     0.117 A 
HETATM   28  C   UNL     1     -11.009   3.922 -31.431  1.00  0.00     0.019 A 
HETATM   29  C   UNL     1     -10.424   3.631 -32.656  1.00  0.00     0.003 A 
HETATM   30  C   UNL     1      -9.045   3.451 -32.739  1.00  0.00     0.030 A 
ENDBRANCH   1  25
BRANCH   5  31
HETATM   31  C   UNL     1      -4.305   6.163 -32.221  1.00  0.00     0.168 C 
BRANCH  31  32
HETATM   32  C   UNL     1      -2.942   5.831 -31.614  1.00  0.00     0.140 C 
HETATM   33  O   UNL     1      -2.184   7.051 -31.481  1.00  0.00    -0.384 OA
HETATM   34  C   UNL     1      -0.857   6.822 -31.976  1.00  0.00     0.168 C 
HETATM   35  C   UNL     1      -0.697   5.323 -32.093  1.00  0.00     0.029 C 
HETATM   36  C   UNL     1      -2.095   4.891 -32.458  1.00  0.00     0.036 C 
ENDBRANCH  31  32
ENDBRANCH   5  31
TORSDOF 6
ENDMDL
MODEL 8
REMARK VINA RESULT:      -9.1      2.722      7.585
REMARK  6 active torsions:
REMARK  status: ('A' for Active; 'I' for Inactive)
REMARK    1  A    between atoms: C_4  and  C_5 
REMARK    2  A    between atoms: C_5  and  N_6 
REMARK    3  A    between atoms: C_10  and  C_11 
REMARK    4  A    between atoms: C_11  and  C_12 
REMARK    5  A    between atoms: N_21  and  C_22 
REMARK    6  A    between atoms: C_22  and  C_23 
ROOT
HETATM    1  C   UNL     1      -7.706   5.066 -32.679  1.00  0.00     0.164 A 
HETATM    2  N   UNL     1      -7.358   3.859 -33.415  1.00  0.00    -0.319 N 
HETATM    3  C   UNL     1      -6.122   3.952 -34.011  1.00  0.00     0.326 A 
HETATM    4  O   UNL     1      -5.673   3.079 -34.732  1.00  0.00    -0.247 OA
HETATM    5  N   UNL     1      -5.530   5.106 -33.625  1.00  0.00    -0.265 N 
HETATM    6  C   UNL     1      -6.399   5.863 -32.887  1.00  0.00     0.263 A 
HETATM    7  O   UNL     1      -6.161   6.962 -32.406  1.00  0.00    -0.270 OA
HETATM    8  H   UNL     1      -8.072   3.415 -33.989  1.00  0.00     0.166 HD
ENDROOT
BRANCH   1   9
HETATM    9  C   UNL     1      -7.938   4.794 -31.149  1.00  0.00     0.033 C 
HETATM   10  C   UNL     1      -6.985   3.767 -30.509  1.00  0.00     0.036 C 
HETATM   11  C   UNL     1      -7.237   2.329 -30.937  1.00  0.00     0.235 C 
HETATM   12  N   UNL     1      -8.684   1.928 -30.782  1.00  0.00    -0.067 N 
HETATM   13  H   UNL     1      -8.819   1.763 -29.778  1.00  0.00     0.280 HD
HETATM   14  C   UNL     1      -9.716   2.948 -31.214  1.00  0.00     0.235 C 
HETATM   15  C   UNL     1      -9.360   4.353 -30.755  1.00  0.00     0.036 C 
BRANCH  12  16
HETATM   16  C   UNL     1      -8.984   0.595 -31.476  1.00  0.00     0.274 C 
BRANCH  16  17
HETATM   17  C   UNL     1      -8.184   0.330 -32.727  1.00  0.00    -0.026 A 
HETATM   18  C   UNL     1      -6.910  -0.263 -32.587  1.00  0.00     0.016 A 
HETATM   19  C   UNL     1      -6.127  -0.584 -33.699  1.00  0.00    -0.061 A 
HETATM   20  C   UNL     1      -4.784  -1.238 -33.541  1.00  0.00     0.048 C 
HETATM   21  C   UNL     1      -6.620  -0.300 -34.973  1.00  0.00     0.007 A 
HETATM   22  C   UNL     1      -7.869   0.304 -35.128  1.00  0.00     0.008 A 
HETATM   23  C   UNL     1      -8.671   0.615 -34.018  1.00  0.00    -0.054 A 
HETATM   24  C   UNL     1      -9.978   1.321 -34.256  1.00  0.00     0.049 C 
ENDBRANCH  16  17
ENDBRANCH  12  16
ENDBRANCH   1   9
BRANCH   1  25
HETATM   25  C   UNL     1      -8.923   5.704 -33.341  1.00  0.00     0.072 A 
HETATM   26  N   UNL     1      -9.274   6.927 -32.839  1.00  0.00    -0.262 NA
HETATM   27  C   UNL     1     -10.346   7.546 -33.389  1.00  0.00     0.117 A 
HETATM   28  C   UNL     1     -11.090   7.016 -34.425  1.00  0.00     0.019 A 
HETATM   29  C   UNL     1     -10.715   5.779 -34.934  1.00  0.00     0.003 A 
HETATM   30  C   UNL     1      -9.614   5.116 -34.397  1.00  0.00     0.030 A 
ENDBRANCH   1  25
BRANCH   5  31
HETATM   31  C   UNL     1      -4.163   5.474 -33.940  1.00  0.00     0.168 C 
BRANCH  31  32
HETATM   32  C   UNL     1      -3.113   4.839 -33.029  1.00  0.00     0.140 C 
HETATM   33  O   UNL     1      -3.245   5.398 -31.708  1.00  0.00    -0.384 OA
HETATM   34  C   UNL     1      -1.941   5.752 -31.226  1.00  0.00     0.168 C 
HETATM   35  C   UNL     1      -0.948   5.069 -32.141  1.00  0.00     0.029 C 
HETATM   36  C   UNL     1      -1.676   5.095 -33.461  1.00  0.00     0.036 C 
ENDBRANCH  31  32
ENDBRANCH   5  31
TORSDOF 6
ENDMDL
MODEL 9
REMARK VINA RESULT:      -9.0      3.118      7.202
REMARK  6 active torsions:
REMARK  status: ('A' for Active; 'I' for Inactive)
REMARK    1  A    between atoms: C_4  and  C_5 
REMARK    2  A    between atoms: C_5  and  N_6 
REMARK    3  A    between atoms: C_10  and  C_11 
REMARK    4  A    between atoms: C_11  and  C_12 
REMARK    5  A    between atoms: N_21  and  C_22 
REMARK    6  A    between atoms: C_22  and  C_23 
ROOT
HETATM    1  C   UNL     1      -8.911   2.844 -32.776  1.00  0.00     0.164 A 
HETATM    2  N   UNL     1      -7.533   3.035 -33.205  1.00  0.00    -0.319 N 
HETATM    3  C   UNL     1      -6.742   3.547 -32.203  1.00  0.00     0.326 A 
HETATM    4  O   UNL     1      -5.575   3.847 -32.375  1.00  0.00    -0.247 OA
HETATM    5  N   UNL     1      -7.460   3.601 -31.057  1.00  0.00    -0.265 N 
HETATM    6  C   UNL     1      -8.765   3.266 -31.296  1.00  0.00     0.263 A 
HETATM    7  O   UNL     1      -9.661   3.233 -30.464  1.00  0.00    -0.270 OA
HETATM    8  H   UNL     1      -7.361   3.434 -34.126  1.00  0.00     0.166 HD
ENDROOT
BRANCH   1   9
HETATM    9  C   UNL     1      -9.370   1.344 -32.869  1.00  0.00     0.033 C 
HETATM   10  C   UNL     1      -8.700   0.385 -31.866  1.00  0.00     0.036 C 
HETATM   11  C   UNL     1      -7.237   0.093 -32.162  1.00  0.00     0.235 C 
HETATM   12  N   UNL     1      -7.015  -0.340 -33.591  1.00  0.00    -0.067 N 
HETATM   13  H   UNL     1      -7.326  -1.317 -33.636  1.00  0.00     0.280 HD
HETATM   14  C   UNL     1      -7.774   0.425 -34.654  1.00  0.00     0.235 C 
HETATM   15  C   UNL     1      -9.218   0.683 -34.252  1.00  0.00     0.036 C 
BRANCH  12  16
HETATM   16  C   UNL     1      -5.526  -0.352 -33.958  1.00  0.00     0.274 C 
BRANCH  16  17
HETATM   17  C   UNL     1      -4.741  -1.520 -33.415  1.00  0.00    -0.026 A 
HETATM   18  C   UNL     1      -4.922  -2.782 -34.025  1.00  0.00     0.016 A 
HETATM   19  C   UNL     1      -4.198  -3.903 -33.612  1.00  0.00    -0.061 A 
HETATM   20  C   UNL     1      -4.380  -5.234 -34.283  1.00  0.00     0.048 C 
HETATM   21  C   UNL     1      -3.284  -3.766 -32.568  1.00  0.00     0.007 A 
HETATM   22  C   UNL     1      -3.107  -2.531 -31.941  1.00  0.00     0.008 A 
HETATM   23  C   UNL     1      -3.818  -1.394 -32.359  1.00  0.00    -0.054 A 
HETATM   24  C   UNL     1      -3.623  -0.110 -31.599  1.00  0.00     0.049 C 
ENDBRANCH  16  17
ENDBRANCH  12  16
ENDBRANCH   1   9
BRANCH   1  25
HETATM   25  C   UNL     1      -9.806   3.772 -33.590  1.00  0.00     0.072 A 
HETATM   26  N   UNL     1     -11.149   3.566 -33.424  1.00  0.00    -0.262 NA
HETATM   27  C   UNL     1     -11.996   4.362 -34.119  1.00  0.00     0.117 A 
HETATM   28  C   UNL     1     -11.580   5.365 -34.973  1.00  0.00     0.019 A 
HETATM   29  C   UNL     1     -10.214   5.572 -35.122  1.00  0.00     0.003 A 
HETATM   30  C   UNL     1      -9.313   4.777 -34.418  1.00  0.00     0.030 A 
ENDBRANCH   1  25
BRANCH   5  31
HETATM   31  C   UNL     1      -6.914   3.952 -29.761  1.00  0.00     0.168 C 
BRANCH  31  32
HETATM   32  C   UNL     1      -6.774   5.455 -29.520  1.00  0.00     0.140 C 
HETATM   33  O   UNL     1      -5.372   5.785 -29.459  1.00  0.00    -0.384 OA
HETATM   34  C   UNL     1      -5.151   6.637 -28.326  1.00  0.00     0.168 C 
HETATM   35  C   UNL     1      -6.513   7.123 -27.884  1.00  0.00     0.029 C 
HETATM   36  C   UNL     1      -7.385   5.937 -28.213  1.00  0.00     0.036 C 
ENDBRANCH  31  32
ENDBRANCH   5  31
TORSDOF 6
ENDMDL
MODEL 10
REMARK VINA RESULT:      -8.9      3.639      8.499
REMARK  6 active torsions:
REMARK  status: ('A' for Active; 'I' for Inactive)
REMARK    1  A    between atoms: C_4  and  C_5 
REMARK    2  A    between atoms: C_5  and  N_6 
REMARK    3  A    between atoms: C_10  and  C_11 
REMARK    4  A    between atoms: C_11  and  C_12 
REMARK    5  A    between atoms: N_21  and  C_22 
REMARK    6  A    between atoms: C_22  and  C_23 
ROOT
HETATM    1  C   UNL     1      -3.108   6.474 -31.324  1.00  0.00     0.164 A 
HETATM    2  N   UNL     1      -3.805   5.699 -30.307  1.00  0.00    -0.319 N 
HETATM    3  C   UNL     1      -4.537   6.495 -29.457  1.00  0.00     0.326 A 
HETATM    4  O   UNL     1      -5.136   6.052 -28.494  1.00  0.00    -0.247 OA
HETATM    5  N   UNL     1      -4.497   7.772 -29.903  1.00  0.00    -0.265 N 
HETATM    6  C   UNL     1      -3.637   7.880 -30.962  1.00  0.00     0.263 A 
HETATM    7  O   UNL     1      -3.379   8.908 -31.574  1.00  0.00    -0.270 OA
HETATM    8  H   UNL     1      -3.307   4.938 -29.849  1.00  0.00     0.166 HD
ENDROOT
BRANCH   1   9
HETATM    9  C   UNL     1      -3.549   6.088 -32.783  1.00  0.00     0.033 C 
HETATM   10  C   UNL     1      -5.025   5.675 -32.939  1.00  0.00     0.036 C 
HETATM   11  C   UNL     1      -5.362   4.320 -32.338  1.00  0.00     0.235 C 
HETATM   12  N   UNL     1      -4.421   3.235 -32.802  1.00  0.00    -0.067 N 
HETATM   13  H   UNL     1      -4.718   3.001 -33.757  1.00  0.00     0.280 HD
HETATM   14  C   UNL     1      -2.952   3.595 -32.861  1.00  0.00     0.235 C 
HETATM   15  C   UNL     1      -2.725   4.976 -33.458  1.00  0.00     0.036 C 
BRANCH  12  16
HETATM   16  C   UNL     1      -4.583   1.950 -31.981  1.00  0.00     0.274 C 
BRANCH  16  17
HETATM   17  C   UNL     1      -4.999   0.733 -32.769  1.00  0.00    -0.026 A 
HETATM   18  C   UNL     1      -6.126   0.843 -33.614  1.00  0.00     0.016 A 
HETATM   19  C   UNL     1      -6.547  -0.224 -34.412  1.00  0.00    -0.061 A 
HETATM   20  C   UNL     1      -7.731  -0.090 -35.326  1.00  0.00     0.048 C 
HETATM   21  C   UNL     1      -5.837  -1.423 -34.359  1.00  0.00     0.007 A 
HETATM   22  C   UNL     1      -4.733  -1.555 -33.515  1.00  0.00     0.008 A 
HETATM   23  C   UNL     1      -4.291  -0.484 -32.722  1.00  0.00    -0.054 A 
HETATM   24  C   UNL     1      -3.133  -0.715 -31.790  1.00  0.00     0.049 C 
ENDBRANCH  16  17
ENDBRANCH  12  16
ENDBRANCH   1   9
BRANCH   1  25
HETATM   25  C   UNL     1      -1.607   6.312 -31.114  1.00  0.00     0.072 A 
HETATM   26  N   UNL     1      -1.249   5.255 -30.322  1.00  0.00    -0.262 NA
HETATM   27  C   UNL     1       0.073   5.058 -30.101  1.00  0.00     0.117 A 
HETATM   28  C   UNL     1       1.068   5.855 -30.633  1.00  0.00     0.019 A 
HETATM   29  C   UNL     1       0.691   6.917 -31.445  1.00  0.00     0.003 A 
HETATM   30  C   UNL     1      -0.659   7.147 -31.700  1.00  0.00     0.030 A 
ENDBRANCH   1  25
BRANCH   5  31
HETATM   31  C   UNL     1      -5.270   8.864 -29.343  1.00  0.00     0.168 C 
BRANCH  31  32
HETATM   32  C   UNL     1      -4.647   9.508 -28.104  1.00  0.00     0.140 C 
HETATM   33  O   UNL     1      -3.260   9.124 -28.030  1.00  0.00    -0.384 OA
HETATM   34  C   UNL     1      -2.968   8.716 -26.686  1.00  0.00     0.168 C 
HETATM   35  C   UNL     1      -4.123   9.195 -25.834  1.00  0.00     0.029 C 
HETATM   36  C   UNL     1      -5.282   9.076 -26.791  1.00  0.00     0.036 C 
ENDBRANCH  31  32
ENDBRANCH   5  31
TORSDOF 6
ENDMDL
