MODEL 1
REMARK VINA RESULT:     -10.3      0.000      0.000
REMARK  5 active torsions:
REMARK  status: ('A' for Active; 'I' for Inactive)
REMARK    1  A    between atoms: C_4  and  C_5 
REMARK    2  A    between atoms: C_6  and  N_7 
REMARK    3  A    between atoms: C_9  and  C_10 
REMARK       I    between atoms: C_10  and  N_11 
REMARK    4  A    between atoms: N_11  and  C_12 
REMARK    5  A    between atoms: C_12  and  C_13 
ROOT
HETATM    1  C   UNL     1      -5.498  -0.369 -32.961  1.00  0.00     0.019 A 
HETATM    2  C   UNL     1      -4.640   0.353 -32.192  1.00  0.00     0.111 A 
HETATM    3  C   UNL     1      -3.319  -0.279 -31.765  1.00  0.00     0.273 A 
HETATM    4  O   UNL     1      -2.513   0.297 -31.035  1.00  0.00    -0.266 OA
HETATM    5  N   UNL     1      -3.044  -1.541 -32.203  1.00  0.00    -0.321 N 
HETATM    6  C   UNL     1      -3.905  -2.293 -32.995  1.00  0.00     0.046 A 
HETATM    7  C   UNL     1      -5.131  -1.746 -33.391  1.00  0.00     0.006 A 
HETATM    8  C   UNL     1      -3.524  -3.582 -33.376  1.00  0.00     0.032 A 
HETATM    9  C   UNL     1      -4.378  -4.348 -34.167  1.00  0.00     0.026 A 
HETATM   10  C   UNL     1      -5.600  -3.818 -34.573  1.00  0.00     0.035 A 
HETATM   11 CL   UNL     1      -6.655  -4.764 -35.550  1.00  0.00    -0.084 Cl
HETATM   12  C   UNL     1      -5.976  -2.528 -34.194  1.00  0.00     0.038 A 
HETATM   13  H   UNL     1      -2.158  -1.920 -31.896  1.00  0.00     0.169 HD
ENDROOT
BRANCH   2  14
HETATM   14  N   UNL     1      -4.911   1.663 -31.726  1.00  0.00    -0.375 N 
HETATM   15  C   UNL     1      -4.265   2.811 -32.400  1.00  0.00     0.137 C 
HETATM   16  C   UNL     1      -5.065   4.088 -32.140  1.00  0.00     0.096 C 
HETATM   17  C   UNL     1      -5.249   4.331 -30.637  1.00  0.00     0.017 C 
HETATM   18  C   UNL     1      -5.844   3.096 -29.964  1.00  0.00     0.021 C 
HETATM   19  C   UNL     1      -5.013   1.851 -30.266  1.00  0.00     0.123 C 
BRANCH  16  20
HETATM   20  C   UNL     1      -4.408   5.270 -32.837  1.00  0.00     0.223 C 
HETATM   21  N   UNL     1      -3.337   4.972 -33.647  1.00  0.00    -0.358 N 
HETATM   22  H   UNL     1      -3.178   4.012 -33.938  1.00  0.00     0.162 HD
HETATM   23  O   UNL     1      -4.821   6.417 -32.685  1.00  0.00    -0.273 OA
BRANCH  21  24
HETATM   24  C   UNL     1      -2.719   5.982 -34.490  1.00  0.00     0.154 C 
BRANCH  24  25
HETATM   25  C   UNL     1      -1.511   6.607 -33.796  1.00  0.00     0.139 C 
HETATM   26  O   UNL     1      -1.865   7.900 -33.254  1.00  0.00    -0.384 OA
HETATM   27  C   UNL     1      -1.282   8.018 -31.948  1.00  0.00     0.168 C 
HETATM   28  C   UNL     1      -0.336   6.847 -31.779  1.00  0.00     0.029 C 
HETATM   29  C   UNL     1      -0.996   5.787 -32.626  1.00  0.00     0.035 C 
ENDBRANCH  24  25
ENDBRANCH  21  24
ENDBRANCH  16  20
ENDBRANCH   2  14
BRANCH   1  30
HETATM   30  C   UNL     1      -6.780   0.276 -33.352  1.00  0.00    -0.023 A 
HETATM   31  C   UNL     1      -6.869   1.014 -34.540  1.00  0.00     0.012 A 
HETATM   32  C   UNL     1      -8.082   1.591 -34.920  1.00  0.00     0.001 A 
HETATM   33  C   UNL     1      -9.211   1.433 -34.118  1.00  0.00     0.000 A 
HETATM   34  C   UNL     1      -9.132   0.700 -32.934  1.00  0.00     0.001 A 
HETATM   35  C   UNL     1      -7.920   0.122 -32.551  1.00  0.00     0.012 A 
ENDBRANCH   1  30
TORSDOF 5
ENDMDL
MODEL 2
REMARK VINA RESULT:     -10.2      1.150      1.386
REMARK  5 active torsions:
REMARK  status: ('A' for Active; 'I' for Inactive)
REMARK    1  A    between atoms: C_4  and  C_5 
REMARK    2  A    between atoms: C_6  and  N_7 
REMARK    3  A    between atoms: C_9  and  C_10 
REMARK       I    between atoms: C_10  and  N_11 
REMARK    4  A    between atoms: N_11  and  C_12 
REMARK    5  A    between atoms: C_12  and  C_13 
ROOT
HETATM    1  C   UNL     1      -5.371  -0.473 -32.928  1.00  0.00     0.019 A 
HETATM    2  C   UNL     1      -4.491   0.186 -32.129  1.00  0.00     0.111 A 
HETATM    3  C   UNL     1      -3.209  -0.522 -31.700  1.00  0.00     0.273 A 
HETATM    4  O   UNL     1      -2.387  -0.005 -30.944  1.00  0.00    -0.266 OA
HETATM    5  N   UNL     1      -2.990  -1.785 -32.166  1.00  0.00    -0.321 N 
HETATM    6  C   UNL     1      -3.875  -2.472 -32.990  1.00  0.00     0.046 A 
HETATM    7  C   UNL     1      -5.066  -1.855 -33.388  1.00  0.00     0.006 A 
HETATM    8  C   UNL     1      -3.553  -3.769 -33.398  1.00  0.00     0.032 A 
HETATM    9  C   UNL     1      -4.432  -4.472 -34.221  1.00  0.00     0.026 A 
HETATM   10  C   UNL     1      -5.619  -3.871 -34.630  1.00  0.00     0.035 A 
HETATM   11 CL   UNL     1      -6.705  -4.738 -35.645  1.00  0.00    -0.084 Cl
HETATM   12  C   UNL     1      -5.937  -2.573 -34.223  1.00  0.00     0.038 A 
HETATM   13  H   UNL     1      -2.130  -2.215 -31.857  1.00  0.00     0.169 HD
ENDROOT
BRANCH   2  14
HETATM   14  N   UNL     1      -4.703   1.496 -31.633  1.00  0.00    -0.375 N 
HETATM   15  C   UNL     1      -3.715   2.551 -31.951  1.00  0.00     0.137 C 
HETATM   16  C   UNL     1      -4.363   3.931 -31.816  1.00  0.00     0.096 C 
HETATM   17  C   UNL     1      -4.982   4.120 -30.425  1.00  0.00     0.017 C 
HETATM   18  C   UNL     1      -5.934   2.970 -30.102  1.00  0.00     0.021 C 
HETATM   19  C   UNL     1      -5.240   1.619 -30.264  1.00  0.00     0.123 C 
BRANCH  16  20
HETATM   20  C   UNL     1      -3.351   5.018 -32.148  1.00  0.00     0.223 C 
HETATM   21  N   UNL     1      -2.029   4.683 -31.979  1.00  0.00    -0.358 N 
HETATM   22  H   UNL     1      -1.765   3.707 -31.884  1.00  0.00     0.162 HD
HETATM   23  O   UNL     1      -3.706   6.124 -32.549  1.00  0.00    -0.273 OA
BRANCH  21  24
HETATM   24  C   UNL     1      -0.961   5.571 -32.407  1.00  0.00     0.154 C 
BRANCH  24  25
HETATM   25  C   UNL     1      -0.194   6.120 -31.206  1.00  0.00     0.139 C 
HETATM   26  O   UNL     1      -1.045   7.000 -30.436  1.00  0.00    -0.384 OA
HETATM   27  C   UNL     1      -0.833   6.726 -29.042  1.00  0.00     0.168 C 
HETATM   28  C   UNL     1       0.367   5.808 -28.949  1.00  0.00     0.029 C 
HETATM   29  C   UNL     1       0.276   5.042 -30.245  1.00  0.00     0.035 C 
ENDBRANCH  24  25
ENDBRANCH  21  24
ENDBRANCH  16  20
ENDBRANCH   2  14
BRANCH   1  30
HETATM   30  C   UNL     1      -6.613   0.245 -33.321  1.00  0.00    -0.023 A 
HETATM   31  C   UNL     1      -6.634   1.055 -34.464  1.00  0.00     0.012 A 
HETATM   32  C   UNL     1      -7.810   1.701 -34.847  1.00  0.00     0.001 A 
HETATM   33  C   UNL     1      -8.972   1.542 -34.092  1.00  0.00     0.000 A 
HETATM   34  C   UNL     1      -8.960   0.738 -32.953  1.00  0.00     0.001 A 
HETATM   35  C   UNL     1      -7.785   0.090 -32.567  1.00  0.00     0.012 A 
ENDBRANCH   1  30
TORSDOF 5
ENDMDL
MODEL 3
REMARK VINA RESULT:      -8.8      3.089      5.055
REMARK  5 active torsions:
REMARK  status: ('A' for Active; 'I' for Inactive)
REMARK    1  A    between atoms: C_4  and  C_5 
REMARK    2  A    between atoms: C_6  and  N_7 
REMARK    3  A    between atoms: C_9  and  C_10 
REMARK       I    between atoms: C_10  and  N_11 
REMARK    4  A    between atoms: N_11  and  C_12 
REMARK    5  A    between atoms: C_12  and  C_13 
ROOT
HETATM    1  C   UNL     1      -5.082   3.520 -31.868  1.00  0.00     0.019 A 
HETATM    2  C   UNL     1      -5.645   4.369 -30.968  1.00  0.00     0.111 A 
HETATM    3  C   UNL     1      -6.538   3.796 -29.871  1.00  0.00     0.273 A 
HETATM    4  O   UNL     1      -7.114   4.506 -29.047  1.00  0.00    -0.266 OA
HETATM    5  N   UNL     1      -6.708   2.444 -29.826  1.00  0.00    -0.321 N 
HETATM    6  C   UNL     1      -6.135   1.560 -30.734  1.00  0.00     0.046 A 
HETATM    7  C   UNL     1      -5.324   2.055 -31.761  1.00  0.00     0.006 A 
HETATM    8  C   UNL     1      -6.388   0.192 -30.600  1.00  0.00     0.032 A 
HETATM    9  C   UNL     1      -5.824  -0.706 -31.504  1.00  0.00     0.026 A 
HETATM   10  C   UNL     1      -5.011  -0.230 -32.529  1.00  0.00     0.035 A 
HETATM   11 CL   UNL     1      -4.314  -1.338 -33.646  1.00  0.00    -0.084 Cl
HETATM   12  C   UNL     1      -4.757   1.137 -32.659  1.00  0.00     0.038 A 
HETATM   13  H   UNL     1      -7.306   2.109 -29.084  1.00  0.00     0.169 HD
ENDROOT
BRANCH   2  14
HETATM   14  N   UNL     1      -5.482   5.776 -31.001  1.00  0.00    -0.375 N 
HETATM   15  C   UNL     1      -4.313   6.377 -30.320  1.00  0.00     0.137 C 
HETATM   16  C   UNL     1      -4.021   7.759 -30.907  1.00  0.00     0.096 C 
HETATM   17  C   UNL     1      -5.257   8.664 -30.838  1.00  0.00     0.017 C 
HETATM   18  C   UNL     1      -6.460   7.976 -31.480  1.00  0.00     0.021 C 
HETATM   19  C   UNL     1      -6.699   6.598 -30.865  1.00  0.00     0.123 C 
BRANCH  16  20
HETATM   20  C   UNL     1      -2.815   8.378 -30.214  1.00  0.00     0.223 C 
HETATM   21  N   UNL     1      -2.023   7.513 -29.498  1.00  0.00    -0.358 N 
HETATM   22  H   UNL     1      -2.111   6.512 -29.643  1.00  0.00     0.162 HD
HETATM   23  O   UNL     1      -2.571   9.578 -30.302  1.00  0.00    -0.273 OA
BRANCH  21  24
HETATM   24  C   UNL     1      -0.761   7.943 -28.920  1.00  0.00     0.154 C 
BRANCH  24  25
HETATM   25  C   UNL     1       0.395   7.086 -29.433  1.00  0.00     0.139 C 
HETATM   26  O   UNL     1       0.499   5.875 -28.650  1.00  0.00    -0.384 OA
HETATM   27  C   UNL     1       0.747   4.779 -29.544  1.00  0.00     0.168 C 
HETATM   28  C   UNL     1       1.043   5.376 -30.903  1.00  0.00     0.029 C 
HETATM   29  C   UNL     1       0.222   6.641 -30.875  1.00  0.00     0.035 C 
ENDBRANCH  24  25
ENDBRANCH  21  24
ENDBRANCH  16  20
ENDBRANCH   2  14
BRANCH   1  30
HETATM   30  C   UNL     1      -4.224   4.113 -32.929  1.00  0.00    -0.023 A 
HETATM   31  C   UNL     1      -2.830   4.131 -32.786  1.00  0.00     0.012 A 
HETATM   32  C   UNL     1      -2.026   4.659 -33.797  1.00  0.00     0.001 A 
HETATM   33  C   UNL     1      -2.609   5.171 -34.956  1.00  0.00     0.000 A 
HETATM   34  C   UNL     1      -3.995   5.158 -35.106  1.00  0.00     0.001 A 
HETATM   35  C   UNL     1      -4.802   4.630 -34.096  1.00  0.00     0.012 A 
ENDBRANCH   1  30
TORSDOF 5
ENDMDL
MODEL 4
REMARK VINA RESULT:      -8.6      3.852      8.635
REMARK  5 active torsions:
REMARK  status: ('A' for Active; 'I' for Inactive)
REMARK    1  A    between atoms: C_4  and  C_5 
REMARK    2  A    between atoms: C_6  and  N_7 
REMARK    3  A    between atoms: C_9  and  C_10 
REMARK       I    between atoms: C_10  and  N_11 
REMARK    4  A    between atoms: N_11  and  C_12 
REMARK    5  A    between atoms: C_12  and  C_13 
ROOT
HETATM    1  C   UNL     1      -3.424   6.019 -30.752  1.00  0.00     0.019 A 
HETATM    2  C   UNL     1      -3.490   5.177 -31.817  1.00  0.00     0.111 A 
HETATM    3  C   UNL     1      -2.200   4.786 -32.531  1.00  0.00     0.273 A 
HETATM    4  O   UNL     1      -2.186   4.063 -33.527  1.00  0.00    -0.266 OA
HETATM    5  N   UNL     1      -1.025   5.280 -32.044  1.00  0.00    -0.321 N 
HETATM    6  C   UNL     1      -0.937   6.136 -30.952  1.00  0.00     0.046 A 
HETATM    7  C   UNL     1      -2.105   6.525 -30.286  1.00  0.00     0.006 A 
HETATM    8  C   UNL     1       0.321   6.591 -30.547  1.00  0.00     0.032 A 
HETATM    9  C   UNL     1       0.424   7.452 -29.456  1.00  0.00     0.026 A 
HETATM   10  C   UNL     1      -0.727   7.846 -28.779  1.00  0.00     0.035 A 
HETATM   11 CL   UNL     1      -0.599   8.910 -27.433  1.00  0.00    -0.084 Cl
HETATM   12  C   UNL     1      -1.982   7.387 -29.184  1.00  0.00     0.038 A 
HETATM   13  H   UNL     1      -0.196   4.994 -32.547  1.00  0.00     0.169 HD
ENDROOT
BRANCH   2  14
HETATM   14  N   UNL     1      -4.701   4.657 -32.338  1.00  0.00    -0.375 N 
HETATM   15  C   UNL     1      -5.001   3.220 -32.153  1.00  0.00     0.137 C 
HETATM   16  C   UNL     1      -6.507   2.981 -32.276  1.00  0.00     0.096 C 
HETATM   17  C   UNL     1      -7.047   3.516 -33.608  1.00  0.00     0.017 C 
HETATM   18  C   UNL     1      -6.649   4.979 -33.798  1.00  0.00     0.021 C 
HETATM   19  C   UNL     1      -5.139   5.161 -33.654  1.00  0.00     0.123 C 
BRANCH  16  20
HETATM   20  C   UNL     1      -6.820   1.504 -32.080  1.00  0.00     0.223 C 
HETATM   21  N   UNL     1      -6.250   0.643 -32.987  1.00  0.00    -0.358 N 
HETATM   22  H   UNL     1      -5.485   0.962 -33.573  1.00  0.00     0.162 HD
HETATM   23  O   UNL     1      -7.535   1.117 -31.160  1.00  0.00    -0.273 OA
BRANCH  21  24
HETATM   24  C   UNL     1      -6.339  -0.799 -32.822  1.00  0.00     0.154 C 
BRANCH  24  25
HETATM   25  C   UNL     1      -5.852  -1.522 -34.076  1.00  0.00     0.139 C 
HETATM   26  O   UNL     1      -4.543  -2.091 -33.842  1.00  0.00    -0.384 OA
HETATM   27  C   UNL     1      -4.514  -3.407 -34.415  1.00  0.00     0.168 C 
HETATM   28  C   UNL     1      -5.775  -3.558 -35.239  1.00  0.00     0.029 C 
HETATM   29  C   UNL     1      -6.745  -2.678 -34.491  1.00  0.00     0.035 C 
ENDBRANCH  24  25
ENDBRANCH  21  24
ENDBRANCH  16  20
ENDBRANCH   2  14
BRANCH   1  30
HETATM   30  C   UNL     1      -4.702   6.386 -30.085  1.00  0.00    -0.023 A 
HETATM   31  C   UNL     1      -5.216   5.592 -29.051  1.00  0.00     0.012 A 
HETATM   32  C   UNL     1      -6.399   5.957 -28.406  1.00  0.00     0.001 A 
HETATM   33  C   UNL     1      -7.074   7.115 -28.789  1.00  0.00     0.000 A 
HETATM   34  C   UNL     1      -6.570   7.911 -29.818  1.00  0.00     0.001 A 
HETATM   35  C   UNL     1      -5.387   7.549 -30.464  1.00  0.00     0.012 A 
ENDBRANCH   1  30
TORSDOF 5
ENDMDL
MODEL 5
REMARK VINA RESULT:      -8.5      3.534      5.616
REMARK  5 active torsions:
REMARK  status: ('A' for Active; 'I' for Inactive)
REMARK    1  A    between atoms: C_4  and  C_5 
REMARK    2  A    between atoms: C_6  and  N_7 
REMARK    3  A    between atoms: C_9  and  C_10 
REMARK       I    between atoms: C_10  and  N_11 
REMARK    4  A    between atoms: N_11  and  C_12 
REMARK    5  A    between atoms: C_12  and  C_13 
ROOT
HETATM    1  C   UNL     1      -9.214   2.881 -32.826  1.00  0.00     0.019 A 
HETATM    2  C   UNL     1      -8.183   2.241 -33.440  1.00  0.00     0.111 A 
HETATM    3  C   UNL     1      -8.490   1.244 -34.553  1.00  0.00     0.273 A 
HETATM    4  O   UNL     1      -7.612   0.598 -35.124  1.00  0.00    -0.266 OA
HETATM    5  N   UNL     1      -9.794   1.061 -34.905  1.00  0.00    -0.321 N 
HETATM    6  C   UNL     1     -10.861   1.711 -34.295  1.00  0.00     0.046 A 
HETATM    7  C   UNL     1     -10.614   2.620 -33.260  1.00  0.00     0.006 A 
HETATM    8  C   UNL     1     -12.161   1.436 -34.730  1.00  0.00     0.032 A 
HETATM    9  C   UNL     1     -13.240   2.077 -34.125  1.00  0.00     0.026 A 
HETATM   10  C   UNL     1     -13.011   2.987 -33.096  1.00  0.00     0.035 A 
HETATM   11 CL   UNL     1     -14.344   3.779 -32.349  1.00  0.00    -0.084 Cl
HETATM   12  C   UNL     1     -11.712   3.262 -32.666  1.00  0.00     0.038 A 
HETATM   13  H   UNL     1      -9.951   0.393 -35.647  1.00  0.00     0.169 HD
ENDROOT
BRANCH   2  14
HETATM   14  N   UNL     1      -6.823   2.417 -33.085  1.00  0.00    -0.375 N 
HETATM   15  C   UNL     1      -5.990   3.347 -33.880  1.00  0.00     0.137 C 
HETATM   16  C   UNL     1      -4.785   3.805 -33.056  1.00  0.00     0.096 C 
HETATM   17  C   UNL     1      -3.979   2.607 -32.539  1.00  0.00     0.017 C 
HETATM   18  C   UNL     1      -4.888   1.632 -31.794  1.00  0.00     0.021 C 
HETATM   19  C   UNL     1      -6.078   1.218 -32.657  1.00  0.00     0.123 C 
BRANCH  16  20
HETATM   20  C   UNL     1      -3.930   4.767 -33.868  1.00  0.00     0.223 C 
HETATM   21  N   UNL     1      -2.571   4.580 -33.785  1.00  0.00    -0.358 N 
HETATM   22  H   UNL     1      -2.204   3.711 -33.411  1.00  0.00     0.162 HD
HETATM   23  O   UNL     1      -4.435   5.649 -34.558  1.00  0.00    -0.273 OA
BRANCH  21  24
HETATM   24  C   UNL     1      -1.651   5.325 -34.629  1.00  0.00     0.154 C 
BRANCH  24  25
HETATM   25  C   UNL     1      -0.937   6.414 -33.829  1.00  0.00     0.139 C 
HETATM   26  O   UNL     1      -1.737   7.618 -33.811  1.00  0.00    -0.384 OA
HETATM   27  C   UNL     1      -1.697   8.167 -32.485  1.00  0.00     0.168 C 
HETATM   28  C   UNL     1      -0.641   7.398 -31.720  1.00  0.00     0.029 C 
HETATM   29  C   UNL     1      -0.706   6.041 -32.376  1.00  0.00     0.035 C 
ENDBRANCH  24  25
ENDBRANCH  21  24
ENDBRANCH  16  20
ENDBRANCH   2  14
BRANCH   1  30
HETATM   30  C   UNL     1      -8.880   3.840 -31.740  1.00  0.00    -0.023 A 
HETATM   31  C   UNL     1      -8.856   5.218 -31.993  1.00  0.00     0.012 A 
HETATM   32  C   UNL     1      -8.573   6.117 -30.963  1.00  0.00     0.001 A 
HETATM   33  C   UNL     1      -8.313   5.645 -29.677  1.00  0.00     0.000 A 
HETATM   34  C   UNL     1      -8.334   4.276 -29.417  1.00  0.00     0.001 A 
HETATM   35  C   UNL     1      -8.617   3.374 -30.444  1.00  0.00     0.012 A 
ENDBRANCH   1  30
TORSDOF 5
ENDMDL
MODEL 6
REMARK VINA RESULT:      -8.5      3.555      7.964
REMARK  5 active torsions:
REMARK  status: ('A' for Active; 'I' for Inactive)
REMARK    1  A    between atoms: C_4  and  C_5 
REMARK    2  A    between atoms: C_6  and  N_7 
REMARK    3  A    between atoms: C_9  and  C_10 
REMARK       I    between atoms: C_10  and  N_11 
REMARK    4  A    between atoms: N_11  and  C_12 
REMARK    5  A    between atoms: C_12  and  C_13 
ROOT
HETATM    1  C   UNL     1      -8.096   3.622 -33.309  1.00  0.00     0.019 A 
HETATM    2  C   UNL     1      -8.068   2.399 -32.716  1.00  0.00     0.111 A 
HETATM    3  C   UNL     1      -9.317   1.525 -32.769  1.00  0.00     0.273 A 
HETATM    4  O   UNL     1      -9.380   0.425 -32.219  1.00  0.00    -0.266 OA
HETATM    5  N   UNL     1     -10.404   2.002 -33.441  1.00  0.00    -0.321 N 
HETATM    6  C   UNL     1     -10.448   3.246 -34.059  1.00  0.00     0.046 A 
HETATM    7  C   UNL     1      -9.324   4.078 -34.015  1.00  0.00     0.006 A 
HETATM    8  C   UNL     1     -11.621   3.639 -34.710  1.00  0.00     0.032 A 
HETATM    9  C   UNL     1     -11.682   4.885 -35.331  1.00  0.00     0.026 A 
HETATM   10  C   UNL     1     -10.570   5.723 -35.301  1.00  0.00     0.035 A 
HETATM   11 CL   UNL     1     -10.645   7.262 -36.068  1.00  0.00    -0.084 Cl
HETATM   12  C   UNL     1      -9.398   5.327 -34.653  1.00  0.00     0.038 A 
HETATM   13  H   UNL     1     -11.208   1.390 -33.450  1.00  0.00     0.169 HD
ENDROOT
BRANCH   2  14
HETATM   14  N   UNL     1      -6.950   1.889 -32.012  1.00  0.00    -0.375 N 
HETATM   15  C   UNL     1      -6.158   0.796 -32.621  1.00  0.00     0.137 C 
HETATM   16  C   UNL     1      -4.754   0.769 -32.015  1.00  0.00     0.096 C 
HETATM   17  C   UNL     1      -4.811   0.657 -30.486  1.00  0.00     0.017 C 
HETATM   18  C   UNL     1      -5.701   1.753 -29.902  1.00  0.00     0.021 C 
HETATM   19  C   UNL     1      -7.084   1.742 -30.550  1.00  0.00     0.123 C 
BRANCH  16  20
HETATM   20  C   UNL     1      -3.935  -0.350 -32.643  1.00  0.00     0.223 C 
HETATM   21  N   UNL     1      -4.373  -1.629 -32.395  1.00  0.00    -0.358 N 
HETATM   22  H   UNL     1      -5.310  -1.779 -32.035  1.00  0.00     0.162 HD
HETATM   23  O   UNL     1      -2.947  -0.112 -33.333  1.00  0.00    -0.273 OA
BRANCH  21  24
HETATM   24  C   UNL     1      -3.778  -2.776 -33.060  1.00  0.00     0.154 C 
BRANCH  24  25
HETATM   25  C   UNL     1      -4.564  -3.148 -34.316  1.00  0.00     0.139 C 
HETATM   26  O   UNL     1      -4.671  -4.586 -34.425  1.00  0.00    -0.384 OA
HETATM   27  C   UNL     1      -6.008  -4.909 -34.835  1.00  0.00     0.168 C 
HETATM   28  C   UNL     1      -6.679  -3.608 -35.220  1.00  0.00     0.029 C 
HETATM   29  C   UNL     1      -5.987  -2.619 -34.315  1.00  0.00     0.035 C 
ENDBRANCH  24  25
ENDBRANCH  21  24
ENDBRANCH  16  20
ENDBRANCH   2  14
BRANCH   1  30
HETATM   30  C   UNL     1      -6.863   4.452 -33.232  1.00  0.00    -0.023 A 
HETATM   31  C   UNL     1      -6.691   5.372 -32.189  1.00  0.00     0.012 A 
HETATM   32  C   UNL     1      -5.519   6.125 -32.103  1.00  0.00     0.001 A 
HETATM   33  C   UNL     1      -4.513   5.963 -33.055  1.00  0.00     0.000 A 
HETATM   34  C   UNL     1      -4.676   5.050 -34.096  1.00  0.00     0.001 A 
HETATM   35  C   UNL     1      -5.847   4.295 -34.185  1.00  0.00     0.012 A 
ENDBRANCH   1  30
TORSDOF 5
ENDMDL
MODEL 7
REMARK VINA RESULT:      -8.4      4.575      9.441
REMARK  5 active torsions:
REMARK  status: ('A' for Active; 'I' for Inactive)
REMARK    1  A    between atoms: C_4  and  C_5 
REMARK    2  A    between atoms: C_6  and  N_7 
REMARK    3  A    between atoms: C_9  and  C_10 
REMARK       I    between atoms: C_10  and  N_11 
REMARK    4  A    between atoms: N_11  and  C_12 
REMARK    5  A    between atoms: C_12  and  C_13 
ROOT
HETATM    1  C   UNL     1      -1.561   7.176 -29.501  1.00  0.00     0.019 A 
HETATM    2  C   UNL     1      -1.147   6.178 -30.327  1.00  0.00     0.111 A 
HETATM    3  C   UNL     1       0.148   5.441 -30.004  1.00  0.00     0.273 A 
HETATM    4  O   UNL     1       0.606   4.557 -30.727  1.00  0.00    -0.266 OA
HETATM    5  N   UNL     1       0.823   5.800 -28.874  1.00  0.00    -0.321 N 
HETATM    6  C   UNL     1       0.413   6.812 -28.014  1.00  0.00     0.046 A 
HETATM    7  C   UNL     1      -0.764   7.517 -28.292  1.00  0.00     0.006 A 
HETATM    8  C   UNL     1       1.191   7.104 -26.890  1.00  0.00     0.032 A 
HETATM    9  C   UNL     1       0.794   8.118 -26.021  1.00  0.00     0.026 A 
HETATM   10  C   UNL     1      -0.376   8.827 -26.280  1.00  0.00     0.035 A 
HETATM   11 CL   UNL     1      -0.867  10.079 -25.207  1.00  0.00    -0.084 Cl
HETATM   12  C   UNL     1      -1.154   8.531 -27.402  1.00  0.00     0.038 A 
HETATM   13  H   UNL     1       1.675   5.285 -28.700  1.00  0.00     0.169 HD
ENDROOT
BRANCH   2  14
HETATM   14  N   UNL     1      -1.834   5.794 -31.505  1.00  0.00    -0.375 N 
HETATM   15  C   UNL     1      -2.532   4.490 -31.534  1.00  0.00     0.137 C 
HETATM   16  C   UNL     1      -3.616   4.501 -32.613  1.00  0.00     0.096 C 
HETATM   17  C   UNL     1      -3.033   4.874 -33.982  1.00  0.00     0.017 C 
HETATM   18  C   UNL     1      -2.254   6.184 -33.893  1.00  0.00     0.021 C 
HETATM   19  C   UNL     1      -1.195   6.121 -32.794  1.00  0.00     0.123 C 
BRANCH  16  20
HETATM   20  C   UNL     1      -4.341   3.163 -32.642  1.00  0.00     0.223 C 
HETATM   21  N   UNL     1      -3.818   2.178 -31.839  1.00  0.00    -0.358 N 
HETATM   22  H   UNL     1      -3.158   2.422 -31.107  1.00  0.00     0.162 HD
HETATM   23  O   UNL     1      -5.337   2.988 -33.339  1.00  0.00    -0.273 OA
BRANCH  21  24
HETATM   24  C   UNL     1      -4.501   0.909 -31.653  1.00  0.00     0.154 C 
BRANCH  24  25
HETATM   25  C   UNL     1      -3.877  -0.180 -32.525  1.00  0.00     0.139 C 
HETATM   26  O   UNL     1      -3.090  -1.076 -31.709  1.00  0.00    -0.384 OA
HETATM   27  C   UNL     1      -3.341  -2.421 -32.144  1.00  0.00     0.168 C 
HETATM   28  C   UNL     1      -4.132  -2.328 -33.432  1.00  0.00     0.029 C 
HETATM   29  C   UNL     1      -4.903  -1.046 -33.234  1.00  0.00     0.035 C 
ENDBRANCH  24  25
ENDBRANCH  21  24
ENDBRANCH  16  20
ENDBRANCH   2  14
BRANCH   1  30
HETATM   30  C   UNL     1      -2.824   7.879 -29.850  1.00  0.00    -0.023 A 
HETATM   31  C   UNL     1      -4.063   7.340 -29.476  1.00  0.00     0.012 A 
HETATM   32  C   UNL     1      -5.244   8.019 -29.778  1.00  0.00     0.001 A 
HETATM   33  C   UNL     1      -5.197   9.238 -30.453  1.00  0.00     0.000 A 
HETATM   34  C   UNL     1      -3.969   9.781 -30.830  1.00  0.00     0.001 A 
HETATM   35  C   UNL     1      -2.785   9.105 -30.529  1.00  0.00     0.012 A 
ENDBRANCH   1  30
TORSDOF 5
ENDMDL
MODEL 8
REMARK VINA RESULT:      -8.4      2.525      4.544
REMARK  5 active torsions:
REMARK  status: ('A' for Active; 'I' for Inactive)
REMARK    1  A    between atoms: C_4  and  C_5 
REMARK    2  A    between atoms: C_6  and  N_7 
REMARK    3  A    between atoms: C_9  and  C_10 
REMARK       I    between atoms: C_10  and  N_11 
REMARK    4  A    between atoms: N_11  and  C_12 
REMARK    5  A    between atoms: C_12  and  C_13 
ROOT
HETATM    1  C   UNL     1      -5.343  -0.450 -32.961  1.00  0.00     0.019 A 
HETATM    2  C   UNL     1      -4.477   0.217 -32.152  1.00  0.00     0.111 A 
HETATM    3  C   UNL     1      -3.211  -0.491 -31.681  1.00  0.00     0.273 A 
HETATM    4  O   UNL     1      -2.403   0.034 -30.916  1.00  0.00    -0.266 OA
HETATM    5  N   UNL     1      -2.988  -1.762 -32.122  1.00  0.00    -0.321 N 
HETATM    6  C   UNL     1      -3.858  -2.458 -32.955  1.00  0.00     0.046 A 
HETATM    7  C   UNL     1      -5.036  -1.841 -33.391  1.00  0.00     0.006 A 
HETATM    8  C   UNL     1      -3.534  -3.764 -33.334  1.00  0.00     0.032 A 
HETATM    9  C   UNL     1      -4.397  -4.474 -34.165  1.00  0.00     0.026 A 
HETATM   10  C   UNL     1      -5.572  -3.874 -34.612  1.00  0.00     0.035 A 
HETATM   11 CL   UNL     1      -6.638  -4.752 -35.638  1.00  0.00    -0.084 Cl
HETATM   12  C   UNL     1      -5.891  -2.568 -34.234  1.00  0.00     0.038 A 
HETATM   13  H   UNL     1      -2.137  -2.192 -31.786  1.00  0.00     0.169 HD
ENDROOT
BRANCH   2  14
HETATM   14  N   UNL     1      -4.694   1.536 -31.682  1.00  0.00    -0.375 N 
HETATM   15  C   UNL     1      -6.061   1.939 -31.284  1.00  0.00     0.137 C 
HETATM   16  C   UNL     1      -5.997   3.137 -30.334  1.00  0.00     0.096 C 
HETATM   17  C   UNL     1      -5.212   4.298 -30.957  1.00  0.00     0.017 C 
HETATM   18  C   UNL     1      -3.838   3.823 -31.426  1.00  0.00     0.021 C 
HETATM   19  C   UNL     1      -3.961   2.622 -32.361  1.00  0.00     0.123 C 
BRANCH  16  20
HETATM   20  C   UNL     1      -7.401   3.550 -29.918  1.00  0.00     0.223 C 
HETATM   21  N   UNL     1      -8.421   3.124 -30.735  1.00  0.00    -0.358 N 
HETATM   22  H   UNL     1      -8.251   2.386 -31.410  1.00  0.00     0.162 HD
HETATM   23  O   UNL     1      -7.600   4.218 -28.906  1.00  0.00    -0.273 OA
BRANCH  21  24
HETATM   24  C   UNL     1      -9.815   3.315 -30.369  1.00  0.00     0.154 C 
BRANCH  24  25
HETATM   25  C   UNL     1     -10.497   4.304 -31.314  1.00  0.00     0.139 C 
HETATM   26  O   UNL     1      -9.514   4.922 -32.175  1.00  0.00    -0.384 OA
HETATM   27  C   UNL     1     -10.055   4.986 -33.504  1.00  0.00     0.168 C 
HETATM   28  C   UNL     1     -11.517   4.608 -33.404  1.00  0.00     0.029 C 
HETATM   29  C   UNL     1     -11.515   3.656 -32.234  1.00  0.00     0.035 C 
ENDBRANCH  24  25
ENDBRANCH  21  24
ENDBRANCH  16  20
ENDBRANCH   2  14
BRANCH   1  30
HETATM   30  C   UNL     1      -6.572   0.268 -33.394  1.00  0.00    -0.023 A 
HETATM   31  C   UNL     1      -6.514   1.215 -34.425  1.00  0.00     0.012 A 
HETATM   32  C   UNL     1      -7.674   1.863 -34.850  1.00  0.00     0.001 A 
HETATM   33  C   UNL     1      -8.898   1.569 -34.250  1.00  0.00     0.000 A 
HETATM   34  C   UNL     1      -8.965   0.628 -33.223  1.00  0.00     0.001 A 
HETATM   35  C   UNL     1      -7.806  -0.022 -32.795  1.00  0.00     0.012 A 
ENDBRANCH   1  30
TORSDOF 5
ENDMDL
MODEL 9
REMARK VINA RESULT:      -8.1      4.410      9.213
REMARK  5 active torsions:
REMARK  status: ('A' for Active; 'I' for Inactive)
REMARK    1  A    between atoms: C_4  and  C_5 
REMARK    2  A    between atoms: C_6  and  N_7 
REMARK    3  A    between atoms: C_9  and  C_10 
REMARK       I    between atoms: C_10  and  N_11 
REMARK    4  A    between atoms: N_11  and  C_12 
REMARK    5  A    between atoms: C_12  and  C_13 
ROOT
HETATM    1  C   UNL     1      -2.299   7.092 -29.926  1.00  0.00     0.019 A 
HETATM    2  C   UNL     1      -1.996   6.060 -30.758  1.00  0.00     0.111 A 
HETATM    3  C   UNL     1      -0.545   5.606 -30.874  1.00  0.00     0.273 A 
HETATM    4  O   UNL     1      -0.190   4.708 -31.637  1.00  0.00    -0.266 OA
HETATM    5  N   UNL     1       0.387   6.243 -30.108  1.00  0.00    -0.321 N 
HETATM    6  C   UNL     1       0.096   7.294 -29.247  1.00  0.00     0.046 A 
HETATM    7  C   UNL     1      -1.225   7.744 -29.130  1.00  0.00     0.006 A 
HETATM    8  C   UNL     1       1.134   7.882 -28.519  1.00  0.00     0.032 A 
HETATM    9  C   UNL     1       0.857   8.939 -27.654  1.00  0.00     0.026 A 
HETATM   10  C   UNL     1      -0.451   9.396 -27.523  1.00  0.00     0.035 A 
HETATM   11 CL   UNL     1      -0.793  10.702 -26.456  1.00  0.00    -0.084 Cl
HETATM   12  C   UNL     1      -1.487   8.805 -28.249  1.00  0.00     0.038 A 
HETATM   13  H   UNL     1       1.335   5.909 -30.217  1.00  0.00     0.169 HD
ENDROOT
BRANCH   2  14
HETATM   14  N   UNL     1      -2.950   5.389 -31.563  1.00  0.00    -0.375 N 
HETATM   15  C   UNL     1      -3.239   3.962 -31.292  1.00  0.00     0.137 C 
HETATM   16  C   UNL     1      -4.612   3.591 -31.855  1.00  0.00     0.096 C 
HETATM   17  C   UNL     1      -4.709   3.927 -33.349  1.00  0.00     0.017 C 
HETATM   18  C   UNL     1      -4.327   5.385 -33.596  1.00  0.00     0.021 C 
HETATM   19  C   UNL     1      -2.955   5.702 -33.004  1.00  0.00     0.123 C 
BRANCH  16  20
HETATM   20  C   UNL     1      -4.915   2.127 -31.573  1.00  0.00     0.223 C 
HETATM   21  N   UNL     1      -6.245   1.781 -31.550  1.00  0.00    -0.358 N 
HETATM   22  H   UNL     1      -6.937   2.413 -31.941  1.00  0.00     0.162 HD
HETATM   23  O   UNL     1      -4.017   1.310 -31.387  1.00  0.00    -0.273 OA
BRANCH  21  24
HETATM   24  C   UNL     1      -6.666   0.394 -31.448  1.00  0.00     0.154 C 
BRANCH  24  25
HETATM   25  C   UNL     1      -7.244  -0.100 -32.774  1.00  0.00     0.139 C 
HETATM   26  O   UNL     1      -7.526   1.023 -33.639  1.00  0.00    -0.384 OA
HETATM   27  C   UNL     1      -7.104   0.685 -34.969  1.00  0.00     0.168 C 
HETATM   28  C   UNL     1      -6.768  -0.791 -34.964  1.00  0.00     0.029 C 
HETATM   29  C   UNL     1      -6.297  -1.000 -33.547  1.00  0.00     0.035 C 
ENDBRANCH  24  25
ENDBRANCH  21  24
ENDBRANCH  16  20
ENDBRANCH   2  14
BRANCH   1  30
HETATM   30  C   UNL     1      -3.723   7.513 -29.844  1.00  0.00    -0.023 A 
HETATM   31  C   UNL     1      -4.225   8.492 -30.710  1.00  0.00     0.012 A 
HETATM   32  C   UNL     1      -5.570   8.862 -30.651  1.00  0.00     0.001 A 
HETATM   33  C   UNL     1      -6.420   8.255 -29.728  1.00  0.00     0.000 A 
HETATM   34  C   UNL     1      -5.929   7.279 -28.861  1.00  0.00     0.001 A 
HETATM   35  C   UNL     1      -4.585   6.907 -28.918  1.00  0.00     0.012 A 
ENDBRANCH   1  30
TORSDOF 5
ENDMDL
MODEL 10
REMARK VINA RESULT:      -7.9      3.684      8.692
REMARK  5 active torsions:
REMARK  status: ('A' for Active; 'I' for Inactive)
REMARK    1  A    between atoms: C_4  and  C_5 
REMARK    2  A    between atoms: C_6  and  N_7 
REMARK    3  A    between atoms: C_9  and  C_10 
REMARK       I    between atoms: C_10  and  N_11 
REMARK    4  A    between atoms: N_11  and  C_12 
REMARK    5  A    between atoms: C_12  and  C_13 
ROOT
HETATM    1  C   UNL     1      -4.885   6.015 -31.627  1.00  0.00     0.019 A 
HETATM    2  C   UNL     1      -4.575   5.098 -32.582  1.00  0.00     0.111 A 
HETATM    3  C   UNL     1      -3.296   5.281 -33.394  1.00  0.00     0.273 A 
HETATM    4  O   UNL     1      -2.972   4.515 -34.301  1.00  0.00    -0.266 OA
HETATM    5  N   UNL     1      -2.501   6.350 -33.102  1.00  0.00    -0.321 N 
HETATM    6  C   UNL     1      -2.798   7.293 -32.125  1.00  0.00     0.046 A 
HETATM    7  C   UNL     1      -3.971   7.162 -31.374  1.00  0.00     0.006 A 
HETATM    8  C   UNL     1      -1.915   8.357 -31.919  1.00  0.00     0.032 A 
HETATM    9  C   UNL     1      -2.201   9.313 -30.946  1.00  0.00     0.026 A 
HETATM   10  C   UNL     1      -3.362   9.195 -30.187  1.00  0.00     0.035 A 
HETATM   11 CL   UNL     1      -3.717  10.375 -28.985  1.00  0.00    -0.084 Cl
HETATM   12  C   UNL     1      -4.242   8.129 -30.392  1.00  0.00     0.038 A 
HETATM   13  H   UNL     1      -1.665   6.431 -33.663  1.00  0.00     0.169 HD
ENDROOT
BRANCH   2  14
HETATM   14  N   UNL     1      -5.390   3.984 -32.901  1.00  0.00    -0.375 N 
HETATM   15  C   UNL     1      -4.844   2.621 -32.716  1.00  0.00     0.137 C 
HETATM   16  C   UNL     1      -5.988   1.614 -32.582  1.00  0.00     0.096 C 
HETATM   17  C   UNL     1      -6.943   1.696 -33.779  1.00  0.00     0.017 C 
HETATM   18  C   UNL     1      -7.421   3.131 -33.985  1.00  0.00     0.021 C 
HETATM   19  C   UNL     1      -6.241   4.094 -34.100  1.00  0.00     0.123 C 
BRANCH  16  20
HETATM   20  C   UNL     1      -5.430   0.211 -32.386  1.00  0.00     0.223 C 
HETATM   21  N   UNL     1      -4.879  -0.378 -33.499  1.00  0.00    -0.358 N 
HETATM   22  H   UNL     1      -4.646   0.190 -34.307  1.00  0.00     0.162 HD
HETATM   23  O   UNL     1      -5.469  -0.347 -31.293  1.00  0.00    -0.273 OA
BRANCH  21  24
HETATM   24  C   UNL     1      -4.173  -1.646 -33.414  1.00  0.00     0.154 C 
BRANCH  24  25
HETATM   25  C   UNL     1      -4.671  -2.620 -34.481  1.00  0.00     0.139 C 
HETATM   26  O   UNL     1      -4.121  -3.936 -34.244  1.00  0.00    -0.384 OA
HETATM   27  C   UNL     1      -5.160  -4.904 -34.457  1.00  0.00     0.168 C 
HETATM   28  C   UNL     1      -6.329  -4.169 -35.078  1.00  0.00     0.029 C 
HETATM   29  C   UNL     1      -6.180  -2.789 -34.487  1.00  0.00     0.035 C 
ENDBRANCH  24  25
ENDBRANCH  21  24
ENDBRANCH  16  20
ENDBRANCH   2  14
BRANCH   1  30
HETATM   30  C   UNL     1      -6.143   5.810 -30.860  1.00  0.00    -0.023 A 
HETATM   31  C   UNL     1      -7.345   6.378 -31.304  1.00  0.00     0.012 A 
HETATM   32  C   UNL     1      -8.529   6.156 -30.598  1.00  0.00     0.001 A 
HETATM   33  C   UNL     1      -8.520   5.367 -29.449  1.00  0.00     0.000 A 
HETATM   34  C   UNL     1      -7.328   4.799 -29.000  1.00  0.00     0.001 A 
HETATM   35  C   UNL     1      -6.142   5.019 -29.704  1.00  0.00     0.012 A 
ENDBRANCH   1  30
TORSDOF 5
ENDMDL
