MODEL 1
REMARK VINA RESULT:      -8.3      0.000      0.000
REMARK  3 active torsions:
REMARK  status: ('A' for Active; 'I' for Inactive)
REMARK    1  A    between atoms: C_7  and  C_8 
REMARK       I    between atoms: C_8  and  N_9 
REMARK    2  A    between atoms: C_19  and  C_20 
REMARK    3  A    between atoms: C_22  and  O_23 
ROOT
HETATM    1  C   UNL     1      -8.365 -13.760 -38.557  1.00  0.00     0.258 C 
HETATM    2  N   UNL     1      -7.134 -13.426 -39.122  1.00  0.00    -0.340 N 
HETATM    3  C   UNL     1      -6.692 -13.624 -40.498  1.00  0.00     0.123 C 
HETATM    4  C   UNL     1      -5.313 -12.907 -40.579  1.00  0.00     0.221 C 
HETATM    5  N   UNL     1      -4.262 -13.884 -41.120  1.00  0.00    -0.064 N 
HETATM    6  H   UNL     1      -3.349 -13.411 -41.163  1.00  0.00     0.280 HD
HETATM    7  C   UNL     1      -4.079 -15.167 -40.319  1.00  0.00     0.236 C 
HETATM    8  C   UNL     1      -5.449 -15.785 -40.076  1.00  0.00     0.034 C 
HETATM    9  C   UNL     1      -6.508 -15.093 -40.951  1.00  0.00     0.014 C 
HETATM   10  C   UNL     1      -5.993 -15.085 -42.410  1.00  0.00     0.034 C 
HETATM   11  C   UNL     1      -4.681 -14.295 -42.529  1.00  0.00     0.236 C 
HETATM   12  C   UNL     1      -5.059 -12.232 -39.201  1.00  0.00     0.070 C 
HETATM   13  C   UNL     1      -6.436 -12.298 -38.526  1.00  0.00     0.138 C 
HETATM   14  O   UNL     1      -8.574 -13.619 -37.357  1.00  0.00    -0.267 OA
ENDROOT
BRANCH   1  15
HETATM   15  C   UNL     1      -9.417 -14.138 -39.461  1.00  0.00     0.089 C 
HETATM   16  C   UNL     1     -10.258 -13.271 -40.209  1.00  0.00     0.076 C 
HETATM   17  C   UNL     1     -10.279 -11.788 -40.203  1.00  0.00     0.074 C 
HETATM   18  N   UNL     1     -11.111 -13.962 -40.971  1.00  0.00    -0.132 NA
HETATM   19  O   UNL     1     -10.920 -15.290 -40.636  1.00  0.00    -0.217 OA
HETATM   20  C   UNL     1      -9.934 -15.390 -39.703  1.00  0.00     0.092 C 
HETATM   21  C   UNL     1      -9.662 -16.749 -39.204  1.00  0.00     0.080 C 
ENDBRANCH   1  15
BRANCH  12  22
HETATM   22  C   UNL     1      -3.898 -12.705 -38.351  1.00  0.00    -0.048 A 
HETATM   23  C   UNL     1      -4.067 -13.488 -37.193  1.00  0.00     0.044 A 
HETATM   24  C   UNL     1      -2.957 -13.897 -36.457  1.00  0.00     0.066 A 
HETATM   25  C   UNL     1      -1.673 -13.545 -36.847  1.00  0.00     0.036 A 
HETATM   26  C   UNL     1      -1.490 -12.753 -37.976  1.00  0.00     0.003 A 
HETATM   27  C   UNL     1      -2.593 -12.330 -38.721  1.00  0.00     0.008 A 
BRANCH  24  28
HETATM   28  O   UNL     1      -3.094 -14.666 -35.342  1.00  0.00    -0.361 OA
HETATM   29  H   UNL     1      -4.022 -14.668 -35.055  1.00  0.00     0.217 HD
ENDBRANCH  24  28
ENDBRANCH  12  22
TORSDOF 3
ENDMDL
MODEL 2
REMARK VINA RESULT:      -8.1     17.332     19.031
REMARK  3 active torsions:
REMARK  status: ('A' for Active; 'I' for Inactive)
REMARK    1  A    between atoms: C_7  and  C_8 
REMARK       I    between atoms: C_8  and  N_9 
REMARK    2  A    between atoms: C_19  and  C_20 
REMARK    3  A    between atoms: C_22  and  O_23 
ROOT
HETATM    1  C   UNL     1      -4.672   1.110 -32.677  1.00  0.00     0.258 C 
HETATM    2  N   UNL     1      -4.537   2.424 -32.224  1.00  0.00    -0.340 N 
HETATM    3  C   UNL     1      -5.588   3.337 -31.790  1.00  0.00     0.123 C 
HETATM    4  C   UNL     1      -4.830   4.581 -31.241  1.00  0.00     0.221 C 
HETATM    5  N   UNL     1      -5.354   5.844 -31.935  1.00  0.00    -0.064 N 
HETATM    6  H   UNL     1      -4.845   6.664 -31.578  1.00  0.00     0.280 HD
HETATM    7  C   UNL     1      -5.241   5.857 -33.454  1.00  0.00     0.236 C 
HETATM    8  C   UNL     1      -5.818   4.555 -33.993  1.00  0.00     0.034 C 
HETATM    9  C   UNL     1      -6.578   3.809 -32.883  1.00  0.00     0.014 C 
HETATM   10  C   UNL     1      -7.573   4.801 -32.234  1.00  0.00     0.034 C 
HETATM   11  C   UNL     1      -6.836   5.988 -31.598  1.00  0.00     0.236 C 
HETATM   12  C   UNL     1      -3.309   4.269 -31.318  1.00  0.00     0.070 C 
HETATM   13  C   UNL     1      -3.280   2.756 -31.574  1.00  0.00     0.138 C 
HETATM   14  O   UNL     1      -3.709   0.481 -33.100  1.00  0.00    -0.267 OA
ENDROOT
BRANCH   1  15
HETATM   15  C   UNL     1      -5.953   0.485 -32.494  1.00  0.00     0.089 C 
HETATM   16  C   UNL     1      -6.942   0.250 -33.487  1.00  0.00     0.076 C 
HETATM   17  C   UNL     1      -6.905   0.627 -34.921  1.00  0.00     0.074 C 
HETATM   18  N   UNL     1      -8.003  -0.379 -32.975  1.00  0.00    -0.132 NA
HETATM   19  O   UNL     1      -7.773  -0.452 -31.613  1.00  0.00    -0.217 OA
HETATM   20  C   UNL     1      -6.564   0.101 -31.323  1.00  0.00     0.092 C 
HETATM   21  C   UNL     1      -6.210   0.149 -29.893  1.00  0.00     0.080 C 
ENDBRANCH   1  15
BRANCH  12  22
HETATM   22  C   UNL     1      -2.431   5.097 -32.232  1.00  0.00    -0.048 A 
HETATM   23  C   UNL     1      -2.070   4.682 -33.528  1.00  0.00     0.044 A 
HETATM   24  C   UNL     1      -1.264   5.493 -34.323  1.00  0.00     0.066 A 
HETATM   25  C   UNL     1      -0.805   6.718 -33.859  1.00  0.00     0.036 A 
HETATM   26  C   UNL     1      -1.134   7.133 -32.573  1.00  0.00     0.003 A 
HETATM   27  C   UNL     1      -1.937   6.328 -31.761  1.00  0.00     0.008 A 
BRANCH  24  28
HETATM   28  O   UNL     1      -0.913   5.120 -35.584  1.00  0.00    -0.361 OA
HETATM   29  H   UNL     1      -1.495   4.404 -35.890  1.00  0.00     0.217 HD
ENDBRANCH  24  28
ENDBRANCH  12  22
TORSDOF 3
ENDMDL
MODEL 3
REMARK VINA RESULT:      -7.9     15.839     18.296
REMARK  3 active torsions:
REMARK  status: ('A' for Active; 'I' for Inactive)
REMARK    1  A    between atoms: C_7  and  C_8 
REMARK       I    between atoms: C_8  and  N_9 
REMARK    2  A    between atoms: C_19  and  C_20 
REMARK    3  A    between atoms: C_22  and  O_23 
ROOT
HETATM    1  C   UNL     1      -6.692   4.050 -32.733  1.00  0.00     0.258 C 
HETATM    2  N   UNL     1      -7.395   2.845 -32.688  1.00  0.00    -0.340 N 
HETATM    3  C   UNL     1      -6.857   1.489 -32.710  1.00  0.00     0.123 C 
HETATM    4  C   UNL     1      -8.089   0.570 -32.463  1.00  0.00     0.221 C 
HETATM    5  N   UNL     1      -8.173  -0.480 -33.577  1.00  0.00    -0.064 N 
HETATM    6  H   UNL     1      -8.994  -1.080 -33.417  1.00  0.00     0.280 HD
HETATM    7  C   UNL     1      -8.272   0.069 -34.994  1.00  0.00     0.236 C 
HETATM    8  C   UNL     1      -7.177   1.109 -35.188  1.00  0.00     0.034 C 
HETATM    9  C   UNL     1      -6.172   1.047 -34.025  1.00  0.00     0.014 C 
HETATM   10  C   UNL     1      -5.720  -0.424 -33.861  1.00  0.00     0.034 C 
HETATM   11  C   UNL     1      -6.909  -1.333 -33.517  1.00  0.00     0.236 C 
HETATM   12  C   UNL     1      -9.317   1.494 -32.220  1.00  0.00     0.070 C 
HETATM   13  C   UNL     1      -8.674   2.870 -31.995  1.00  0.00     0.138 C 
HETATM   14  O   UNL     1      -7.277   5.125 -32.800  1.00  0.00    -0.267 OA
ENDROOT
BRANCH   1  15
HETATM   15  C   UNL     1      -5.267   3.982 -32.555  1.00  0.00     0.089 C 
HETATM   16  C   UNL     1      -4.567   3.607 -31.377  1.00  0.00     0.076 C 
HETATM   17  C   UNL     1      -5.132   3.242 -30.055  1.00  0.00     0.074 C 
HETATM   18  N   UNL     1      -3.246   3.627 -31.572  1.00  0.00    -0.132 NA
HETATM   19  O   UNL     1      -3.063   4.136 -32.845  1.00  0.00    -0.217 OA
HETATM   20  C   UNL     1      -4.273   4.385 -33.416  1.00  0.00     0.092 C 
HETATM   21  C   UNL     1      -4.233   4.990 -34.759  1.00  0.00     0.080 C 
ENDBRANCH   1  15
BRANCH  12  22
HETATM   22  C   UNL     1     -10.465   1.470 -33.206  1.00  0.00    -0.048 A 
HETATM   23  C   UNL     1     -11.458   0.473 -33.200  1.00  0.00     0.044 A 
HETATM   24  C   UNL     1     -12.493   0.510 -34.131  1.00  0.00     0.066 A 
HETATM   25  C   UNL     1     -12.567   1.523 -35.077  1.00  0.00     0.036 A 
HETATM   26  C   UNL     1     -11.581   2.505 -35.111  1.00  0.00     0.003 A 
HETATM   27  C   UNL     1     -10.534   2.478 -34.187  1.00  0.00     0.008 A 
BRANCH  24  28
HETATM   28  O   UNL     1     -13.472  -0.435 -34.136  1.00  0.00    -0.361 OA
HETATM   29  H   UNL     1     -13.564  -0.820 -33.249  1.00  0.00     0.217 HD
ENDBRANCH  24  28
ENDBRANCH  12  22
TORSDOF 3
ENDMDL
MODEL 4
REMARK VINA RESULT:      -7.9     16.171     18.033
REMARK  3 active torsions:
REMARK  status: ('A' for Active; 'I' for Inactive)
REMARK    1  A    between atoms: C_7  and  C_8 
REMARK       I    between atoms: C_8  and  N_9 
REMARK    2  A    between atoms: C_19  and  C_20 
REMARK    3  A    between atoms: C_22  and  O_23 
ROOT
HETATM    1  C   UNL     1     -11.840   2.305 -34.192  1.00  0.00     0.258 C 
HETATM    2  N   UNL     1     -10.779   1.999 -33.339  1.00  0.00    -0.340 N 
HETATM    3  C   UNL     1     -10.231   2.812 -32.259  1.00  0.00     0.123 C 
HETATM    4  C   UNL     1      -9.190   1.891 -31.558  1.00  0.00     0.221 C 
HETATM    5  N   UNL     1      -7.838   2.612 -31.489  1.00  0.00    -0.064 N 
HETATM    6  H   UNL     1      -7.149   1.997 -31.034  1.00  0.00     0.280 HD
HETATM    7  C   UNL     1      -7.254   3.050 -32.825  1.00  0.00     0.236 C 
HETATM    8  C   UNL     1      -8.329   3.799 -33.600  1.00  0.00     0.034 C 
HETATM    9  C   UNL     1      -9.521   4.121 -32.682  1.00  0.00     0.014 C 
HETATM   10  C   UNL     1      -8.972   4.805 -31.407  1.00  0.00     0.034 C 
HETATM   11  C   UNL     1      -8.017   3.872 -30.647  1.00  0.00     0.236 C 
HETATM   12  C   UNL     1      -9.255   0.502 -32.255  1.00  0.00     0.070 C 
HETATM   13  C   UNL     1     -10.552   0.588 -33.073  1.00  0.00     0.138 C 
HETATM   14  O   UNL     1     -12.142   1.565 -35.122  1.00  0.00    -0.267 OA
ENDROOT
BRANCH   1  15
HETATM   15  C   UNL     1     -12.647   3.444 -33.849  1.00  0.00     0.089 C 
HETATM   16  C   UNL     1     -13.770   3.469 -32.979  1.00  0.00     0.076 C 
HETATM   17  C   UNL     1     -14.394   2.332 -32.259  1.00  0.00     0.074 C 
HETATM   18  N   UNL     1     -14.267   4.704 -32.865  1.00  0.00    -0.132 NA
HETATM   19  O   UNL     1     -13.550   5.479 -33.758  1.00  0.00    -0.217 OA
HETATM   20  C   UNL     1     -12.609   4.715 -34.375  1.00  0.00     0.092 C 
HETATM   21  C   UNL     1     -11.804   5.398 -35.404  1.00  0.00     0.080 C 
ENDBRANCH   1  15
BRANCH  12  22
HETATM   22  C   UNL     1      -8.045  -0.001 -33.013  1.00  0.00    -0.048 A 
HETATM   23  C   UNL     1      -6.893  -0.496 -32.372  1.00  0.00     0.044 A 
HETATM   24  C   UNL     1      -5.815  -0.950 -33.127  1.00  0.00     0.066 A 
HETATM   25  C   UNL     1      -5.852  -0.927 -34.513  1.00  0.00     0.036 A 
HETATM   26  C   UNL     1      -6.974  -0.420 -35.162  1.00  0.00     0.003 A 
HETATM   27  C   UNL     1      -8.061   0.045 -34.420  1.00  0.00     0.008 A 
BRANCH  24  28
HETATM   28  O   UNL     1      -4.696  -1.446 -32.530  1.00  0.00    -0.361 OA
HETATM   29  H   UNL     1      -3.905  -1.043 -32.926  1.00  0.00     0.217 HD
ENDBRANCH  24  28
ENDBRANCH  12  22
TORSDOF 3
ENDMDL
MODEL 5
REMARK VINA RESULT:      -7.6     16.191     17.911
REMARK  3 active torsions:
REMARK  status: ('A' for Active; 'I' for Inactive)
REMARK    1  A    between atoms: C_7  and  C_8 
REMARK       I    between atoms: C_8  and  N_9 
REMARK    2  A    between atoms: C_19  and  C_20 
REMARK    3  A    between atoms: C_22  and  O_23 
ROOT
HETATM    1  C   UNL     1     -10.398   2.296 -33.129  1.00  0.00     0.258 C 
HETATM    2  N   UNL     1      -9.169   2.080 -32.504  1.00  0.00    -0.340 N 
HETATM    3  C   UNL     1      -8.269   3.071 -31.924  1.00  0.00     0.123 C 
HETATM    4  C   UNL     1      -7.155   2.235 -31.229  1.00  0.00     0.221 C 
HETATM    5  N   UNL     1      -5.782   2.699 -31.732  1.00  0.00    -0.064 N 
HETATM    6  H   UNL     1      -5.048   2.138 -31.278  1.00  0.00     0.280 HD
HETATM    7  C   UNL     1      -5.567   2.612 -33.236  1.00  0.00     0.236 C 
HETATM    8  C   UNL     1      -6.749   3.270 -33.934  1.00  0.00     0.034 C 
HETATM    9  C   UNL     1      -7.599   4.051 -32.917  1.00  0.00     0.014 C 
HETATM   10  C   UNL     1      -6.655   4.978 -32.115  1.00  0.00     0.034 C 
HETATM   11  C   UNL     1      -5.607   4.164 -31.341  1.00  0.00     0.236 C 
HETATM   12  C   UNL     1      -7.534   0.735 -31.385  1.00  0.00     0.070 C 
HETATM   13  C   UNL     1      -8.997   0.795 -31.846  1.00  0.00     0.138 C 
HETATM   14  O   UNL     1     -11.014   1.377 -33.657  1.00  0.00    -0.267 OA
ENDROOT
BRANCH   1  15
HETATM   15  C   UNL     1     -10.974   3.607 -33.002  1.00  0.00     0.089 C 
HETATM   16  C   UNL     1     -11.052   4.610 -34.005  1.00  0.00     0.076 C 
HETATM   17  C   UNL     1     -10.527   4.560 -35.391  1.00  0.00     0.074 C 
HETATM   18  N   UNL     1     -11.677   5.701 -33.552  1.00  0.00    -0.132 NA
HETATM   19  O   UNL     1     -11.906   5.469 -32.208  1.00  0.00    -0.217 OA
HETATM   20  C   UNL     1     -11.448   4.233 -31.872  1.00  0.00     0.092 C 
HETATM   21  C   UNL     1     -11.571   3.871 -30.448  1.00  0.00     0.080 C 
ENDBRANCH   1  15
BRANCH  12  22
HETATM   22  C   UNL     1      -6.636  -0.172 -32.199  1.00  0.00    -0.048 A 
HETATM   23  C   UNL     1      -5.384  -0.623 -31.739  1.00  0.00     0.044 A 
HETATM   24  C   UNL     1      -4.608  -1.462 -32.534  1.00  0.00     0.066 A 
HETATM   25  C   UNL     1      -5.047  -1.869 -33.786  1.00  0.00     0.036 A 
HETATM   26  C   UNL     1      -6.273  -1.415 -34.265  1.00  0.00     0.003 A 
HETATM   27  C   UNL     1      -7.060  -0.569 -33.482  1.00  0.00     0.008 A 
BRANCH  24  28
HETATM   28  O   UNL     1      -3.400  -1.921 -32.105  1.00  0.00    -0.361 OA
HETATM   29  H   UNL     1      -3.316  -1.783 -31.147  1.00  0.00     0.217 HD
ENDBRANCH  24  28
ENDBRANCH  12  22
TORSDOF 3
ENDMDL
MODEL 6
REMARK VINA RESULT:      -7.6     22.093     24.391
REMARK  3 active torsions:
REMARK  status: ('A' for Active; 'I' for Inactive)
REMARK    1  A    between atoms: C_7  and  C_8 
REMARK       I    between atoms: C_8  and  N_9 
REMARK    2  A    between atoms: C_19  and  C_20 
REMARK    3  A    between atoms: C_22  and  O_23 
ROOT
HETATM    1  C   UNL     1      -0.296   6.770 -28.264  1.00  0.00     0.258 C 
HETATM    2  N   UNL     1      -0.903   7.245 -29.428  1.00  0.00    -0.340 N 
HETATM    3  C   UNL     1      -1.782   8.399 -29.577  1.00  0.00     0.123 C 
HETATM    4  C   UNL     1      -2.003   8.534 -31.112  1.00  0.00     0.221 C 
HETATM    5  N   UNL     1      -3.507   8.565 -31.410  1.00  0.00    -0.064 N 
HETATM    6  H   UNL     1      -3.650   8.644 -32.426  1.00  0.00     0.280 HD
HETATM    7  C   UNL     1      -4.300   7.358 -30.925  1.00  0.00     0.236 C 
HETATM    8  C   UNL     1      -3.951   7.105 -29.465  1.00  0.00     0.034 C 
HETATM    9  C   UNL     1      -3.166   8.296 -28.890  1.00  0.00     0.014 C 
HETATM   10  C   UNL     1      -3.957   9.588 -29.207  1.00  0.00     0.034 C 
HETATM   11  C   UNL     1      -4.099   9.792 -30.723  1.00  0.00     0.236 C 
HETATM   12  C   UNL     1      -1.131   7.448 -31.803  1.00  0.00     0.070 C 
HETATM   13  C   UNL     1      -0.201   6.981 -30.674  1.00  0.00     0.138 C 
HETATM   14  O   UNL     1       0.352   5.729 -28.263  1.00  0.00    -0.267 OA
ENDROOT
BRANCH   1  15
HETATM   15  C   UNL     1      -0.344   7.623 -27.108  1.00  0.00     0.089 C 
HETATM   16  C   UNL     1       0.593   8.627 -26.743  1.00  0.00     0.076 C 
HETATM   17  C   UNL     1       1.849   9.001 -27.437  1.00  0.00     0.074 C 
HETATM   18  N   UNL     1       0.224   9.249 -25.620  1.00  0.00    -0.132 NA
HETATM   19  O   UNL     1      -0.896   8.573 -25.169  1.00  0.00    -0.217 OA
HETATM   20  C   UNL     1      -1.210   7.576 -26.040  1.00  0.00     0.092 C 
HETATM   21  C   UNL     1      -2.352   6.728 -25.655  1.00  0.00     0.080 C 
ENDBRANCH   1  15
BRANCH  12  22
HETATM   22  C   UNL     1      -1.811   6.341 -32.580  1.00  0.00    -0.048 A 
HETATM   23  C   UNL     1      -2.410   6.545 -33.838  1.00  0.00     0.044 A 
HETATM   24  C   UNL     1      -3.014   5.483 -34.506  1.00  0.00     0.066 A 
HETATM   25  C   UNL     1      -3.039   4.211 -33.951  1.00  0.00     0.036 A 
HETATM   26  C   UNL     1      -2.471   3.997 -32.699  1.00  0.00     0.003 A 
HETATM   27  C   UNL     1      -1.866   5.053 -32.014  1.00  0.00     0.008 A 
BRANCH  24  28
HETATM   28  O   UNL     1      -3.588   5.653 -35.729  1.00  0.00    -0.361 OA
HETATM   29  H   UNL     1      -4.368   6.227 -35.650  1.00  0.00     0.217 HD
ENDBRANCH  24  28
ENDBRANCH  12  22
TORSDOF 3
ENDMDL
MODEL 7
REMARK VINA RESULT:      -7.6     18.698     20.857
REMARK  3 active torsions:
REMARK  status: ('A' for Active; 'I' for Inactive)
REMARK    1  A    between atoms: C_7  and  C_8 
REMARK       I    between atoms: C_8  and  N_9 
REMARK    2  A    between atoms: C_19  and  C_20 
REMARK    3  A    between atoms: C_22  and  O_23 
ROOT
HETATM    1  C   UNL     1      -2.385   5.147 -31.558  1.00  0.00     0.258 C 
HETATM    2  N   UNL     1      -3.572   4.640 -32.090  1.00  0.00    -0.340 N 
HETATM    3  C   UNL     1      -4.727   5.383 -32.580  1.00  0.00     0.123 C 
HETATM    4  C   UNL     1      -5.658   4.302 -33.204  1.00  0.00     0.221 C 
HETATM    5  N   UNL     1      -7.058   4.419 -32.588  1.00  0.00    -0.064 N 
HETATM    6  H   UNL     1      -7.669   3.697 -32.995  1.00  0.00     0.280 HD
HETATM    7  C   UNL     1      -7.126   4.282 -31.073  1.00  0.00     0.236 C 
HETATM    8  C   UNL     1      -6.086   5.207 -30.456  1.00  0.00     0.034 C 
HETATM    9  C   UNL     1      -5.533   6.171 -31.520  1.00  0.00     0.014 C 
HETATM   10  C   UNL     1      -6.734   6.842 -32.228  1.00  0.00     0.034 C 
HETATM   11  C   UNL     1      -7.613   5.798 -32.935  1.00  0.00     0.236 C 
HETATM   12  C   UNL     1      -4.916   2.939 -33.107  1.00  0.00     0.070 C 
HETATM   13  C   UNL     1      -3.480   3.352 -32.758  1.00  0.00     0.138 C 
HETATM   14  O   UNL     1      -1.526   4.405 -31.097  1.00  0.00    -0.267 OA
ENDROOT
BRANCH   1  15
HETATM   15  C   UNL     1      -2.156   6.559 -31.703  1.00  0.00     0.089 C 
HETATM   16  C   UNL     1      -1.679   7.236 -32.858  1.00  0.00     0.076 C 
HETATM   17  C   UNL     1      -1.270   6.650 -34.158  1.00  0.00     0.074 C 
HETATM   18  N   UNL     1      -1.609   8.554 -32.653  1.00  0.00    -0.132 NA
HETATM   19  O   UNL     1      -1.923   8.742 -31.319  1.00  0.00    -0.217 OA
HETATM   20  C   UNL     1      -2.210   7.543 -30.744  1.00  0.00     0.092 C 
HETATM   21  C   UNL     1      -2.505   7.581 -29.300  1.00  0.00     0.080 C 
ENDBRANCH   1  15
BRANCH  12  22
HETATM   22  C   UNL     1      -5.501   1.841 -32.244  1.00  0.00    -0.048 A 
HETATM   23  C   UNL     1      -5.163   1.672 -30.888  1.00  0.00     0.044 A 
HETATM   24  C   UNL     1      -5.741   0.645 -30.146  1.00  0.00     0.066 A 
HETATM   25  C   UNL     1      -6.656  -0.225 -30.721  1.00  0.00     0.036 A 
HETATM   26  C   UNL     1      -6.985  -0.086 -32.066  1.00  0.00     0.003 A 
HETATM   27  C   UNL     1      -6.409   0.936 -32.825  1.00  0.00     0.008 A 
BRANCH  24  28
HETATM   28  O   UNL     1      -5.440   0.470 -28.830  1.00  0.00    -0.361 OA
HETATM   29  H   UNL     1      -4.846  -0.292 -28.726  1.00  0.00     0.217 HD
ENDBRANCH  24  28
ENDBRANCH  12  22
TORSDOF 3
ENDMDL
MODEL 8
REMARK VINA RESULT:      -7.5     17.861     19.540
REMARK  3 active torsions:
REMARK  status: ('A' for Active; 'I' for Inactive)
REMARK    1  A    between atoms: C_7  and  C_8 
REMARK       I    between atoms: C_8  and  N_9 
REMARK    2  A    between atoms: C_19  and  C_20 
REMARK    3  A    between atoms: C_22  and  O_23 
ROOT
HETATM    1  C   UNL     1      -5.904   1.159 -31.034  1.00  0.00     0.258 C 
HETATM    2  N   UNL     1      -5.998   2.534 -31.254  1.00  0.00    -0.340 N 
HETATM    3  C   UNL     1      -5.521   3.295 -32.404  1.00  0.00     0.123 C 
HETATM    4  C   UNL     1      -6.056   4.739 -32.173  1.00  0.00     0.221 C 
HETATM    5  N   UNL     1      -4.890   5.732 -32.253  1.00  0.00    -0.064 N 
HETATM    6  H   UNL     1      -5.244   6.685 -32.090  1.00  0.00     0.280 HD
HETATM    7  C   UNL     1      -3.750   5.490 -31.273  1.00  0.00     0.236 C 
HETATM    8  C   UNL     1      -3.339   4.027 -31.361  1.00  0.00     0.034 C 
HETATM    9  C   UNL     1      -3.986   3.364 -32.588  1.00  0.00     0.014 C 
HETATM   10  C   UNL     1      -3.689   4.250 -33.822  1.00  0.00     0.034 C 
HETATM   11  C   UNL     1      -4.296   5.651 -33.657  1.00  0.00     0.236 C 
HETATM   12  C   UNL     1      -6.922   4.712 -30.882  1.00  0.00     0.070 C 
HETATM   13  C   UNL     1      -7.125   3.211 -30.634  1.00  0.00     0.138 C 
HETATM   14  O   UNL     1      -6.268   0.658 -29.976  1.00  0.00    -0.267 OA
ENDROOT
BRANCH   1  15
HETATM   15  C   UNL     1      -5.497   0.345 -32.147  1.00  0.00     0.089 C 
HETATM   16  C   UNL     1      -6.324  -0.164 -33.183  1.00  0.00     0.076 C 
HETATM   17  C   UNL     1      -7.792  -0.015 -33.339  1.00  0.00     0.074 C 
HETATM   18  N   UNL     1      -5.612  -0.861 -34.074  1.00  0.00    -0.132 NA
HETATM   19  O   UNL     1      -4.328  -0.918 -33.562  1.00  0.00    -0.217 OA
HETATM   20  C   UNL     1      -4.272  -0.231 -32.389  1.00  0.00     0.092 C 
HETATM   21  C   UNL     1      -2.972  -0.257 -31.694  1.00  0.00     0.080 C 
ENDBRANCH   1  15
BRANCH  12  22
HETATM   22  C   UNL     1      -6.473   5.512 -29.677  1.00  0.00    -0.048 A 
HETATM   23  C   UNL     1      -5.812   4.933 -28.578  1.00  0.00     0.044 A 
HETATM   24  C   UNL     1      -5.419   5.725 -27.501  1.00  0.00     0.066 A 
HETATM   25  C   UNL     1      -5.668   7.090 -27.490  1.00  0.00     0.036 A 
HETATM   26  C   UNL     1      -6.341   7.674 -28.559  1.00  0.00     0.003 A 
HETATM   27  C   UNL     1      -6.746   6.893 -29.643  1.00  0.00     0.008 A 
BRANCH  24  28
HETATM   28  O   UNL     1      -4.766   5.191 -26.433  1.00  0.00    -0.361 OA
HETATM   29  H   UNL     1      -4.002   5.745 -26.202  1.00  0.00     0.217 HD
ENDBRANCH  24  28
ENDBRANCH  12  22
TORSDOF 3
ENDMDL
MODEL 9
REMARK VINA RESULT:      -7.5     18.143     19.827
REMARK  3 active torsions:
REMARK  status: ('A' for Active; 'I' for Inactive)
REMARK    1  A    between atoms: C_7  and  C_8 
REMARK       I    between atoms: C_8  and  N_9 
REMARK    2  A    between atoms: C_19  and  C_20 
REMARK    3  A    between atoms: C_22  and  O_23 
ROOT
HETATM    1  C   UNL     1      -6.529   2.784 -33.533  1.00  0.00     0.258 C 
HETATM    2  N   UNL     1      -5.671   3.229 -32.526  1.00  0.00    -0.340 N 
HETATM    3  C   UNL     1      -6.003   3.571 -31.148  1.00  0.00     0.123 C 
HETATM    4  C   UNL     1      -4.631   3.830 -30.461  1.00  0.00     0.221 C 
HETATM    5  N   UNL     1      -4.649   5.209 -29.790  1.00  0.00    -0.064 N 
HETATM    6  H   UNL     1      -3.737   5.382 -29.346  1.00  0.00     0.280 HD
HETATM    7  C   UNL     1      -4.945   6.386 -30.709  1.00  0.00     0.236 C 
HETATM    8  C   UNL     1      -6.191   6.063 -31.523  1.00  0.00     0.034 C 
HETATM    9  C   UNL     1      -6.894   4.821 -30.950  1.00  0.00     0.014 C 
HETATM   10  C   UNL     1      -7.087   5.039 -29.430  1.00  0.00     0.034 C 
HETATM   11  C   UNL     1      -5.735   5.197 -28.718  1.00  0.00     0.236 C 
HETATM   12  C   UNL     1      -3.523   3.530 -31.511  1.00  0.00     0.070 C 
HETATM   13  C   UNL     1      -4.287   2.790 -32.617  1.00  0.00     0.138 C 
HETATM   14  O   UNL     1      -6.131   2.618 -34.680  1.00  0.00    -0.267 OA
ENDROOT
BRANCH   1  15
HETATM   15  C   UNL     1      -7.855   2.395 -33.136  1.00  0.00     0.089 C 
HETATM   16  C   UNL     1      -8.250   1.156 -32.564  1.00  0.00     0.076 C 
HETATM   17  C   UNL     1      -7.407  -0.031 -32.283  1.00  0.00     0.074 C 
HETATM   18  N   UNL     1      -9.558   1.143 -32.292  1.00  0.00    -0.132 NA
HETATM   19  O   UNL     1     -10.056   2.330 -32.798  1.00  0.00    -0.217 OA
HETATM   20  C   UNL     1      -9.043   3.059 -33.338  1.00  0.00     0.092 C 
HETATM   21  C   UNL     1      -9.437   4.329 -33.974  1.00  0.00     0.080 C 
ENDBRANCH   1  15
BRANCH  12  22
HETATM   22  C   UNL     1      -2.630   4.657 -31.984  1.00  0.00    -0.048 A 
HETATM   23  C   UNL     1      -2.878   5.386 -33.162  1.00  0.00     0.044 A 
HETATM   24  C   UNL     1      -2.022   6.418 -33.540  1.00  0.00     0.066 A 
HETATM   25  C   UNL     1      -0.916   6.747 -32.769  1.00  0.00     0.036 A 
HETATM   26  C   UNL     1      -0.644   6.022 -31.613  1.00  0.00     0.003 A 
HETATM   27  C   UNL     1      -1.490   4.981 -31.224  1.00  0.00     0.008 A 
BRANCH  24  28
HETATM   28  O   UNL     1      -2.248   7.146 -34.668  1.00  0.00    -0.361 OA
HETATM   29  H   UNL     1      -2.539   6.560 -35.386  1.00  0.00     0.217 HD
ENDBRANCH  24  28
ENDBRANCH  12  22
TORSDOF 3
ENDMDL
MODEL 10
REMARK VINA RESULT:      -7.4     19.458     21.024
REMARK  3 active torsions:
REMARK  status: ('A' for Active; 'I' for Inactive)
REMARK    1  A    between atoms: C_7  and  C_8 
REMARK       I    between atoms: C_8  and  N_9 
REMARK    2  A    between atoms: C_19  and  C_20 
REMARK    3  A    between atoms: C_22  and  O_23 
ROOT
HETATM    1  C   UNL     1      -4.987   3.527 -30.895  1.00  0.00     0.258 C 
HETATM    2  N   UNL     1      -4.476   4.742 -31.354  1.00  0.00    -0.340 N 
HETATM    3  C   UNL     1      -3.854   5.027 -32.642  1.00  0.00     0.123 C 
HETATM    4  C   UNL     1      -3.645   6.570 -32.649  1.00  0.00     0.221 C 
HETATM    5  N   UNL     1      -2.176   6.883 -32.959  1.00  0.00    -0.064 N 
HETATM    6  H   UNL     1      -2.038   7.903 -32.953  1.00  0.00     0.280 HD
HETATM    7  C   UNL     1      -1.156   6.274 -32.007  1.00  0.00     0.236 C 
HETATM    8  C   UNL     1      -1.465   4.791 -31.850  1.00  0.00     0.034 C 
HETATM    9  C   UNL     1      -2.490   4.346 -32.908  1.00  0.00     0.014 C 
HETATM   10  C   UNL     1      -1.981   4.812 -34.293  1.00  0.00     0.034 C 
HETATM   11  C   UNL     1      -1.863   6.343 -34.352  1.00  0.00     0.236 C 
HETATM   12  C   UNL     1      -4.260   7.128 -31.334  1.00  0.00     0.070 C 
HETATM   13  C   UNL     1      -5.088   5.945 -30.812  1.00  0.00     0.138 C 
HETATM   14  O   UNL     1      -5.403   3.404 -29.748  1.00  0.00    -0.267 OA
ENDROOT
BRANCH   1  15
HETATM   15  C   UNL     1      -5.135   2.474 -31.862  1.00  0.00     0.089 C 
HETATM   16  C   UNL     1      -6.171   2.332 -32.823  1.00  0.00     0.076 C 
HETATM   17  C   UNL     1      -7.356   3.201 -33.026  1.00  0.00     0.074 C 
HETATM   18  N   UNL     1      -5.983   1.249 -33.582  1.00  0.00    -0.132 NA
HETATM   19  O   UNL     1      -4.885   0.602 -33.045  1.00  0.00    -0.217 OA
HETATM   20  C   UNL     1      -4.404   1.316 -31.991  1.00  0.00     0.092 C 
HETATM   21  C   UNL     1      -3.264   0.713 -31.278  1.00  0.00     0.080 C 
ENDBRANCH   1  15
BRANCH  12  22
HETATM   22  C   UNL     1      -3.352   7.782 -30.314  1.00  0.00    -0.048 A 
HETATM   23  C   UNL     1      -2.879   7.112 -29.170  1.00  0.00     0.044 A 
HETATM   24  C   UNL     1      -2.041   7.769 -28.272  1.00  0.00     0.066 A 
HETATM   25  C   UNL     1      -1.656   9.085 -28.485  1.00  0.00     0.036 A 
HETATM   26  C   UNL     1      -2.133   9.768 -29.599  1.00  0.00     0.003 A 
HETATM   27  C   UNL     1      -2.979   9.126 -30.506  1.00  0.00     0.008 A 
BRANCH  24  28
HETATM   28  O   UNL     1      -1.559   7.138 -27.166  1.00  0.00    -0.361 OA
HETATM   29  H   UNL     1      -1.887   6.224 -27.139  1.00  0.00     0.217 HD
ENDBRANCH  24  28
ENDBRANCH  12  22
TORSDOF 3
ENDMDL
