MODEL 1
REMARK VINA RESULT:      -8.9      0.000      0.000
REMARK  3 active torsions:
REMARK  status: ('A' for Active; 'I' for Inactive)
REMARK    1  A    between atoms: C_2  and  C_3 
REMARK    2  A    between atoms: C_8  and  C_9 
REMARK    3  A    between atoms: C_9  and  N_10 
ROOT
HETATM    1  C   UNL     1      -7.711   1.823 -31.054  1.00  0.00     0.096 A 
HETATM    2  N   UNL     1      -7.643   2.909 -30.273  1.00  0.00    -0.174 NA
HETATM    3  N   UNL     1      -6.544   2.750 -29.532  1.00  0.00    -0.288 N 
HETATM    4  H   UNL     1      -6.326   3.457 -28.834  1.00  0.00     0.188 HD
HETATM    5  C   UNL     1      -5.845   1.627 -29.855  1.00  0.00     0.120 A 
HETATM    6  C   UNL     1      -6.565   0.986 -30.847  1.00  0.00     0.016 A 
ENDROOT
BRANCH   6   7
HETATM    7  C   UNL     1      -6.181  -0.280 -31.520  1.00  0.00     0.277 C 
BRANCH   7   8
HETATM    8  N   UNL     1      -5.545  -0.108 -32.888  1.00  0.00    -0.067 N 
HETATM    9  H   UNL     1      -5.632   0.899 -33.087  1.00  0.00     0.280 HD
HETATM   10  C   UNL     1      -6.304  -0.816 -33.988  1.00  0.00     0.242 C 
HETATM   11  C   UNL     1      -6.066  -2.319 -33.909  1.00  0.00     0.041 C 
HETATM   12  C   UNL     1      -4.568  -2.631 -33.976  1.00  0.00     0.128 C 
HETATM   13  C   UNL     1      -6.792  -3.087 -35.018  1.00  0.00     0.011 C 
HETATM   14  O   UNL     1      -4.368  -4.032 -33.800  1.00  0.00    -0.385 OA
HETATM   15  C   UNL     1      -3.804  -1.896 -32.880  1.00  0.00     0.060 C 
HETATM   16  C   UNL     1      -4.952  -4.803 -34.855  1.00  0.00     0.168 C 
HETATM   17  C   UNL     1      -6.459  -4.577 -34.926  1.00  0.00     0.027 C 
HETATM   18  C   UNL     1      -4.064  -0.402 -32.937  1.00  0.00     0.237 C 
ENDBRANCH   7   8
ENDBRANCH   6   7
BRANCH   1  19
HETATM   19  C   UNL     1      -8.821   1.674 -32.001  1.00  0.00    -0.002 A 
HETATM   20  C   UNL     1      -9.387   0.406 -32.211  1.00  0.00     0.017 A 
HETATM   21  C   UNL     1     -10.464   0.235 -33.085  1.00  0.00     0.040 A 
HETATM   22  C   UNL     1     -10.994   1.334 -33.752  1.00  0.00     0.102 A 
HETATM   23  C   UNL     1     -10.418   2.594 -33.578  1.00  0.00     0.103 A 
HETATM   24  O   UNL     1     -12.062   1.098 -34.574  1.00  0.00    -0.346 OA
HETATM   25  C   UNL     1      -9.336   2.765 -32.712  1.00  0.00     0.053 A 
HETATM   26  O   UNL     1     -10.873   3.718 -34.217  1.00  0.00    -0.346 OA
HETATM   27  C   UNL     1     -11.679   3.373 -35.354  1.00  0.00     0.202 C 
HETATM   28  C   UNL     1     -12.703   2.312 -34.984  1.00  0.00     0.202 C 
ENDBRANCH   1  19
TORSDOF 3
ENDMDL
MODEL 2
REMARK VINA RESULT:      -8.8      3.632      5.210
REMARK  3 active torsions:
REMARK  status: ('A' for Active; 'I' for Inactive)
REMARK    1  A    between atoms: C_2  and  C_3 
REMARK    2  A    between atoms: C_8  and  C_9 
REMARK    3  A    between atoms: C_9  and  N_10 
ROOT
HETATM    1  C   UNL     1      -6.642   2.729 -31.888  1.00  0.00     0.096 A 
HETATM    2  N   UNL     1      -7.662   3.531 -31.555  1.00  0.00    -0.174 NA
HETATM    3  N   UNL     1      -8.711   2.723 -31.381  1.00  0.00    -0.288 N 
HETATM    4  H   UNL     1      -9.611   3.141 -31.156  1.00  0.00     0.188 HD
HETATM    5  C   UNL     1      -8.393   1.406 -31.517  1.00  0.00     0.120 A 
HETATM    6  C   UNL     1      -7.051   1.356 -31.847  1.00  0.00     0.016 A 
ENDROOT
BRANCH   6   7
HETATM    7  C   UNL     1      -6.259   0.122 -32.082  1.00  0.00     0.277 C 
BRANCH   7   8
HETATM    8  N   UNL     1      -5.522   0.081 -33.409  1.00  0.00    -0.067 N 
HETATM    9  H   UNL     1      -5.565   1.049 -33.757  1.00  0.00     0.280 HD
HETATM   10  C   UNL     1      -6.220  -0.767 -34.449  1.00  0.00     0.242 C 
HETATM   11  C   UNL     1      -6.032  -2.246 -34.136  1.00  0.00     0.041 C 
HETATM   12  C   UNL     1      -4.543  -2.592 -34.045  1.00  0.00     0.128 C 
HETATM   13  C   UNL     1      -6.699  -3.155 -35.174  1.00  0.00     0.011 C 
HETATM   14  O   UNL     1      -4.396  -3.955 -33.654  1.00  0.00    -0.385 OA
HETATM   15  C   UNL     1      -3.839  -1.718 -33.012  1.00  0.00     0.060 C 
HETATM   16  C   UNL     1      -4.925  -4.862 -34.627  1.00  0.00     0.168 C 
HETATM   17  C   UNL     1      -6.416  -4.621 -34.843  1.00  0.00     0.027 C 
HETATM   18  C   UNL     1      -4.050  -0.244 -33.304  1.00  0.00     0.237 C 
ENDBRANCH   7   8
ENDBRANCH   6   7
BRANCH   1  19
HETATM   19  C   UNL     1      -5.321   3.306 -32.160  1.00  0.00    -0.002 A 
HETATM   20  C   UNL     1      -4.219   2.909 -31.384  1.00  0.00     0.017 A 
HETATM   21  C   UNL     1      -2.942   3.419 -31.635  1.00  0.00     0.040 A 
HETATM   22  C   UNL     1      -2.752   4.325 -32.673  1.00  0.00     0.102 A 
HETATM   23  C   UNL     1      -3.845   4.753 -33.429  1.00  0.00     0.103 A 
HETATM   24  O   UNL     1      -1.473   4.765 -32.878  1.00  0.00    -0.346 OA
HETATM   25  C   UNL     1      -5.123   4.252 -33.173  1.00  0.00     0.053 A 
HETATM   26  O   UNL     1      -3.737   5.658 -34.453  1.00  0.00    -0.346 OA
HETATM   27  C   UNL     1      -2.509   6.396 -34.359  1.00  0.00     0.202 C 
HETATM   28  C   UNL     1      -1.336   5.458 -34.124  1.00  0.00     0.202 C 
ENDBRANCH   1  19
TORSDOF 3
ENDMDL
MODEL 3
REMARK VINA RESULT:      -8.8      3.547      6.793
REMARK  3 active torsions:
REMARK  status: ('A' for Active; 'I' for Inactive)
REMARK    1  A    between atoms: C_2  and  C_3 
REMARK    2  A    between atoms: C_8  and  C_9 
REMARK    3  A    between atoms: C_9  and  N_10 
ROOT
HETATM    1  C   UNL     1      -7.966   0.663 -32.835  1.00  0.00     0.096 A 
HETATM    2  N   UNL     1      -9.109   0.323 -32.225  1.00  0.00    -0.174 NA
HETATM    3  N   UNL     1      -9.738   1.474 -31.976  1.00  0.00    -0.288 N 
HETATM    4  H   UNL     1     -10.623   1.442 -31.476  1.00  0.00     0.188 HD
HETATM    5  C   UNL     1      -9.078   2.557 -32.472  1.00  0.00     0.120 A 
HETATM    6  C   UNL     1      -7.913   2.081 -33.045  1.00  0.00     0.016 A 
ENDROOT
BRANCH   6   7
HETATM    7  C   UNL     1      -6.880   2.902 -33.725  1.00  0.00     0.277 C 
BRANCH   7   8
HETATM    8  N   UNL     1      -6.544   4.208 -33.028  1.00  0.00    -0.067 N 
HETATM    9  H   UNL     1      -7.455   4.668 -32.889  1.00  0.00     0.280 HD
HETATM   10  C   UNL     1      -5.731   5.148 -33.890  1.00  0.00     0.242 C 
HETATM   11  C   UNL     1      -4.289   4.662 -33.986  1.00  0.00     0.041 C 
HETATM   12  C   UNL     1      -3.677   4.519 -32.590  1.00  0.00     0.128 C 
HETATM   13  C   UNL     1      -3.411   5.593 -34.830  1.00  0.00     0.011 C 
HETATM   14  O   UNL     1      -2.366   3.969 -32.702  1.00  0.00    -0.385 OA
HETATM   15  C   UNL     1      -4.513   3.589 -31.716  1.00  0.00     0.060 C 
HETATM   16  C   UNL     1      -1.471   4.835 -33.409  1.00  0.00     0.168 C 
HETATM   17  C   UNL     1      -1.967   5.090 -34.829  1.00  0.00     0.027 C 
HETATM   18  C   UNL     1      -5.956   4.053 -31.645  1.00  0.00     0.237 C 
ENDBRANCH   7   8
ENDBRANCH   6   7
BRANCH   1  19
HETATM   19  C   UNL     1      -7.021  -0.381 -33.246  1.00  0.00    -0.002 A 
HETATM   20  C   UNL     1      -5.643  -0.182 -33.055  1.00  0.00     0.017 A 
HETATM   21  C   UNL     1      -4.719  -1.168 -33.410  1.00  0.00     0.040 A 
HETATM   22  C   UNL     1      -5.163  -2.369 -33.951  1.00  0.00     0.102 A 
HETATM   23  C   UNL     1      -6.527  -2.564 -34.178  1.00  0.00     0.103 A 
HETATM   24  O   UNL     1      -4.206  -3.299 -34.253  1.00  0.00    -0.346 OA
HETATM   25  C   UNL     1      -7.451  -1.577 -33.833  1.00  0.00     0.053 A 
HETATM   26  O   UNL     1      -7.037  -3.713 -34.727  1.00  0.00    -0.346 OA
HETATM   27  C   UNL     1      -6.012  -4.457 -35.405  1.00  0.00     0.202 C 
HETATM   28  C   UNL     1      -4.774  -4.584 -34.532  1.00  0.00     0.202 C 
ENDBRANCH   1  19
TORSDOF 3
ENDMDL
MODEL 4
REMARK VINA RESULT:      -8.7      3.956      5.836
REMARK  3 active torsions:
REMARK  status: ('A' for Active; 'I' for Inactive)
REMARK    1  A    between atoms: C_2  and  C_3 
REMARK    2  A    between atoms: C_8  and  C_9 
REMARK    3  A    between atoms: C_9  and  N_10 
ROOT
HETATM    1  C   UNL     1      -7.543   3.449 -33.677  1.00  0.00     0.096 A 
HETATM    2  N   UNL     1      -8.538   4.289 -33.361  1.00  0.00    -0.174 NA
HETATM    3  N   UNL     1      -9.662   3.667 -33.726  1.00  0.00    -0.288 N 
HETATM    4  H   UNL     1     -10.545   4.156 -33.605  1.00  0.00     0.188 HD
HETATM    5  C   UNL     1      -9.441   2.412 -34.205  1.00  0.00     0.120 A 
HETATM    6  C   UNL     1      -8.071   2.220 -34.192  1.00  0.00     0.016 A 
ENDROOT
BRANCH   6   7
HETATM    7  C   UNL     1      -7.361   0.987 -34.617  1.00  0.00     0.277 C 
BRANCH   7   8
HETATM    8  N   UNL     1      -7.560  -0.210 -33.705  1.00  0.00    -0.067 N 
HETATM    9  H   UNL     1      -8.579  -0.255 -33.558  1.00  0.00     0.280 HD
HETATM   10  C   UNL     1      -6.951  -0.019 -32.334  1.00  0.00     0.242 C 
HETATM   11  C   UNL     1      -5.434  -0.147 -32.409  1.00  0.00     0.041 C 
HETATM   12  C   UNL     1      -5.038  -1.498 -33.010  1.00  0.00     0.128 C 
HETATM   13  C   UNL     1      -4.764   0.014 -31.040  1.00  0.00     0.011 C 
HETATM   14  O   UNL     1      -3.621  -1.552 -33.161  1.00  0.00    -0.385 OA
HETATM   15  C   UNL     1      -5.674  -1.697 -34.381  1.00  0.00     0.060 C 
HETATM   16  C   UNL     1      -2.936  -1.493 -31.905  1.00  0.00     0.168 C 
HETATM   17  C   UNL     1      -3.254  -0.194 -31.171  1.00  0.00     0.027 C 
HETATM   18  C   UNL     1      -7.182  -1.539 -34.316  1.00  0.00     0.237 C 
ENDBRANCH   7   8
ENDBRANCH   6   7
BRANCH   1  19
HETATM   19  C   UNL     1      -6.153   3.834 -33.410  1.00  0.00    -0.002 A 
HETATM   20  C   UNL     1      -5.510   3.351 -32.259  1.00  0.00     0.017 A 
HETATM   21  C   UNL     1      -4.178   3.676 -31.989  1.00  0.00     0.040 A 
HETATM   22  C   UNL     1      -3.470   4.481 -32.875  1.00  0.00     0.102 A 
HETATM   23  C   UNL     1      -4.109   4.996 -34.005  1.00  0.00     0.103 A 
HETATM   24  O   UNL     1      -2.164   4.740 -32.562  1.00  0.00    -0.346 OA
HETATM   25  C   UNL     1      -5.442   4.680 -34.270  1.00  0.00     0.053 A 
HETATM   26  O   UNL     1      -3.482   5.812 -34.911  1.00  0.00    -0.346 OA
HETATM   27  C   UNL     1      -2.296   6.392 -34.346  1.00  0.00     0.202 C 
HETATM   28  C   UNL     1      -1.454   5.329 -33.658  1.00  0.00     0.202 C 
ENDBRANCH   1  19
TORSDOF 3
ENDMDL
MODEL 5
REMARK VINA RESULT:      -8.4     14.021     15.257
REMARK  3 active torsions:
REMARK  status: ('A' for Active; 'I' for Inactive)
REMARK    1  A    between atoms: C_2  and  C_3 
REMARK    2  A    between atoms: C_8  and  C_9 
REMARK    3  A    between atoms: C_9  and  N_10 
ROOT
HETATM    1  C   UNL     1      -6.801 -13.671 -35.726  1.00  0.00     0.096 A 
HETATM    2  N   UNL     1      -7.409 -13.037 -34.714  1.00  0.00    -0.174 NA
HETATM    3  N   UNL     1      -6.445 -12.763 -33.832  1.00  0.00    -0.288 N 
HETATM    4  H   UNL     1      -6.703 -12.309 -32.959  1.00  0.00     0.188 HD
HETATM    5  C   UNL     1      -5.208 -13.130 -34.268  1.00  0.00     0.120 A 
HETATM    6  C   UNL     1      -5.386 -13.728 -35.503  1.00  0.00     0.016 A 
ENDROOT
BRANCH   6   7
HETATM    7  C   UNL     1      -4.311 -14.277 -36.366  1.00  0.00     0.277 C 
BRANCH   7   8
HETATM    8  N   UNL     1      -3.549 -13.240 -37.172  1.00  0.00    -0.067 N 
HETATM    9  H   UNL     1      -3.139 -12.614 -36.465  1.00  0.00     0.280 HD
HETATM   10  C   UNL     1      -4.448 -12.372 -38.025  1.00  0.00     0.242 C 
HETATM   11  C   UNL     1      -4.945 -13.156 -39.234  1.00  0.00     0.041 C 
HETATM   12  C   UNL     1      -3.765 -13.699 -40.045  1.00  0.00     0.128 C 
HETATM   13  C   UNL     1      -5.844 -12.316 -40.148  1.00  0.00     0.011 C 
HETATM   14  O   UNL     1      -4.256 -14.509 -41.110  1.00  0.00    -0.385 OA
HETATM   15  C   UNL     1      -2.848 -14.553 -39.176  1.00  0.00     0.060 C 
HETATM   16  C   UNL     1      -5.035 -13.761 -42.050  1.00  0.00     0.168 C 
HETATM   17  C   UNL     1      -6.251 -13.135 -41.374  1.00  0.00     0.027 C 
HETATM   18  C   UNL     1      -2.376 -13.785 -37.955  1.00  0.00     0.237 C 
ENDBRANCH   7   8
ENDBRANCH   6   7
BRANCH   1  19
HETATM   19  C   UNL     1      -7.588 -14.125 -36.878  1.00  0.00    -0.002 A 
HETATM   20  C   UNL     1      -7.596 -15.489 -37.216  1.00  0.00     0.017 A 
HETATM   21  C   UNL     1      -8.356 -15.958 -38.291  1.00  0.00     0.040 A 
HETATM   22  C   UNL     1      -9.126 -15.069 -39.034  1.00  0.00     0.102 A 
HETATM   23  C   UNL     1      -9.098 -13.707 -38.728  1.00  0.00     0.103 A 
HETATM   24  O   UNL     1      -9.864 -15.599 -40.056  1.00  0.00    -0.346 OA
HETATM   25  C   UNL     1      -8.331 -13.235 -37.662  1.00  0.00     0.053 A 
HETATM   26  O   UNL     1      -9.813 -12.769 -39.428  1.00  0.00    -0.346 OA
HETATM   27  C   UNL     1     -10.215 -13.280 -40.709  1.00  0.00     0.202 C 
HETATM   28  C   UNL     1     -10.823 -14.666 -40.567  1.00  0.00     0.202 C 
ENDBRANCH   1  19
TORSDOF 3
ENDMDL
MODEL 6
REMARK VINA RESULT:      -8.3      1.804      6.833
REMARK  3 active torsions:
REMARK  status: ('A' for Active; 'I' for Inactive)
REMARK    1  A    between atoms: C_2  and  C_3 
REMARK    2  A    between atoms: C_8  and  C_9 
REMARK    3  A    between atoms: C_9  and  N_10 
ROOT
HETATM    1  C   UNL     1      -5.101   1.148 -32.877  1.00  0.00     0.096 A 
HETATM    2  N   UNL     1      -4.007   1.226 -32.107  1.00  0.00    -0.174 NA
HETATM    3  N   UNL     1      -3.846   2.525 -31.843  1.00  0.00    -0.288 N 
HETATM    4  H   UNL     1      -3.038   2.809 -31.294  1.00  0.00     0.188 HD
HETATM    5  C   UNL     1      -4.846   3.297 -32.352  1.00  0.00     0.120 A 
HETATM    6  C   UNL     1      -5.693   2.444 -33.036  1.00  0.00     0.016 A 
ENDROOT
BRANCH   6   7
HETATM    7  C   UNL     1      -6.934   2.839 -33.749  1.00  0.00     0.277 C 
BRANCH   7   8
HETATM    8  N   UNL     1      -8.044   3.362 -32.855  1.00  0.00    -0.067 N 
HETATM    9  H   UNL     1      -7.620   3.406 -31.917  1.00  0.00     0.280 HD
HETATM   10  C   UNL     1      -9.212   2.409 -32.740  1.00  0.00     0.242 C 
HETATM   11  C   UNL     1     -10.039   2.430 -34.020  1.00  0.00     0.041 C 
HETATM   12  C   UNL     1     -10.511   3.853 -34.331  1.00  0.00     0.128 C 
HETATM   13  C   UNL     1     -11.253   1.498 -33.950  1.00  0.00     0.011 C 
HETATM   14  O   UNL     1     -11.195   3.862 -35.583  1.00  0.00    -0.385 OA
HETATM   15  C   UNL     1      -9.331   4.816 -34.423  1.00  0.00     0.060 C 
HETATM   16  C   UNL     1     -12.391   3.075 -35.556  1.00  0.00     0.168 C 
HETATM   17  C   UNL     1     -12.077   1.617 -35.233  1.00  0.00     0.027 C 
HETATM   18  C   UNL     1      -8.489   4.773 -33.161  1.00  0.00     0.237 C 
ENDBRANCH   7   8
ENDBRANCH   6   7
BRANCH   1  19
HETATM   19  C   UNL     1      -5.561  -0.159 -33.359  1.00  0.00    -0.002 A 
HETATM   20  C   UNL     1      -6.931  -0.371 -33.582  1.00  0.00     0.017 A 
HETATM   21  C   UNL     1      -7.400  -1.596 -34.067  1.00  0.00     0.040 A 
HETATM   22  C   UNL     1      -6.499  -2.619 -34.344  1.00  0.00     0.102 A 
HETATM   23  C   UNL     1      -5.139  -2.431 -34.093  1.00  0.00     0.103 A 
HETATM   24  O   UNL     1      -7.023  -3.781 -34.839  1.00  0.00    -0.346 OA
HETATM   25  C   UNL     1      -4.671  -1.212 -33.599  1.00  0.00     0.053 A 
HETATM   26  O   UNL     1      -4.196  -3.400 -34.322  1.00  0.00    -0.346 OA
HETATM   27  C   UNL     1      -4.805  -4.697 -34.423  1.00  0.00     0.202 C 
HETATM   28  C   UNL     1      -6.008  -4.653 -35.351  1.00  0.00     0.202 C 
ENDBRANCH   1  19
TORSDOF 3
ENDMDL
MODEL 7
REMARK VINA RESULT:      -8.3      3.891      5.845
REMARK  3 active torsions:
REMARK  status: ('A' for Active; 'I' for Inactive)
REMARK    1  A    between atoms: C_2  and  C_3 
REMARK    2  A    between atoms: C_8  and  C_9 
REMARK    3  A    between atoms: C_9  and  N_10 
ROOT
HETATM    1  C   UNL     1      -6.134   4.148 -30.404  1.00  0.00     0.096 A 
HETATM    2  N   UNL     1      -6.089   4.780 -29.224  1.00  0.00    -0.174 NA
HETATM    3  N   UNL     1      -7.260   4.523 -28.635  1.00  0.00    -0.288 N 
HETATM    4  H   UNL     1      -7.448   4.947 -27.730  1.00  0.00     0.188 HD
HETATM    5  C   UNL     1      -8.043   3.677 -29.360  1.00  0.00     0.120 A 
HETATM    6  C   UNL     1      -7.352   3.401 -30.525  1.00  0.00     0.016 A 
ENDROOT
BRANCH   6   7
HETATM    7  C   UNL     1      -7.813   2.510 -31.619  1.00  0.00     0.277 C 
BRANCH   7   8
HETATM    8  N   UNL     1      -8.061   1.070 -31.207  1.00  0.00    -0.067 N 
HETATM    9  H   UNL     1      -8.571   1.142 -30.315  1.00  0.00     0.280 HD
HETATM   10  C   UNL     1      -6.788   0.313 -30.898  1.00  0.00     0.242 C 
HETATM   11  C   UNL     1      -6.054  -0.032 -32.189  1.00  0.00     0.041 C 
HETATM   12  C   UNL     1      -6.963  -0.832 -33.127  1.00  0.00     0.128 C 
HETATM   13  C   UNL     1      -4.765  -0.822 -31.937  1.00  0.00     0.011 C 
HETATM   14  O   UNL     1      -6.288  -1.055 -34.363  1.00  0.00    -0.385 OA
HETATM   15  C   UNL     1      -8.255  -0.076 -33.416  1.00  0.00     0.060 C 
HETATM   16  C   UNL     1      -5.117  -1.864 -34.207  1.00  0.00     0.168 C 
HETATM   17  C   UNL     1      -4.115  -1.197 -33.269  1.00  0.00     0.027 C 
HETATM   18  C   UNL     1      -8.973   0.296 -32.131  1.00  0.00     0.237 C 
ENDBRANCH   7   8
ENDBRANCH   6   7
BRANCH   1  19
HETATM   19  C   UNL     1      -4.991   4.232 -31.319  1.00  0.00    -0.002 A 
HETATM   20  C   UNL     1      -4.151   3.118 -31.483  1.00  0.00     0.017 A 
HETATM   21  C   UNL     1      -3.070   3.157 -32.368  1.00  0.00     0.040 A 
HETATM   22  C   UNL     1      -2.822   4.308 -33.107  1.00  0.00     0.102 A 
HETATM   23  C   UNL     1      -3.629   5.433 -32.927  1.00  0.00     0.103 A 
HETATM   24  O   UNL     1      -1.763   4.269 -33.971  1.00  0.00    -0.346 OA
HETATM   25  C   UNL     1      -4.704   5.400 -32.036  1.00  0.00     0.053 A 
HETATM   26  O   UNL     1      -3.434   6.609 -33.604  1.00  0.00    -0.346 OA
HETATM   27  C   UNL     1      -2.108   6.672 -34.153  1.00  0.00     0.202 C 
HETATM   28  C   UNL     1      -1.765   5.380 -34.875  1.00  0.00     0.202 C 
ENDBRANCH   1  19
TORSDOF 3
ENDMDL
MODEL 8
REMARK VINA RESULT:      -8.2      1.959      7.064
REMARK  3 active torsions:
REMARK  status: ('A' for Active; 'I' for Inactive)
REMARK    1  A    between atoms: C_2  and  C_3 
REMARK    2  A    between atoms: C_8  and  C_9 
REMARK    3  A    between atoms: C_9  and  N_10 
ROOT
HETATM    1  C   UNL     1      -4.089   2.035 -31.873  1.00  0.00     0.096 A 
HETATM    2  N   UNL     1      -2.930   2.447 -31.342  1.00  0.00    -0.174 NA
HETATM    3  N   UNL     1      -3.121   3.727 -31.012  1.00  0.00    -0.288 N 
HETATM    4  H   UNL     1      -2.340   4.247 -30.621  1.00  0.00     0.188 HD
HETATM    5  C   UNL     1      -4.396   4.147 -31.241  1.00  0.00     0.120 A 
HETATM    6  C   UNL     1      -5.070   3.077 -31.802  1.00  0.00     0.016 A 
ENDROOT
BRANCH   6   7
HETATM    7  C   UNL     1      -6.498   3.066 -32.209  1.00  0.00     0.277 C 
BRANCH   7   8
HETATM    8  N   UNL     1      -7.456   2.537 -31.159  1.00  0.00    -0.067 N 
HETATM    9  H   UNL     1      -6.846   2.165 -30.417  1.00  0.00     0.280 HD
HETATM   10  C   UNL     1      -8.281   1.365 -31.644  1.00  0.00     0.242 C 
HETATM   11  C   UNL     1      -9.368   1.846 -32.599  1.00  0.00     0.041 C 
HETATM   12  C   UNL     1     -10.247   2.903 -31.926  1.00  0.00     0.128 C 
HETATM   13  C   UNL     1     -10.252   0.701 -33.105  1.00  0.00     0.011 C 
HETATM   14  O   UNL     1     -11.189   3.407 -32.870  1.00  0.00    -0.385 OA
HETATM   15  C   UNL     1      -9.408   4.071 -31.416  1.00  0.00     0.060 C 
HETATM   16  C   UNL     1     -12.103   2.400 -33.318  1.00  0.00     0.168 C 
HETATM   17  C   UNL     1     -11.361   1.255 -34.000  1.00  0.00     0.027 C 
HETATM   18  C   UNL     1      -8.306   3.592 -30.489  1.00  0.00     0.237 C 
ENDBRANCH   7   8
ENDBRANCH   6   7
BRANCH   1  19
HETATM   19  C   UNL     1      -4.220   0.655 -32.354  1.00  0.00    -0.002 A 
HETATM   20  C   UNL     1      -5.160   0.356 -33.353  1.00  0.00     0.017 A 
HETATM   21  C   UNL     1      -5.291  -0.942 -33.852  1.00  0.00     0.040 A 
HETATM   22  C   UNL     1      -4.475  -1.956 -33.364  1.00  0.00     0.102 A 
HETATM   23  C   UNL     1      -3.560  -1.679 -32.345  1.00  0.00     0.103 A 
HETATM   24  O   UNL     1      -4.639  -3.198 -33.913  1.00  0.00    -0.346 OA
HETATM   25  C   UNL     1      -3.435  -0.384 -31.839  1.00  0.00     0.053 A 
HETATM   26  O   UNL     1      -2.737  -2.630 -31.800  1.00  0.00    -0.346 OA
HETATM   27  C   UNL     1      -3.223  -3.953 -32.082  1.00  0.00     0.202 C 
HETATM   28  C   UNL     1      -3.578  -4.090 -33.554  1.00  0.00     0.202 C 
ENDBRANCH   1  19
TORSDOF 3
ENDMDL
MODEL 9
REMARK VINA RESULT:      -8.2      2.612      5.003
REMARK  3 active torsions:
REMARK  status: ('A' for Active; 'I' for Inactive)
REMARK    1  A    between atoms: C_2  and  C_3 
REMARK    2  A    between atoms: C_8  and  C_9 
REMARK    3  A    between atoms: C_9  and  N_10 
ROOT
HETATM    1  C   UNL     1      -6.706  -1.428 -34.111  1.00  0.00     0.096 A 
HETATM    2  N   UNL     1      -7.084  -2.611 -34.613  1.00  0.00    -0.174 NA
HETATM    3  N   UNL     1      -5.956  -3.302 -34.792  1.00  0.00    -0.288 N 
HETATM    4  H   UNL     1      -6.018  -4.229 -35.207  1.00  0.00     0.188 HD
HETATM    5  C   UNL     1      -4.852  -2.637 -34.352  1.00  0.00     0.120 A 
HETATM    6  C   UNL     1      -5.289  -1.407 -33.895  1.00  0.00     0.016 A 
ENDROOT
BRANCH   6   7
HETATM    7  C   UNL     1      -4.434  -0.344 -33.308  1.00  0.00     0.277 C 
BRANCH   7   8
HETATM    8  N   UNL     1      -4.314  -0.384 -31.796  1.00  0.00    -0.067 N 
HETATM    9  H   UNL     1      -4.146  -1.377 -31.577  1.00  0.00     0.280 HD
HETATM   10  C   UNL     1      -5.599  -0.015 -31.088  1.00  0.00     0.242 C 
HETATM   11  C   UNL     1      -5.833   1.489 -31.172  1.00  0.00     0.041 C 
HETATM   12  C   UNL     1      -4.639   2.252 -30.592  1.00  0.00     0.128 C 
HETATM   13  C   UNL     1      -7.112   1.924 -30.449  1.00  0.00     0.011 C 
HETATM   14  O   UNL     1      -4.840   3.652 -30.773  1.00  0.00    -0.385 OA
HETATM   15  C   UNL     1      -3.343   1.859 -31.292  1.00  0.00     0.060 C 
HETATM   16  C   UNL     1      -5.974   4.139 -30.049  1.00  0.00     0.168 C 
HETATM   17  C   UNL     1      -7.253   3.446 -30.510  1.00  0.00     0.027 C 
HETATM   18  C   UNL     1      -3.122   0.358 -31.237  1.00  0.00     0.237 C 
ENDBRANCH   7   8
ENDBRANCH   6   7
BRANCH   1  19
HETATM   19  C   UNL     1      -7.717  -0.412 -33.800  1.00  0.00    -0.002 A 
HETATM   20  C   UNL     1      -8.860  -0.773 -33.069  1.00  0.00     0.017 A 
HETATM   21  C   UNL     1      -9.829   0.176 -32.733  1.00  0.00     0.040 A 
HETATM   22  C   UNL     1      -9.659   1.502 -33.116  1.00  0.00     0.102 A 
HETATM   23  C   UNL     1      -8.544   1.867 -33.873  1.00  0.00     0.103 A 
HETATM   24  O   UNL     1     -10.633   2.383 -32.734  1.00  0.00    -0.346 OA
HETATM   25  C   UNL     1      -7.580   0.918 -34.218  1.00  0.00     0.053 A 
HETATM   26  O   UNL     1      -8.320   3.149 -34.304  1.00  0.00    -0.346 OA
HETATM   27  C   UNL     1      -9.528   3.925 -34.261  1.00  0.00     0.202 C 
HETATM   28  C   UNL     1     -10.233   3.745 -32.926  1.00  0.00     0.202 C 
ENDBRANCH   1  19
TORSDOF 3
ENDMDL
MODEL 10
REMARK VINA RESULT:      -8.2      4.006      6.419
REMARK  3 active torsions:
REMARK  status: ('A' for Active; 'I' for Inactive)
REMARK    1  A    between atoms: C_2  and  C_3 
REMARK    2  A    between atoms: C_8  and  C_9 
REMARK    3  A    between atoms: C_9  and  N_10 
ROOT
HETATM    1  C   UNL     1      -4.671  -0.111 -32.211  1.00  0.00     0.096 A 
HETATM    2  N   UNL     1      -4.225  -1.374 -32.234  1.00  0.00    -0.174 NA
HETATM    3  N   UNL     1      -3.038  -1.346 -31.622  1.00  0.00    -0.288 N 
HETATM    4  H   UNL     1      -2.504  -2.210 -31.564  1.00  0.00     0.188 HD
HETATM    5  C   UNL     1      -2.724  -0.116 -31.131  1.00  0.00     0.120 A 
HETATM    6  C   UNL     1      -3.760   0.728 -31.488  1.00  0.00     0.016 A 
ENDROOT
BRANCH   6   7
HETATM    7  C   UNL     1      -3.860   2.171 -31.156  1.00  0.00     0.277 C 
BRANCH   7   8
HETATM    8  N   UNL     1      -4.018   3.091 -32.354  1.00  0.00    -0.067 N 
HETATM    9  H   UNL     1      -4.379   2.481 -33.101  1.00  0.00     0.280 HD
HETATM   10  C   UNL     1      -2.702   3.636 -32.862  1.00  0.00     0.242 C 
HETATM   11  C   UNL     1      -2.180   4.716 -31.921  1.00  0.00     0.041 C 
HETATM   12  C   UNL     1      -3.216   5.831 -31.755  1.00  0.00     0.128 C 
HETATM   13  C   UNL     1      -0.857   5.322 -32.401  1.00  0.00     0.011 C 
HETATM   14  O   UNL     1      -2.746   6.775 -30.796  1.00  0.00    -0.385 OA
HETATM   15  C   UNL     1      -4.549   5.273 -31.266  1.00  0.00     0.060 C 
HETATM   16  C   UNL     1      -1.554   7.441 -31.226  1.00  0.00     0.168 C 
HETATM   17  C   UNL     1      -0.424   6.443 -31.455  1.00  0.00     0.027 C 
HETATM   18  C   UNL     1      -5.056   4.176 -32.184  1.00  0.00     0.237 C 
ENDBRANCH   7   8
ENDBRANCH   6   7
BRANCH   1  19
HETATM   19  C   UNL     1      -5.967   0.214 -32.816  1.00  0.00    -0.002 A 
HETATM   20  C   UNL     1      -6.174  -0.032 -34.183  1.00  0.00     0.017 A 
HETATM   21  C   UNL     1      -7.406   0.241 -34.784  1.00  0.00     0.040 A 
HETATM   22  C   UNL     1      -8.448   0.756 -34.021  1.00  0.00     0.102 A 
HETATM   23  C   UNL     1      -8.243   1.038 -32.669  1.00  0.00     0.103 A 
HETATM   24  O   UNL     1      -9.633   0.977 -34.667  1.00  0.00    -0.346 OA
HETATM   25  C   UNL     1      -7.010   0.774 -32.069  1.00  0.00     0.053 A 
HETATM   26  O   UNL     1      -9.216   1.564 -31.859  1.00  0.00    -0.346 OA
HETATM   27  C   UNL     1     -10.263   2.166 -32.637  1.00  0.00     0.202 C 
HETATM   28  C   UNL     1     -10.706   1.232 -33.753  1.00  0.00     0.202 C 
ENDBRANCH   1  19
TORSDOF 3
ENDMDL
