MODEL 1
REMARK VINA RESULT:      -8.5      0.000      0.000
REMARK  14 active torsions:
REMARK  status: ('A' for Active; 'I' for Inactive)
REMARK    1  A    between atoms: C_2  and  N_3 
REMARK    2  A    between atoms: N_3  and  C_5 
REMARK    3  A    between atoms: N_3  and  C_39 
REMARK    4  A    between atoms: C_5  and  C_6 
REMARK    5  A    between atoms: C_6  and  C_7 
REMARK    6  A    between atoms: C_7  and  N_8 
REMARK    7  A    between atoms: C_11  and  O_12 
REMARK    8  A    between atoms: C_13  and  C_14 
REMARK    9  A    between atoms: C_14  and  C_15 
REMARK   10  A    between atoms: C_18  and  O_19 
REMARK   11  A    between atoms: O_19  and  C_20 
REMARK   12  A    between atoms: C_20  and  C_21 
REMARK   13  A    between atoms: C_31  and  C_32 
REMARK   14  A    between atoms: C_35  and  O_36 
ROOT
HETATM    1  N   UNL     1      -2.903   7.789 -30.414  1.00  0.00    -0.333 N 
HETATM    2  C   UNL     1      -2.504   8.513 -31.521  1.00  0.00     0.278 C 
HETATM    3  O   UNL     1      -2.226   9.695 -31.596  1.00  0.00    -0.265 OA
HETATM    4  C   UNL     1      -2.357   7.559 -32.643  1.00  0.00     0.146 C 
HETATM    5  C   UNL     1      -2.711   6.354 -32.182  1.00  0.00     0.059 C 
HETATM    6  C   UNL     1      -3.307   6.443 -30.804  1.00  0.00     0.161 C 
ENDROOT
BRANCH   5   7
HETATM    7  C   UNL     1      -2.546   5.003 -32.766  1.00  0.00     0.193 C 
HETATM    8  O   UNL     1      -1.539   4.762 -33.431  1.00  0.00    -0.287 OA
BRANCH   7   9
HETATM    9  C   UNL     1      -3.612   3.973 -32.711  1.00  0.00     0.015 A 
HETATM   10  C   UNL     1      -4.777   4.049 -33.481  1.00  0.00     0.018 A 
HETATM   11  C   UNL     1      -5.710   3.004 -33.468  1.00  0.00     0.038 A 
HETATM   12  C   UNL     1      -5.463   1.850 -32.725  1.00  0.00     0.069 A 
HETATM   13  C   UNL     1      -4.289   1.763 -31.974  1.00  0.00     0.038 A 
HETATM   14  C   UNL     1      -3.366   2.814 -31.966  1.00  0.00     0.018 A 
BRANCH  12  15
HETATM   15  O   UNL     1      -6.261   0.741 -32.671  1.00  0.00    -0.347 OA
BRANCH  15  16
HETATM   16  C   UNL     1      -6.773   0.242 -33.906  1.00  0.00     0.214 C 
BRANCH  16  17
HETATM   17  C   UNL     1      -6.253  -1.156 -34.139  1.00  0.00    -0.034 A 
HETATM   18  C   UNL     1      -4.924  -1.488 -33.846  1.00  0.00     0.010 A 
HETATM   19  C   UNL     1      -4.470  -2.800 -34.003  1.00  0.00     0.007 A 
HETATM   20  C   UNL     1      -5.335  -3.802 -34.457  1.00  0.00    -0.062 A 
HETATM   21  C   UNL     1      -4.867  -5.220 -34.597  1.00  0.00     0.048 C 
HETATM   22  C   UNL     1      -6.663  -3.473 -34.749  1.00  0.00     0.007 A 
HETATM   23  C   UNL     1      -7.117  -2.162 -34.594  1.00  0.00     0.010 A 
ENDBRANCH  16  17
ENDBRANCH  15  16
ENDBRANCH  12  15
ENDBRANCH   7   9
ENDBRANCH   5   7
BRANCH   4  24
HETATM   24  O   UNL     1      -1.838   7.916 -33.849  1.00  0.00    -0.355 OA
HETATM   25  H   UNL     1      -1.107   8.541 -33.659  1.00  0.00     0.218 HD
ENDBRANCH   4  24
BRANCH   6  26
HETATM   26  C   UNL     1      -4.810   6.227 -30.735  1.00  0.00    -0.030 A 
HETATM   27  C   UNL     1      -5.328   5.241 -29.875  1.00  0.00     0.012 A 
HETATM   28  C   UNL     1      -6.704   5.020 -29.779  1.00  0.00     0.037 A 
HETATM   29  C   UNL     1      -7.574   5.783 -30.547  1.00  0.00     0.065 A 
HETATM   30  C   UNL     1      -7.089   6.753 -31.413  1.00  0.00     0.037 A 
HETATM   31  C   UNL     1      -5.713   6.971 -31.515  1.00  0.00     0.012 A 
BRANCH  29  32
HETATM   32  O   UNL     1      -8.922   5.605 -30.487  1.00  0.00    -0.361 OA
HETATM   33  H   UNL     1      -9.359   6.310 -30.992  1.00  0.00     0.217 HD
ENDBRANCH  29  32
ENDBRANCH   6  26
BRANCH   1  34
HETATM   34  C   UNL     1      -3.243   8.423 -29.148  1.00  0.00     0.129 C 
BRANCH  34  35
HETATM   35  C   UNL     1      -2.058   8.626 -28.201  1.00  0.00     0.048 C 
BRANCH  35  36
HETATM   36  C   UNL     1      -1.394   7.304 -27.823  1.00  0.00     0.236 C 
BRANCH  36  37
HETATM   37  N   UNL     1       0.009   7.168 -28.405  1.00  0.00    -0.072 N 
HETATM   38  H   UNL     1       0.154   8.002 -28.989  1.00  0.00     0.279 HD
BRANCH  37  39
HETATM   39  C   UNL     1       0.134   5.974 -29.344  1.00  0.00     0.230 C 
HETATM   40  C   UNL     1       0.574   6.408 -30.731  1.00  0.00     0.034 C 
ENDBRANCH  37  39
BRANCH  37  41
HETATM   41  C   UNL     1       1.153   7.200 -27.402  1.00  0.00     0.230 C 
HETATM   42  C   UNL     1       1.713   8.595 -27.192  1.00  0.00     0.034 C 
ENDBRANCH  37  41
ENDBRANCH  36  37
ENDBRANCH  35  36
ENDBRANCH  34  35
ENDBRANCH   1  34
TORSDOF 14
ENDMDL
MODEL 2
REMARK VINA RESULT:      -8.2      2.492      8.812
REMARK  14 active torsions:
REMARK  status: ('A' for Active; 'I' for Inactive)
REMARK    1  A    between atoms: C_2  and  N_3 
REMARK    2  A    between atoms: N_3  and  C_5 
REMARK    3  A    between atoms: N_3  and  C_39 
REMARK    4  A    between atoms: C_5  and  C_6 
REMARK    5  A    between atoms: C_6  and  C_7 
REMARK    6  A    between atoms: C_7  and  N_8 
REMARK    7  A    between atoms: C_11  and  O_12 
REMARK    8  A    between atoms: C_13  and  C_14 
REMARK    9  A    between atoms: C_14  and  C_15 
REMARK   10  A    between atoms: C_18  and  O_19 
REMARK   11  A    between atoms: O_19  and  C_20 
REMARK   12  A    between atoms: C_20  and  C_21 
REMARK   13  A    between atoms: C_31  and  C_32 
REMARK   14  A    between atoms: C_35  and  O_36 
ROOT
HETATM    1  N   UNL     1      -5.701   1.752 -30.745  1.00  0.00    -0.333 N 
HETATM    2  C   UNL     1      -6.988   1.273 -30.901  1.00  0.00     0.278 C 
HETATM    3  O   UNL     1      -7.352   0.133 -31.121  1.00  0.00    -0.265 OA
HETATM    4  C   UNL     1      -7.912   2.399 -30.645  1.00  0.00     0.146 C 
HETATM    5  C   UNL     1      -7.159   3.478 -30.403  1.00  0.00     0.059 C 
HETATM    6  C   UNL     1      -5.705   3.209 -30.675  1.00  0.00     0.161 C 
ENDROOT
BRANCH   5   7
HETATM    7  C   UNL     1      -7.515   4.810 -29.863  1.00  0.00     0.193 C 
HETATM    8  O   UNL     1      -8.702   5.130 -29.804  1.00  0.00    -0.287 OA
BRANCH   7   9
HETATM    9  C   UNL     1      -6.497   5.835 -29.528  1.00  0.00     0.015 A 
HETATM   10  C   UNL     1      -5.658   5.731 -28.413  1.00  0.00     0.018 A 
HETATM   11  C   UNL     1      -4.646   6.674 -28.192  1.00  0.00     0.038 A 
HETATM   12  C   UNL     1      -4.429   7.702 -29.110  1.00  0.00     0.069 A 
HETATM   13  C   UNL     1      -5.251   7.793 -30.235  1.00  0.00     0.038 A 
HETATM   14  C   UNL     1      -6.278   6.867 -30.447  1.00  0.00     0.018 A 
BRANCH  12  15
HETATM   15  O   UNL     1      -3.445   8.648 -29.040  1.00  0.00    -0.347 OA
BRANCH  15  16
HETATM   16  C   UNL     1      -2.697   8.905 -30.228  1.00  0.00     0.214 C 
BRANCH  16  17
HETATM   17  C   UNL     1      -1.598   7.879 -30.362  1.00  0.00    -0.034 A 
HETATM   18  C   UNL     1      -1.058   7.249 -29.233  1.00  0.00     0.010 A 
HETATM   19  C   UNL     1      -0.088   6.254 -29.372  1.00  0.00     0.007 A 
HETATM   20  C   UNL     1       0.362   5.872 -30.641  1.00  0.00    -0.062 A 
HETATM   21  C   UNL     1       1.379   4.781 -30.803  1.00  0.00     0.048 C 
HETATM   22  C   UNL     1      -0.176   6.498 -31.770  1.00  0.00     0.007 A 
HETATM   23  C   UNL     1      -1.145   7.494 -31.631  1.00  0.00     0.010 A 
ENDBRANCH  16  17
ENDBRANCH  15  16
ENDBRANCH  12  15
ENDBRANCH   7   9
ENDBRANCH   5   7
BRANCH   4  24
HETATM   24  O   UNL     1      -9.262   2.242 -30.576  1.00  0.00    -0.355 OA
HETATM   25  H   UNL     1      -9.596   2.976 -30.018  1.00  0.00     0.218 HD
ENDBRANCH   4  24
BRANCH   6  26
HETATM   26  C   UNL     1      -5.150   3.868 -31.929  1.00  0.00    -0.030 A 
HETATM   27  C   UNL     1      -5.931   3.891 -33.099  1.00  0.00     0.012 A 
HETATM   28  C   UNL     1      -5.459   4.494 -34.268  1.00  0.00     0.037 A 
HETATM   29  C   UNL     1      -4.199   5.077 -34.274  1.00  0.00     0.065 A 
HETATM   30  C   UNL     1      -3.402   5.056 -33.137  1.00  0.00     0.037 A 
HETATM   31  C   UNL     1      -3.870   4.447 -31.971  1.00  0.00     0.012 A 
BRANCH  29  32
HETATM   32  O   UNL     1      -3.696   5.677 -35.388  1.00  0.00    -0.361 OA
HETATM   33  H   UNL     1      -2.918   6.205 -35.142  1.00  0.00     0.217 HD
ENDBRANCH  29  32
ENDBRANCH   6  26
BRANCH   1  34
HETATM   34  C   UNL     1      -4.526   0.938 -31.021  1.00  0.00     0.129 C 
BRANCH  34  35
HETATM   35  C   UNL     1      -4.221   0.746 -32.508  1.00  0.00     0.048 C 
BRANCH  35  36
HETATM   36  C   UNL     1      -4.510  -0.678 -32.973  1.00  0.00     0.236 C 
BRANCH  36  37
HETATM   37  N   UNL     1      -5.892  -0.817 -33.603  1.00  0.00    -0.072 N 
HETATM   38  H   UNL     1      -6.557  -0.861 -32.820  1.00  0.00     0.279 HD
BRANCH  37  39
HETATM   39  C   UNL     1      -6.054  -2.131 -34.360  1.00  0.00     0.230 C 
HETATM   40  C   UNL     1      -4.720  -2.834 -34.534  1.00  0.00     0.034 C 
ENDBRANCH  37  39
BRANCH  37  41
HETATM   41  C   UNL     1      -6.366   0.362 -34.442  1.00  0.00     0.230 C 
HETATM   42  C   UNL     1      -7.573   0.028 -35.297  1.00  0.00     0.034 C 
ENDBRANCH  37  41
ENDBRANCH  36  37
ENDBRANCH  35  36
ENDBRANCH  34  35
ENDBRANCH   1  34
TORSDOF 14
ENDMDL
MODEL 3
REMARK VINA RESULT:      -8.2      4.802      8.480
REMARK  14 active torsions:
REMARK  status: ('A' for Active; 'I' for Inactive)
REMARK    1  A    between atoms: C_2  and  N_3 
REMARK    2  A    between atoms: N_3  and  C_5 
REMARK    3  A    between atoms: N_3  and  C_39 
REMARK    4  A    between atoms: C_5  and  C_6 
REMARK    5  A    between atoms: C_6  and  C_7 
REMARK    6  A    between atoms: C_7  and  N_8 
REMARK    7  A    between atoms: C_11  and  O_12 
REMARK    8  A    between atoms: C_13  and  C_14 
REMARK    9  A    between atoms: C_14  and  C_15 
REMARK   10  A    between atoms: C_18  and  O_19 
REMARK   11  A    between atoms: O_19  and  C_20 
REMARK   12  A    between atoms: C_20  and  C_21 
REMARK   13  A    between atoms: C_31  and  C_32 
REMARK   14  A    between atoms: C_35  and  O_36 
ROOT
HETATM    1  N   UNL     1      -9.890   4.121 -33.642  1.00  0.00    -0.333 N 
HETATM    2  C   UNL     1      -9.121   5.120 -34.207  1.00  0.00     0.278 C 
HETATM    3  O   UNL     1      -9.365   5.807 -35.181  1.00  0.00    -0.265 OA
HETATM    4  C   UNL     1      -7.937   5.310 -33.340  1.00  0.00     0.146 C 
HETATM    5  C   UNL     1      -8.025   4.410 -32.354  1.00  0.00     0.059 C 
HETATM    6  C   UNL     1      -9.143   3.433 -32.595  1.00  0.00     0.161 C 
ENDROOT
BRANCH   5   7
HETATM    7  C   UNL     1      -7.271   4.281 -31.086  1.00  0.00     0.193 C 
HETATM    8  O   UNL     1      -7.292   5.214 -30.284  1.00  0.00    -0.287 OA
BRANCH   7   9
HETATM    9  C   UNL     1      -6.368   3.138 -30.806  1.00  0.00     0.015 A 
HETATM   10  C   UNL     1      -6.720   2.091 -29.947  1.00  0.00     0.018 A 
HETATM   11  C   UNL     1      -5.875   0.985 -29.789  1.00  0.00     0.038 A 
HETATM   12  C   UNL     1      -4.694   0.890 -30.525  1.00  0.00     0.069 A 
HETATM   13  C   UNL     1      -4.353   1.924 -31.399  1.00  0.00     0.038 A 
HETATM   14  C   UNL     1      -5.183   3.041 -31.543  1.00  0.00     0.018 A 
BRANCH  12  15
HETATM   15  O   UNL     1      -3.815  -0.157 -30.504  1.00  0.00    -0.347 OA
BRANCH  15  16
HETATM   16  C   UNL     1      -2.948  -0.306 -31.627  1.00  0.00     0.214 C 
BRANCH  16  17
HETATM   17  C   UNL     1      -3.314  -1.560 -32.382  1.00  0.00    -0.034 A 
HETATM   18  C   UNL     1      -2.975  -2.826 -31.887  1.00  0.00     0.010 A 
HETATM   19  C   UNL     1      -3.376  -3.982 -32.560  1.00  0.00     0.007 A 
HETATM   20  C   UNL     1      -4.121  -3.895 -33.741  1.00  0.00    -0.062 A 
HETATM   21  C   UNL     1      -4.586  -5.131 -34.453  1.00  0.00     0.048 C 
HETATM   22  C   UNL     1      -4.462  -2.633 -34.238  1.00  0.00     0.007 A 
HETATM   23  C   UNL     1      -4.061  -1.476 -33.566  1.00  0.00     0.010 A 
ENDBRANCH  16  17
ENDBRANCH  15  16
ENDBRANCH  12  15
ENDBRANCH   7   9
ENDBRANCH   5   7
BRANCH   4  24
HETATM   24  O   UNL     1      -7.042   6.317 -33.528  1.00  0.00    -0.355 OA
HETATM   25  H   UNL     1      -6.596   6.452 -32.665  1.00  0.00     0.218 HD
ENDBRANCH   4  24
BRANCH   6  26
HETATM   26  C   UNL     1      -8.703   2.034 -32.997  1.00  0.00    -0.030 A 
HETATM   27  C   UNL     1      -9.319   0.919 -32.401  1.00  0.00     0.012 A 
HETATM   28  C   UNL     1      -8.947  -0.382 -32.750  1.00  0.00     0.037 A 
HETATM   29  C   UNL     1      -7.951  -0.576 -33.698  1.00  0.00     0.065 A 
HETATM   30  C   UNL     1      -7.317   0.507 -34.292  1.00  0.00     0.037 A 
HETATM   31  C   UNL     1      -7.684   1.808 -33.938  1.00  0.00     0.012 A 
BRANCH  29  32
HETATM   32  O   UNL     1      -7.555  -1.824 -34.072  1.00  0.00    -0.361 OA
HETATM   33  H   UNL     1      -7.874  -2.468 -33.418  1.00  0.00     0.217 HD
ENDBRANCH  29  32
ENDBRANCH   6  26
BRANCH   1  34
HETATM   34  C   UNL     1     -11.088   3.599 -34.286  1.00  0.00     0.129 C 
BRANCH  34  35
HETATM   35  C   UNL     1     -12.258   3.340 -33.335  1.00  0.00     0.048 C 
BRANCH  35  36
HETATM   36  C   UNL     1     -13.478   2.786 -34.066  1.00  0.00     0.236 C 
BRANCH  36  37
HETATM   37  N   UNL     1     -14.133   1.631 -33.317  1.00  0.00    -0.072 N 
HETATM   38  H   UNL     1     -13.601   1.523 -32.443  1.00  0.00     0.279 HD
BRANCH  37  39
HETATM   39  C   UNL     1     -13.992   0.306 -34.058  1.00  0.00     0.230 C 
HETATM   40  C   UNL     1     -12.833  -0.509 -33.512  1.00  0.00     0.034 C 
ENDBRANCH  37  39
BRANCH  37  41
HETATM   41  C   UNL     1     -15.569   1.857 -32.864  1.00  0.00     0.230 C 
HETATM   42  C   UNL     1     -15.729   3.107 -32.019  1.00  0.00     0.034 C 
ENDBRANCH  37  41
ENDBRANCH  36  37
ENDBRANCH  35  36
ENDBRANCH  34  35
ENDBRANCH   1  34
TORSDOF 14
ENDMDL
MODEL 4
REMARK VINA RESULT:      -8.2      4.238     10.007
REMARK  14 active torsions:
REMARK  status: ('A' for Active; 'I' for Inactive)
REMARK    1  A    between atoms: C_2  and  N_3 
REMARK    2  A    between atoms: N_3  and  C_5 
REMARK    3  A    between atoms: N_3  and  C_39 
REMARK    4  A    between atoms: C_5  and  C_6 
REMARK    5  A    between atoms: C_6  and  C_7 
REMARK    6  A    between atoms: C_7  and  N_8 
REMARK    7  A    between atoms: C_11  and  O_12 
REMARK    8  A    between atoms: C_13  and  C_14 
REMARK    9  A    between atoms: C_14  and  C_15 
REMARK   10  A    between atoms: C_18  and  O_19 
REMARK   11  A    between atoms: O_19  and  C_20 
REMARK   12  A    between atoms: C_20  and  C_21 
REMARK   13  A    between atoms: C_31  and  C_32 
REMARK   14  A    between atoms: C_35  and  O_36 
ROOT
HETATM    1  N   UNL     1     -10.203   2.586 -34.125  1.00  0.00    -0.333 N 
HETATM    2  C   UNL     1      -9.910   3.800 -34.717  1.00  0.00     0.278 C 
HETATM    3  O   UNL     1     -10.493   4.363 -35.624  1.00  0.00    -0.265 OA
HETATM    4  C   UNL     1      -8.779   4.394 -33.970  1.00  0.00     0.146 C 
HETATM    5  C   UNL     1      -8.426   3.513 -33.026  1.00  0.00     0.059 C 
HETATM    6  C   UNL     1      -9.145   2.203 -33.198  1.00  0.00     0.161 C 
ENDROOT
BRANCH   5   7
HETATM    7  C   UNL     1      -7.534   3.653 -31.853  1.00  0.00     0.193 C 
HETATM    8  O   UNL     1      -8.036   3.779 -30.737  1.00  0.00    -0.287 OA
BRANCH   7   9
HETATM    9  C   UNL     1      -6.063   3.796 -31.980  1.00  0.00     0.015 A 
HETATM   10  C   UNL     1      -5.433   5.040 -32.096  1.00  0.00     0.018 A 
HETATM   11  C   UNL     1      -4.035   5.131 -32.115  1.00  0.00     0.038 A 
HETATM   12  C   UNL     1      -3.253   3.986 -31.966  1.00  0.00     0.069 A 
HETATM   13  C   UNL     1      -3.881   2.747 -31.827  1.00  0.00     0.038 A 
HETATM   14  C   UNL     1      -5.277   2.649 -31.831  1.00  0.00     0.018 A 
BRANCH  12  15
HETATM   15  O   UNL     1      -1.888   3.946 -31.912  1.00  0.00    -0.347 OA
BRANCH  15  16
HETATM   16  C   UNL     1      -1.183   5.147 -32.227  1.00  0.00     0.214 C 
BRANCH  16  17
HETATM   17  C   UNL     1      -0.623   5.747 -30.960  1.00  0.00    -0.034 A 
HETATM   18  C   UNL     1       0.104   4.967 -30.052  1.00  0.00     0.010 A 
HETATM   19  C   UNL     1       0.675   5.547 -28.916  1.00  0.00     0.007 A 
HETATM   20  C   UNL     1       0.527   6.915 -28.666  1.00  0.00    -0.062 A 
HETATM   21  C   UNL     1       1.164   7.554 -27.468  1.00  0.00     0.048 C 
HETATM   22  C   UNL     1      -0.197   7.697 -29.572  1.00  0.00     0.007 A 
HETATM   23  C   UNL     1      -0.769   7.118 -30.707  1.00  0.00     0.010 A 
ENDBRANCH  16  17
ENDBRANCH  15  16
ENDBRANCH  12  15
ENDBRANCH   7   9
ENDBRANCH   5   7
BRANCH   4  24
HETATM   24  O   UNL     1      -8.328   5.656 -34.200  1.00  0.00    -0.355 OA
HETATM   25  H   UNL     1      -8.046   6.010 -33.330  1.00  0.00     0.218 HD
ENDBRANCH   4  24
BRANCH   6  26
HETATM   26  C   UNL     1      -8.286   1.059 -33.713  1.00  0.00    -0.030 A 
HETATM   27  C   UNL     1      -8.236  -0.147 -32.990  1.00  0.00     0.012 A 
HETATM   28  C   UNL     1      -7.465  -1.224 -33.435  1.00  0.00     0.037 A 
HETATM   29  C   UNL     1      -6.734  -1.099 -34.609  1.00  0.00     0.065 A 
HETATM   30  C   UNL     1      -6.753   0.084 -35.335  1.00  0.00     0.037 A 
HETATM   31  C   UNL     1      -7.519   1.164 -34.886  1.00  0.00     0.012 A 
BRANCH  29  32
HETATM   32  O   UNL     1      -5.968  -2.120 -35.084  1.00  0.00    -0.361 OA
HETATM   33  H   UNL     1      -5.320  -1.765 -35.715  1.00  0.00     0.217 HD
ENDBRANCH  29  32
ENDBRANCH   6  26
BRANCH   1  34
HETATM   34  C   UNL     1     -11.203   1.676 -34.665  1.00  0.00     0.129 C 
BRANCH  34  35
HETATM   35  C   UNL     1     -12.100   1.021 -33.612  1.00  0.00     0.048 C 
BRANCH  35  36
HETATM   36  C   UNL     1     -13.436   1.745 -33.468  1.00  0.00     0.236 C 
BRANCH  36  37
HETATM   37  N   UNL     1     -13.497   2.617 -32.218  1.00  0.00    -0.072 N 
HETATM   38  H   UNL     1     -12.894   2.156 -31.523  1.00  0.00     0.279 HD
BRANCH  37  39
HETATM   39  C   UNL     1     -14.892   2.651 -31.603  1.00  0.00     0.230 C 
HETATM   40  C   UNL     1     -15.934   2.121 -32.572  1.00  0.00     0.034 C 
ENDBRANCH  37  39
BRANCH  37  41
HETATM   41  C   UNL     1     -12.922   4.019 -32.354  1.00  0.00     0.230 C 
HETATM   42  C   UNL     1     -11.790   4.288 -31.379  1.00  0.00     0.034 C 
ENDBRANCH  37  41
ENDBRANCH  36  37
ENDBRANCH  35  36
ENDBRANCH  34  35
ENDBRANCH   1  34
TORSDOF 14
ENDMDL
MODEL 5
REMARK VINA RESULT:      -7.9      2.952      9.525
REMARK  14 active torsions:
REMARK  status: ('A' for Active; 'I' for Inactive)
REMARK    1  A    between atoms: C_2  and  N_3 
REMARK    2  A    between atoms: N_3  and  C_5 
REMARK    3  A    between atoms: N_3  and  C_39 
REMARK    4  A    between atoms: C_5  and  C_6 
REMARK    5  A    between atoms: C_6  and  C_7 
REMARK    6  A    between atoms: C_7  and  N_8 
REMARK    7  A    between atoms: C_11  and  O_12 
REMARK    8  A    between atoms: C_13  and  C_14 
REMARK    9  A    between atoms: C_14  and  C_15 
REMARK   10  A    between atoms: C_18  and  O_19 
REMARK   11  A    between atoms: O_19  and  C_20 
REMARK   12  A    between atoms: C_20  and  C_21 
REMARK   13  A    between atoms: C_31  and  C_32 
REMARK   14  A    between atoms: C_35  and  O_36 
ROOT
HETATM    1  N   UNL     1      -5.179   0.742 -32.264  1.00  0.00    -0.333 N 
HETATM    2  C   UNL     1      -4.060   1.006 -31.497  1.00  0.00     0.278 C 
HETATM    3  O   UNL     1      -3.401   0.235 -30.826  1.00  0.00    -0.265 OA
HETATM    4  C   UNL     1      -3.703   2.427 -31.710  1.00  0.00     0.146 C 
HETATM    5  C   UNL     1      -4.625   2.944 -32.530  1.00  0.00     0.059 C 
HETATM    6  C   UNL     1      -5.760   1.985 -32.760  1.00  0.00     0.161 C 
ENDROOT
BRANCH   5   7
HETATM    7  C   UNL     1      -4.658   4.227 -33.268  1.00  0.00     0.193 C 
HETATM    8  O   UNL     1      -5.201   4.265 -34.372  1.00  0.00    -0.287 OA
BRANCH   7   9
HETATM    9  C   UNL     1      -3.935   5.436 -32.803  1.00  0.00     0.015 A 
HETATM   10  C   UNL     1      -2.778   5.912 -33.429  1.00  0.00     0.018 A 
HETATM   11  C   UNL     1      -2.186   7.112 -33.015  1.00  0.00     0.038 A 
HETATM   12  C   UNL     1      -2.771   7.873 -32.004  1.00  0.00     0.069 A 
HETATM   13  C   UNL     1      -3.939   7.410 -31.393  1.00  0.00     0.038 A 
HETATM   14  C   UNL     1      -4.521   6.201 -31.788  1.00  0.00     0.018 A 
BRANCH  12  15
HETATM   15  O   UNL     1      -2.327   9.083 -31.547  1.00  0.00    -0.347 OA
BRANCH  15  16
HETATM   16  C   UNL     1      -2.678   9.449 -30.213  1.00  0.00     0.214 C 
BRANCH  16  17
HETATM   17  C   UNL     1      -1.549   9.087 -29.279  1.00  0.00    -0.034 A 
HETATM   18  C   UNL     1      -0.622   8.093 -29.618  1.00  0.00     0.010 A 
HETATM   19  C   UNL     1       0.457   7.811 -28.776  1.00  0.00     0.007 A 
HETATM   20  C   UNL     1       0.628   8.516 -27.579  1.00  0.00    -0.062 A 
HETATM   21  C   UNL     1       1.801   8.245 -26.685  1.00  0.00     0.048 C 
HETATM   22  C   UNL     1      -0.296   9.510 -27.239  1.00  0.00     0.007 A 
HETATM   23  C   UNL     1      -1.375   9.792 -28.079  1.00  0.00     0.010 A 
ENDBRANCH  16  17
ENDBRANCH  15  16
ENDBRANCH  12  15
ENDBRANCH   7   9
ENDBRANCH   5   7
BRANCH   4  24
HETATM   24  O   UNL     1      -2.565   2.981 -31.214  1.00  0.00    -0.355 OA
HETATM   25  H   UNL     1      -1.833   2.381 -31.469  1.00  0.00     0.218 HD
ENDBRANCH   4  24
BRANCH   6  26
HETATM   26  C   UNL     1      -7.064   2.351 -32.069  1.00  0.00    -0.030 A 
HETATM   27  C   UNL     1      -8.281   2.178 -32.754  1.00  0.00     0.012 A 
HETATM   28  C   UNL     1      -9.500   2.495 -32.150  1.00  0.00     0.037 A 
HETATM   29  C   UNL     1      -9.509   2.991 -30.852  1.00  0.00     0.065 A 
HETATM   30  C   UNL     1      -8.323   3.184 -30.158  1.00  0.00     0.037 A 
HETATM   31  C   UNL     1      -7.103   2.873 -30.765  1.00  0.00     0.012 A 
BRANCH  29  32
HETATM   32  O   UNL     1     -10.672   3.314 -30.220  1.00  0.00    -0.361 OA
HETATM   33  H   UNL     1     -10.715   4.278 -30.107  1.00  0.00     0.217 HD
ENDBRANCH  29  32
ENDBRANCH   6  26
BRANCH   1  34
HETATM   34  C   UNL     1      -5.869  -0.538 -32.222  1.00  0.00     0.129 C 
BRANCH  34  35
HETATM   35  C   UNL     1      -5.946  -1.263 -33.568  1.00  0.00     0.048 C 
BRANCH  35  36
HETATM   36  C   UNL     1      -4.596  -1.843 -33.983  1.00  0.00     0.236 C 
BRANCH  36  37
HETATM   37  N   UNL     1      -4.708  -3.280 -34.483  1.00  0.00    -0.072 N 
HETATM   38  H   UNL     1      -4.417  -3.259 -35.470  1.00  0.00     0.279 HD
BRANCH  37  39
HETATM   39  C   UNL     1      -6.147  -3.784 -34.483  1.00  0.00     0.230 C 
HETATM   40  C   UNL     1      -6.423  -4.661 -35.690  1.00  0.00     0.034 C 
ENDBRANCH  37  39
BRANCH  37  41
HETATM   41  C   UNL     1      -3.773  -4.288 -33.831  1.00  0.00     0.230 C 
HETATM   42  C   UNL     1      -3.314  -3.858 -32.450  1.00  0.00     0.034 C 
ENDBRANCH  37  41
ENDBRANCH  36  37
ENDBRANCH  35  36
ENDBRANCH  34  35
ENDBRANCH   1  34
TORSDOF 14
ENDMDL
MODEL 6
REMARK VINA RESULT:      -7.9      2.745      9.714
REMARK  14 active torsions:
REMARK  status: ('A' for Active; 'I' for Inactive)
REMARK    1  A    between atoms: C_2  and  N_3 
REMARK    2  A    between atoms: N_3  and  C_5 
REMARK    3  A    between atoms: N_3  and  C_39 
REMARK    4  A    between atoms: C_5  and  C_6 
REMARK    5  A    between atoms: C_6  and  C_7 
REMARK    6  A    between atoms: C_7  and  N_8 
REMARK    7  A    between atoms: C_11  and  O_12 
REMARK    8  A    between atoms: C_13  and  C_14 
REMARK    9  A    between atoms: C_14  and  C_15 
REMARK   10  A    between atoms: C_18  and  O_19 
REMARK   11  A    between atoms: O_19  and  C_20 
REMARK   12  A    between atoms: C_20  and  C_21 
REMARK   13  A    between atoms: C_31  and  C_32 
REMARK   14  A    between atoms: C_35  and  O_36 
ROOT
HETATM    1  N   UNL     1      -6.581   1.326 -33.235  1.00  0.00    -0.333 N 
HETATM    2  C   UNL     1      -7.849   1.481 -33.764  1.00  0.00     0.278 C 
HETATM    3  O   UNL     1      -8.415   0.794 -34.593  1.00  0.00    -0.265 OA
HETATM    4  C   UNL     1      -8.488   2.612 -33.055  1.00  0.00     0.146 C 
HETATM    5  C   UNL     1      -7.584   3.097 -32.196  1.00  0.00     0.059 C 
HETATM    6  C   UNL     1      -6.232   2.473 -32.405  1.00  0.00     0.161 C 
ENDROOT
BRANCH   5   7
HETATM    7  C   UNL     1      -7.726   4.055 -31.076  1.00  0.00     0.193 C 
HETATM    8  O   UNL     1      -8.755   4.034 -30.402  1.00  0.00    -0.287 OA
BRANCH   7   9
HETATM    9  C   UNL     1      -6.745   5.139 -30.822  1.00  0.00     0.015 A 
HETATM   10  C   UNL     1      -5.770   5.057 -29.823  1.00  0.00     0.018 A 
HETATM   11  C   UNL     1      -4.804   6.063 -29.685  1.00  0.00     0.038 A 
HETATM   12  C   UNL     1      -4.773   7.135 -30.576  1.00  0.00     0.069 A 
HETATM   13  C   UNL     1      -5.733   7.206 -31.589  1.00  0.00     0.038 A 
HETATM   14  C   UNL     1      -6.713   6.216 -31.715  1.00  0.00     0.018 A 
BRANCH  12  15
HETATM   15  O   UNL     1      -3.855   8.148 -30.585  1.00  0.00    -0.347 OA
BRANCH  15  16
HETATM   16  C   UNL     1      -2.596   7.885 -31.203  1.00  0.00     0.214 C 
BRANCH  16  17
HETATM   17  C   UNL     1      -1.493   8.039 -30.184  1.00  0.00    -0.034 A 
HETATM   18  C   UNL     1      -1.631   8.914 -29.099  1.00  0.00     0.010 A 
HETATM   19  C   UNL     1      -0.632   9.001 -28.126  1.00  0.00     0.007 A 
HETATM   20  C   UNL     1       0.522   8.216 -28.220  1.00  0.00    -0.062 A 
HETATM   21  C   UNL     1       1.584   8.276 -27.163  1.00  0.00     0.048 C 
HETATM   22  C   UNL     1       0.662   7.341 -29.302  1.00  0.00     0.007 A 
HETATM   23  C   UNL     1      -0.335   7.255 -30.276  1.00  0.00     0.010 A 
ENDBRANCH  16  17
ENDBRANCH  15  16
ENDBRANCH  12  15
ENDBRANCH   7   9
ENDBRANCH   5   7
BRANCH   4  24
HETATM   24  O   UNL     1      -9.795   2.946 -33.230  1.00  0.00    -0.355 OA
HETATM   25  H   UNL     1      -9.883   3.876 -32.933  1.00  0.00     0.218 HD
ENDBRANCH   4  24
BRANCH   6  26
HETATM   26  C   UNL     1      -5.195   3.381 -33.049  1.00  0.00    -0.030 A 
HETATM   27  C   UNL     1      -5.540   4.118 -34.197  1.00  0.00     0.012 A 
HETATM   28  C   UNL     1      -4.617   4.969 -34.811  1.00  0.00     0.037 A 
HETATM   29  C   UNL     1      -3.339   5.086 -34.280  1.00  0.00     0.065 A 
HETATM   30  C   UNL     1      -2.969   4.361 -33.156  1.00  0.00     0.037 A 
HETATM   31  C   UNL     1      -3.888   3.505 -32.546  1.00  0.00     0.012 A 
BRANCH  29  32
HETATM   32  O   UNL     1      -2.406   5.903 -34.842  1.00  0.00    -0.361 OA
HETATM   33  H   UNL     1      -1.548   5.447 -34.850  1.00  0.00     0.217 HD
ENDBRANCH  29  32
ENDBRANCH   6  26
BRANCH   1  34
HETATM   34  C   UNL     1      -5.626   0.365 -33.768  1.00  0.00     0.129 C 
BRANCH  34  35
HETATM   35  C   UNL     1      -5.805  -1.063 -33.249  1.00  0.00     0.048 C 
BRANCH  35  36
HETATM   36  C   UNL     1      -6.066  -2.054 -34.380  1.00  0.00     0.236 C 
BRANCH  36  37
HETATM   37  N   UNL     1      -4.914  -3.035 -34.574  1.00  0.00    -0.072 N 
HETATM   38  H   UNL     1      -4.378  -2.685 -35.379  1.00  0.00     0.279 HD
BRANCH  37  39
HETATM   39  C   UNL     1      -5.398  -4.426 -34.968  1.00  0.00     0.230 C 
HETATM   40  C   UNL     1      -6.914  -4.492 -35.003  1.00  0.00     0.034 C 
ENDBRANCH  37  39
BRANCH  37  41
HETATM   41  C   UNL     1      -3.900  -3.106 -33.441  1.00  0.00     0.230 C 
HETATM   42  C   UNL     1      -3.413  -4.519 -33.176  1.00  0.00     0.034 C 
ENDBRANCH  37  41
ENDBRANCH  36  37
ENDBRANCH  35  36
ENDBRANCH  34  35
ENDBRANCH   1  34
TORSDOF 14
ENDMDL
MODEL 7
REMARK VINA RESULT:      -7.8      2.502      9.419
REMARK  14 active torsions:
REMARK  status: ('A' for Active; 'I' for Inactive)
REMARK    1  A    between atoms: C_2  and  N_3 
REMARK    2  A    between atoms: N_3  and  C_5 
REMARK    3  A    between atoms: N_3  and  C_39 
REMARK    4  A    between atoms: C_5  and  C_6 
REMARK    5  A    between atoms: C_6  and  C_7 
REMARK    6  A    between atoms: C_7  and  N_8 
REMARK    7  A    between atoms: C_11  and  O_12 
REMARK    8  A    between atoms: C_13  and  C_14 
REMARK    9  A    between atoms: C_14  and  C_15 
REMARK   10  A    between atoms: C_18  and  O_19 
REMARK   11  A    between atoms: O_19  and  C_20 
REMARK   12  A    between atoms: C_20  and  C_21 
REMARK   13  A    between atoms: C_31  and  C_32 
REMARK   14  A    between atoms: C_35  and  O_36 
ROOT
HETATM    1  N   UNL     1      -6.336   2.583 -32.972  1.00  0.00    -0.333 N 
HETATM    2  C   UNL     1      -7.513   2.894 -33.626  1.00  0.00     0.278 C 
HETATM    3  O   UNL     1      -8.222   2.170 -34.300  1.00  0.00    -0.265 OA
HETATM    4  C   UNL     1      -7.854   4.292 -33.281  1.00  0.00     0.146 C 
HETATM    5  C   UNL     1      -6.871   4.754 -32.500  1.00  0.00     0.059 C 
HETATM    6  C   UNL     1      -5.720   3.789 -32.432  1.00  0.00     0.161 C 
ENDROOT
BRANCH   5   7
HETATM    7  C   UNL     1      -6.782   5.979 -31.673  1.00  0.00     0.193 C 
HETATM    8  O   UNL     1      -7.788   6.675 -31.530  1.00  0.00    -0.287 OA
BRANCH   7   9
HETATM    9  C   UNL     1      -5.498   6.487 -31.132  1.00  0.00     0.015 A 
HETATM   10  C   UNL     1      -4.940   6.011 -29.941  1.00  0.00     0.018 A 
HETATM   11  C   UNL     1      -3.678   6.449 -29.519  1.00  0.00     0.038 A 
HETATM   12  C   UNL     1      -2.939   7.330 -30.309  1.00  0.00     0.069 A 
HETATM   13  C   UNL     1      -3.486   7.788 -31.510  1.00  0.00     0.038 A 
HETATM   14  C   UNL     1      -4.755   7.370 -31.923  1.00  0.00     0.018 A 
BRANCH  12  15
HETATM   15  O   UNL     1      -1.680   7.789 -30.041  1.00  0.00    -0.347 OA
BRANCH  15  16
HETATM   16  C   UNL     1      -0.666   6.815 -29.793  1.00  0.00     0.214 C 
BRANCH  16  17
HETATM   17  C   UNL     1       0.147   7.231 -28.591  1.00  0.00    -0.034 A 
HETATM   18  C   UNL     1       1.053   8.296 -28.666  1.00  0.00     0.010 A 
HETATM   19  C   UNL     1       1.752   8.715 -27.531  1.00  0.00     0.007 A 
HETATM   20  C   UNL     1       1.560   8.075 -26.302  1.00  0.00    -0.062 A 
HETATM   21  C   UNL     1       2.279   8.539 -25.070  1.00  0.00     0.048 C 
HETATM   22  C   UNL     1       0.654   7.012 -26.223  1.00  0.00     0.007 A 
HETATM   23  C   UNL     1      -0.044   6.592 -27.358  1.00  0.00     0.010 A 
ENDBRANCH  16  17
ENDBRANCH  15  16
ENDBRANCH  12  15
ENDBRANCH   7   9
ENDBRANCH   5   7
BRANCH   4  24
HETATM   24  O   UNL     1      -9.030   4.873 -33.643  1.00  0.00    -0.355 OA
HETATM   25  H   UNL     1      -8.822   5.469 -34.393  1.00  0.00     0.218 HD
ENDBRANCH   4  24
BRANCH   6  26
HETATM   26  C   UNL     1      -4.475   4.216 -33.195  1.00  0.00    -0.030 A 
HETATM   27  C   UNL     1      -4.614   4.860 -34.438  1.00  0.00     0.012 A 
HETATM   28  C   UNL     1      -3.495   5.274 -35.165  1.00  0.00     0.037 A 
HETATM   29  C   UNL     1      -2.225   5.043 -34.652  1.00  0.00     0.065 A 
HETATM   30  C   UNL     1      -2.059   4.398 -33.434  1.00  0.00     0.037 A 
HETATM   31  C   UNL     1      -3.177   3.977 -32.711  1.00  0.00     0.012 A 
BRANCH  29  32
HETATM   32  O   UNL     1      -1.104   5.428 -35.322  1.00  0.00    -0.361 OA
HETATM   33  H   UNL     1      -0.489   5.849 -34.698  1.00  0.00     0.217 HD
ENDBRANCH  29  32
ENDBRANCH   6  26
BRANCH   1  34
HETATM   34  C   UNL     1      -5.649   1.314 -33.164  1.00  0.00     0.129 C 
BRANCH  34  35
HETATM   35  C   UNL     1      -5.099   0.690 -31.879  1.00  0.00     0.048 C 
BRANCH  35  36
HETATM   36  C   UNL     1      -3.841  -0.135 -32.137  1.00  0.00     0.236 C 
BRANCH  36  37
HETATM   37  N   UNL     1      -4.155  -1.586 -32.485  1.00  0.00    -0.072 N 
HETATM   38  H   UNL     1      -5.054  -1.797 -32.033  1.00  0.00     0.279 HD
BRANCH  37  39
HETATM   39  C   UNL     1      -3.147  -2.558 -31.882  1.00  0.00     0.230 C 
HETATM   40  C   UNL     1      -3.277  -3.939 -32.498  1.00  0.00     0.034 C 
ENDBRANCH  37  39
BRANCH  37  41
HETATM   41  C   UNL     1      -4.389  -1.883 -33.960  1.00  0.00     0.230 C 
HETATM   42  C   UNL     1      -5.840  -2.201 -34.272  1.00  0.00     0.034 C 
ENDBRANCH  37  41
ENDBRANCH  36  37
ENDBRANCH  35  36
ENDBRANCH  34  35
ENDBRANCH   1  34
TORSDOF 14
ENDMDL
MODEL 8
REMARK VINA RESULT:      -7.8      1.935      3.787
REMARK  14 active torsions:
REMARK  status: ('A' for Active; 'I' for Inactive)
REMARK    1  A    between atoms: C_2  and  N_3 
REMARK    2  A    between atoms: N_3  and  C_5 
REMARK    3  A    between atoms: N_3  and  C_39 
REMARK    4  A    between atoms: C_5  and  C_6 
REMARK    5  A    between atoms: C_6  and  C_7 
REMARK    6  A    between atoms: C_7  and  N_8 
REMARK    7  A    between atoms: C_11  and  O_12 
REMARK    8  A    between atoms: C_13  and  C_14 
REMARK    9  A    between atoms: C_14  and  C_15 
REMARK   10  A    between atoms: C_18  and  O_19 
REMARK   11  A    between atoms: O_19  and  C_20 
REMARK   12  A    between atoms: C_20  and  C_21 
REMARK   13  A    between atoms: C_31  and  C_32 
REMARK   14  A    between atoms: C_35  and  O_36 
ROOT
HETATM    1  N   UNL     1      -4.472   7.822 -28.744  1.00  0.00    -0.333 N 
HETATM    2  C   UNL     1      -4.157   7.135 -27.587  1.00  0.00     0.278 C 
HETATM    3  O   UNL     1      -3.301   7.391 -26.762  1.00  0.00    -0.265 OA
HETATM    4  C   UNL     1      -5.141   6.040 -27.442  1.00  0.00     0.146 C 
HETATM    5  C   UNL     1      -5.944   6.089 -28.511  1.00  0.00     0.059 C 
HETATM    6  C   UNL     1      -5.443   7.071 -29.533  1.00  0.00     0.161 C 
ENDROOT
BRANCH   5   7
HETATM    7  C   UNL     1      -7.229   5.410 -28.792  1.00  0.00     0.193 C 
HETATM    8  O   UNL     1      -8.254   5.830 -28.256  1.00  0.00    -0.287 OA
BRANCH   7   9
HETATM    9  C   UNL     1      -7.314   4.152 -29.575  1.00  0.00     0.015 A 
HETATM   10  C   UNL     1      -8.464   3.776 -30.278  1.00  0.00     0.018 A 
HETATM   11  C   UNL     1      -8.464   2.629 -31.082  1.00  0.00     0.038 A 
HETATM   12  C   UNL     1      -7.301   1.874 -31.230  1.00  0.00     0.069 A 
HETATM   13  C   UNL     1      -6.147   2.261 -30.547  1.00  0.00     0.038 A 
HETATM   14  C   UNL     1      -6.149   3.393 -29.725  1.00  0.00     0.018 A 
BRANCH  12  15
HETATM   15  O   UNL     1      -7.154   0.770 -32.024  1.00  0.00    -0.347 OA
BRANCH  15  16
HETATM   16  C   UNL     1      -5.858   0.520 -32.565  1.00  0.00     0.214 C 
BRANCH  16  17
HETATM   17  C   UNL     1      -5.881  -0.768 -33.352  1.00  0.00    -0.034 A 
HETATM   18  C   UNL     1      -4.713  -1.516 -33.545  1.00  0.00     0.010 A 
HETATM   19  C   UNL     1      -4.757  -2.739 -34.218  1.00  0.00     0.007 A 
HETATM   20  C   UNL     1      -5.968  -3.236 -34.712  1.00  0.00    -0.062 A 
HETATM   21  C   UNL     1      -6.032  -4.564 -35.405  1.00  0.00     0.048 C 
HETATM   22  C   UNL     1      -7.137  -2.492 -34.518  1.00  0.00     0.007 A 
HETATM   23  C   UNL     1      -7.093  -1.268 -33.847  1.00  0.00     0.010 A 
ENDBRANCH  16  17
ENDBRANCH  15  16
ENDBRANCH  12  15
ENDBRANCH   7   9
ENDBRANCH   5   7
BRANCH   4  24
HETATM   24  O   UNL     1      -5.209   5.254 -26.333  1.00  0.00    -0.355 OA
HETATM   25  H   UNL     1      -5.546   4.384 -26.633  1.00  0.00     0.218 HD
ENDBRANCH   4  24
BRANCH   6  26
HETATM   26  C   UNL     1      -4.842   6.450 -30.784  1.00  0.00    -0.030 A 
HETATM   27  C   UNL     1      -3.646   5.715 -30.685  1.00  0.00     0.012 A 
HETATM   28  C   UNL     1      -3.069   5.123 -31.810  1.00  0.00     0.037 A 
HETATM   29  C   UNL     1      -3.684   5.264 -33.047  1.00  0.00     0.065 A 
HETATM   30  C   UNL     1      -4.857   5.994 -33.176  1.00  0.00     0.037 A 
HETATM   31  C   UNL     1      -5.432   6.593 -32.052  1.00  0.00     0.012 A 
BRANCH  29  32
HETATM   32  O   UNL     1      -3.160   4.704 -34.173  1.00  0.00    -0.361 OA
HETATM   33  H   UNL     1      -2.376   5.209 -34.444  1.00  0.00     0.217 HD
ENDBRANCH  29  32
ENDBRANCH   6  26
BRANCH   1  34
HETATM   34  C   UNL     1      -3.648   8.907 -29.257  1.00  0.00     0.129 C 
BRANCH  34  35
HETATM   35  C   UNL     1      -2.235   8.491 -29.670  1.00  0.00     0.048 C 
BRANCH  35  36
HETATM   36  C   UNL     1      -1.179   8.998 -28.691  1.00  0.00     0.236 C 
BRANCH  36  37
HETATM   37  N   UNL     1      -0.339   7.869 -28.102  1.00  0.00    -0.072 N 
HETATM   38  H   UNL     1      -0.618   7.795 -27.115  1.00  0.00     0.279 HD
BRANCH  37  39
HETATM   39  C   UNL     1       1.149   8.200 -28.092  1.00  0.00     0.230 C 
HETATM   40  C   UNL     1       1.687   8.271 -26.674  1.00  0.00     0.034 C 
ENDBRANCH  37  39
BRANCH  37  41
HETATM   41  C   UNL     1      -0.590   6.481 -28.675  1.00  0.00     0.230 C 
HETATM   42  C   UNL     1       0.495   6.037 -29.638  1.00  0.00     0.034 C 
ENDBRANCH  37  41
ENDBRANCH  36  37
ENDBRANCH  35  36
ENDBRANCH  34  35
ENDBRANCH   1  34
TORSDOF 14
ENDMDL
MODEL 9
REMARK VINA RESULT:      -7.6     18.544     21.085
REMARK  14 active torsions:
REMARK  status: ('A' for Active; 'I' for Inactive)
REMARK    1  A    between atoms: C_2  and  N_3 
REMARK    2  A    between atoms: N_3  and  C_5 
REMARK    3  A    between atoms: N_3  and  C_39 
REMARK    4  A    between atoms: C_5  and  C_6 
REMARK    5  A    between atoms: C_6  and  C_7 
REMARK    6  A    between atoms: C_7  and  N_8 
REMARK    7  A    between atoms: C_11  and  O_12 
REMARK    8  A    between atoms: C_13  and  C_14 
REMARK    9  A    between atoms: C_14  and  C_15 
REMARK   10  A    between atoms: C_18  and  O_19 
REMARK   11  A    between atoms: O_19  and  C_20 
REMARK   12  A    between atoms: C_20  and  C_21 
REMARK   13  A    between atoms: C_31  and  C_32 
REMARK   14  A    between atoms: C_35  and  O_36 
ROOT
HETATM    1  N   UNL     1      -1.113 -16.874 -36.161  1.00  0.00    -0.333 N 
HETATM    2  C   UNL     1       0.160 -16.582 -35.709  1.00  0.00     0.278 C 
HETATM    3  O   UNL     1       0.610 -16.694 -34.584  1.00  0.00    -0.265 OA
HETATM    4  C   UNL     1       0.967 -16.187 -36.884  1.00  0.00     0.146 C 
HETATM    5  C   UNL     1       0.154 -16.213 -37.946  1.00  0.00     0.059 C 
HETATM    6  C   UNL     1      -1.279 -16.423 -37.539  1.00  0.00     0.161 C 
ENDROOT
BRANCH   5   7
HETATM    7  C   UNL     1       0.446 -16.143 -39.396  1.00  0.00     0.193 C 
HETATM    8  O   UNL     1       1.599 -16.335 -39.780  1.00  0.00    -0.287 OA
BRANCH   7   9
HETATM    9  C   UNL     1      -0.560 -15.706 -40.394  1.00  0.00     0.015 A 
HETATM   10  C   UNL     1      -1.400 -16.602 -41.064  1.00  0.00     0.018 A 
HETATM   11  C   UNL     1      -2.401 -16.134 -41.925  1.00  0.00     0.038 A 
HETATM   12  C   UNL     1      -2.606 -14.765 -42.086  1.00  0.00     0.069 A 
HETATM   13  C   UNL     1      -1.783 -13.868 -41.400  1.00  0.00     0.038 A 
HETATM   14  C   UNL     1      -0.768 -14.332 -40.558  1.00  0.00     0.018 A 
BRANCH  12  15
HETATM   15  O   UNL     1      -3.578 -14.181 -42.850  1.00  0.00    -0.347 OA
BRANCH  15  16
HETATM   16  C   UNL     1      -4.851 -14.824 -42.893  1.00  0.00     0.214 C 
BRANCH  16  17
HETATM   17  C   UNL     1      -5.749 -14.235 -41.832  1.00  0.00    -0.034 A 
HETATM   18  C   UNL     1      -5.740 -12.861 -41.561  1.00  0.00     0.010 A 
HETATM   19  C   UNL     1      -6.622 -12.317 -40.623  1.00  0.00     0.007 A 
HETATM   20  C   UNL     1      -7.525 -13.136 -39.938  1.00  0.00    -0.062 A 
HETATM   21  C   UNL     1      -8.498 -12.558 -38.954  1.00  0.00     0.048 C 
HETATM   22  C   UNL     1      -7.537 -14.509 -40.207  1.00  0.00     0.007 A 
HETATM   23  C   UNL     1      -6.655 -15.054 -41.144  1.00  0.00     0.010 A 
ENDBRANCH  16  17
ENDBRANCH  15  16
ENDBRANCH  12  15
ENDBRANCH   7   9
ENDBRANCH   5   7
BRANCH   4  24
HETATM   24  O   UNL     1       2.309 -15.971 -36.816  1.00  0.00    -0.355 OA
HETATM   25  H   UNL     1       2.628 -15.932 -37.742  1.00  0.00     0.218 HD
ENDBRANCH   4  24
BRANCH   6  26
HETATM   26  C   UNL     1      -2.171 -15.197 -37.661  1.00  0.00    -0.030 A 
HETATM   27  C   UNL     1      -3.467 -15.337 -38.190  1.00  0.00     0.012 A 
HETATM   28  C   UNL     1      -4.318 -14.236 -38.311  1.00  0.00     0.037 A 
HETATM   29  C   UNL     1      -3.876 -12.983 -37.905  1.00  0.00     0.065 A 
HETATM   30  C   UNL     1      -2.597 -12.815 -37.392  1.00  0.00     0.037 A 
HETATM   31  C   UNL     1      -1.743 -13.914 -37.278  1.00  0.00     0.012 A 
BRANCH  29  32
HETATM   32  O   UNL     1      -4.669 -11.881 -38.002  1.00  0.00    -0.361 OA
HETATM   33  H   UNL     1      -4.254 -11.147 -37.520  1.00  0.00     0.217 HD
ENDBRANCH  29  32
ENDBRANCH   6  26
BRANCH   1  34
HETATM   34  C   UNL     1      -2.206 -17.203 -35.258  1.00  0.00     0.129 C 
BRANCH  34  35
HETATM   35  C   UNL     1      -2.663 -16.047 -34.367  1.00  0.00     0.048 C 
BRANCH  35  36
HETATM   36  C   UNL     1      -4.174 -15.839 -34.428  1.00  0.00     0.236 C 
BRANCH  36  37
HETATM   37  N   UNL     1      -4.614 -14.546 -33.750  1.00  0.00    -0.072 N 
HETATM   38  H   UNL     1      -3.770 -14.158 -33.308  1.00  0.00     0.279 HD
BRANCH  37  39
HETATM   39  C   UNL     1      -5.603 -14.794 -32.616  1.00  0.00     0.230 C 
HETATM   40  C   UNL     1      -4.895 -15.285 -31.366  1.00  0.00     0.034 C 
ENDBRANCH  37  39
BRANCH  37  41
HETATM   41  C   UNL     1      -5.104 -13.440 -34.674  1.00  0.00     0.230 C 
HETATM   42  C   UNL     1      -6.463 -13.738 -35.279  1.00  0.00     0.034 C 
ENDBRANCH  37  41
ENDBRANCH  36  37
ENDBRANCH  35  36
ENDBRANCH  34  35
ENDBRANCH   1  34
TORSDOF 14
ENDMDL
MODEL 10
REMARK VINA RESULT:      -7.5      2.798     10.027
REMARK  14 active torsions:
REMARK  status: ('A' for Active; 'I' for Inactive)
REMARK    1  A    between atoms: C_2  and  N_3 
REMARK    2  A    between atoms: N_3  and  C_5 
REMARK    3  A    between atoms: N_3  and  C_39 
REMARK    4  A    between atoms: C_5  and  C_6 
REMARK    5  A    between atoms: C_6  and  C_7 
REMARK    6  A    between atoms: C_7  and  N_8 
REMARK    7  A    between atoms: C_11  and  O_12 
REMARK    8  A    between atoms: C_13  and  C_14 
REMARK    9  A    between atoms: C_14  and  C_15 
REMARK   10  A    between atoms: C_18  and  O_19 
REMARK   11  A    between atoms: O_19  and  C_20 
REMARK   12  A    between atoms: C_20  and  C_21 
REMARK   13  A    between atoms: C_31  and  C_32 
REMARK   14  A    between atoms: C_35  and  O_36 
ROOT
HETATM    1  N   UNL     1      -6.229   3.631 -32.549  1.00  0.00    -0.333 N 
HETATM    2  C   UNL     1      -7.379   4.122 -33.137  1.00  0.00     0.278 C 
HETATM    3  O   UNL     1      -8.274   3.505 -33.684  1.00  0.00    -0.265 OA
HETATM    4  C   UNL     1      -7.409   5.581 -32.898  1.00  0.00     0.146 C 
HETATM    5  C   UNL     1      -6.286   5.895 -32.241  1.00  0.00     0.059 C 
HETATM    6  C   UNL     1      -5.342   4.726 -32.173  1.00  0.00     0.161 C 
ENDROOT
BRANCH   5   7
HETATM    7  C   UNL     1      -5.885   7.136 -31.541  1.00  0.00     0.193 C 
HETATM    8  O   UNL     1      -6.669   8.084 -31.516  1.00  0.00    -0.287 OA
BRANCH   7   9
HETATM    9  C   UNL     1      -4.520   7.341 -30.998  1.00  0.00     0.015 A 
HETATM   10  C   UNL     1      -3.552   8.108 -31.655  1.00  0.00     0.018 A 
HETATM   11  C   UNL     1      -2.310   8.355 -31.057  1.00  0.00     0.038 A 
HETATM   12  C   UNL     1      -2.041   7.879 -29.773  1.00  0.00     0.069 A 
HETATM   13  C   UNL     1      -3.015   7.133 -29.106  1.00  0.00     0.038 A 
HETATM   14  C   UNL     1      -4.248   6.866 -29.710  1.00  0.00     0.018 A 
BRANCH  12  15
HETATM   15  O   UNL     1      -0.896   8.096 -29.058  1.00  0.00    -0.347 OA
BRANCH  15  16
HETATM   16  C   UNL     1      -0.647   7.240 -27.944  1.00  0.00     0.214 C 
BRANCH  16  17
HETATM   17  C   UNL     1       0.131   7.995 -26.894  1.00  0.00    -0.034 A 
HETATM   18  C   UNL     1      -0.521   8.821 -25.969  1.00  0.00     0.010 A 
HETATM   19  C   UNL     1       0.201   9.464 -24.960  1.00  0.00     0.007 A 
HETATM   20  C   UNL     1       1.586   9.295 -24.859  1.00  0.00    -0.062 A 
HETATM   21  C   UNL     1       2.365   9.953 -23.759  1.00  0.00     0.048 C 
HETATM   22  C   UNL     1       2.239   8.470 -25.780  1.00  0.00     0.007 A 
HETATM   23  C   UNL     1       1.519   7.828 -26.790  1.00  0.00     0.010 A 
ENDBRANCH  16  17
ENDBRANCH  15  16
ENDBRANCH  12  15
ENDBRANCH   7   9
ENDBRANCH   5   7
BRANCH   4  24
HETATM   24  O   UNL     1      -8.478   6.358 -33.222  1.00  0.00    -0.355 OA
HETATM   25  H   UNL     1      -9.194   5.743 -33.488  1.00  0.00     0.218 HD
ENDBRANCH   4  24
BRANCH   6  26
HETATM   26  C   UNL     1      -4.116   4.834 -33.065  1.00  0.00    -0.030 A 
HETATM   27  C   UNL     1      -4.269   5.238 -34.404  1.00  0.00     0.012 A 
HETATM   28  C   UNL     1      -3.165   5.357 -35.252  1.00  0.00     0.037 A 
HETATM   29  C   UNL     1      -1.897   5.069 -34.765  1.00  0.00     0.065 A 
HETATM   30  C   UNL     1      -1.718   4.656 -33.452  1.00  0.00     0.037 A 
HETATM   31  C   UNL     1      -2.823   4.530 -32.605  1.00  0.00     0.012 A 
BRANCH  29  32
HETATM   32  O   UNL     1      -0.791   5.171 -35.552  1.00  0.00    -0.361 OA
HETATM   33  H   UNL     1      -0.286   5.960 -35.292  1.00  0.00     0.217 HD
ENDBRANCH  29  32
ENDBRANCH   6  26
BRANCH   1  34
HETATM   34  C   UNL     1      -5.821   2.239 -32.674  1.00  0.00     0.129 C 
BRANCH  34  35
HETATM   35  C   UNL     1      -6.070   1.390 -31.425  1.00  0.00     0.048 C 
BRANCH  35  36
HETATM   36  C   UNL     1      -6.893   0.142 -31.736  1.00  0.00     0.236 C 
BRANCH  36  37
HETATM   37  N   UNL     1      -7.961   0.395 -32.794  1.00  0.00    -0.072 N 
HETATM   38  H   UNL     1      -7.783   1.342 -33.155  1.00  0.00     0.279 HD
BRANCH  37  39
HETATM   39  C   UNL     1      -9.366   0.433 -32.202  1.00  0.00     0.230 C 
HETATM   40  C   UNL     1     -10.412   0.654 -33.279  1.00  0.00     0.034 C 
ENDBRANCH  37  39
BRANCH  37  41
HETATM   41  C   UNL     1      -7.908  -0.499 -34.025  1.00  0.00     0.230 C 
HETATM   42  C   UNL     1      -7.308   0.197 -35.232  1.00  0.00     0.034 C 
ENDBRANCH  37  41
ENDBRANCH  36  37
ENDBRANCH  35  36
ENDBRANCH  34  35
ENDBRANCH   1  34
TORSDOF 14
ENDMDL
