MODEL 1
REMARK VINA RESULT:      -9.1      0.000      0.000
REMARK  8 active torsions:
REMARK  status: ('A' for Active; 'I' for Inactive)
REMARK    1  A    between atoms: C_2  and  C_3 
REMARK    2  A    between atoms: C_6  and  N_7 
REMARK       I    between atoms: N_7  and  C_8 
REMARK    3  A    between atoms: C_8  and  C_9 
REMARK    4  A    between atoms: C_9  and  N_10 
REMARK    5  A    between atoms: C_13  and  C_14 
REMARK       I    between atoms: C_14  and  N_15 
REMARK    6  A    between atoms: N_15  and  C_16 
REMARK    7  A    between atoms: C_17  and  O_18 
REMARK    8  A    between atoms: C_26  and  N_27 
ROOT
HETATM    1  N   UNL     1      -3.610   3.794 -32.202  1.00  0.00    -0.248 N 
HETATM    2  N   UNL     1      -2.666   3.198 -31.436  1.00  0.00     0.007 NA
HETATM    3  N   UNL     1      -3.008   1.929 -31.299  1.00  0.00    -0.150 NA
HETATM    4  C   UNL     1      -4.207   1.728 -31.951  1.00  0.00     0.187 A 
HETATM    5  C   UNL     1      -4.613   2.918 -32.533  1.00  0.00     0.151 A 
ENDROOT
BRANCH   1   6
HETATM    6  C   UNL     1      -3.416   5.173 -32.592  1.00  0.00     0.251 C 
BRANCH   6   7
HETATM    7  C   UNL     1      -2.152   5.774 -31.999  1.00  0.00     0.241 C 
HETATM    8  N   UNL     1      -2.210   5.997 -30.632  1.00  0.00    -0.326 N 
HETATM    9  H   UNL     1      -3.032   5.636 -30.147  1.00  0.00     0.169 HD
HETATM   10  O   UNL     1      -1.218   6.080 -32.738  1.00  0.00    -0.271 OA
BRANCH   8  11
HETATM   11  C   UNL     1      -1.245   6.598 -29.801  1.00  0.00     0.034 A 
HETATM   12  C   UNL     1      -0.123   5.943 -29.299  1.00  0.00     0.030 A 
HETATM   13  C   UNL     1       0.794   6.630 -28.494  1.00  0.00     0.009 A 
HETATM   14  C   UNL     1       0.599   7.977 -28.171  1.00  0.00    -0.058 A 
HETATM   15  C   UNL     1      -0.528   8.634 -28.677  1.00  0.00     0.009 A 
HETATM   16  C   UNL     1      -1.438   7.950 -29.486  1.00  0.00     0.030 A 
BRANCH  14  17
HETATM   17  C   UNL     1       1.600   8.719 -27.322  1.00  0.00     0.034 C 
HETATM   18  C   UNL     1       1.920   7.966 -26.040  1.00  0.00     0.010 C 
ENDBRANCH  14  17
ENDBRANCH   8  11
ENDBRANCH   6   7
ENDBRANCH   1   6
BRANCH   5  19
HETATM   19  N   UNL     1      -5.695   3.240 -33.275  1.00  0.00    -0.382 N 
HETATM   20  H   UNL     1      -6.582   2.764 -33.085  1.00  0.00     0.157 HD
HETATM   21  H   UNL     1      -5.671   3.692 -34.185  1.00  0.00     0.157 HD
ENDBRANCH   5  19
BRANCH   4  22
HETATM   22  C   UNL     1      -4.854   0.418 -32.011  1.00  0.00     0.280 C 
HETATM   23  N   UNL     1      -4.640  -0.188 -33.237  1.00  0.00    -0.319 N 
HETATM   24  H   UNL     1      -4.234   0.428 -33.934  1.00  0.00     0.169 HD
HETATM   25  O   UNL     1      -5.543   0.003 -31.088  1.00  0.00    -0.265 OA
BRANCH  23  26
HETATM   26  C   UNL     1      -5.129  -1.425 -33.702  1.00  0.00     0.069 A 
HETATM   27  C   UNL     1      -6.418  -1.674 -34.190  1.00  0.00     0.095 A 
HETATM   28  C   UNL     1      -6.749  -2.934 -34.703  1.00  0.00     0.039 A 
HETATM   29  C   UNL     1      -5.822  -3.976 -34.678  1.00  0.00     0.009 A 
HETATM   30  C   UNL     1      -4.552  -3.768 -34.139  1.00  0.00    -0.060 A 
HETATM   31  C   UNL     1      -3.544  -4.878 -34.086  1.00  0.00     0.048 C 
HETATM   32  C   UNL     1      -4.221  -2.498 -33.644  1.00  0.00     0.039 A 
BRANCH  27  33
HETATM   33  O   UNL     1      -7.438  -0.762 -34.171  1.00  0.00    -0.354 OA
HETATM   34  C   UNL     1      -7.424   0.034 -35.356  1.00  0.00     0.210 C 
ENDBRANCH  27  33
ENDBRANCH  23  26
ENDBRANCH   4  22
TORSDOF 8
ENDMDL
MODEL 2
REMARK VINA RESULT:      -8.6      1.856      2.555
REMARK  8 active torsions:
REMARK  status: ('A' for Active; 'I' for Inactive)
REMARK    1  A    between atoms: C_2  and  C_3 
REMARK    2  A    between atoms: C_6  and  N_7 
REMARK       I    between atoms: N_7  and  C_8 
REMARK    3  A    between atoms: C_8  and  C_9 
REMARK    4  A    between atoms: C_9  and  N_10 
REMARK    5  A    between atoms: C_13  and  C_14 
REMARK       I    between atoms: C_14  and  N_15 
REMARK    6  A    between atoms: N_15  and  C_16 
REMARK    7  A    between atoms: C_17  and  O_18 
REMARK    8  A    between atoms: C_26  and  N_27 
ROOT
HETATM    1  N   UNL     1      -1.798   4.614 -32.306  1.00  0.00    -0.248 N 
HETATM    2  N   UNL     1      -1.887   3.805 -31.224  1.00  0.00     0.007 NA
HETATM    3  N   UNL     1      -2.953   3.041 -31.385  1.00  0.00    -0.150 NA
HETATM    4  C   UNL     1      -3.573   3.401 -32.563  1.00  0.00     0.187 A 
HETATM    5  C   UNL     1      -2.847   4.416 -33.167  1.00  0.00     0.151 A 
ENDROOT
BRANCH   1   6
HETATM    6  C   UNL     1      -0.650   5.485 -32.428  1.00  0.00     0.251 C 
BRANCH   6   7
HETATM    7  C   UNL     1       0.128   5.608 -31.128  1.00  0.00     0.241 C 
HETATM    8  N   UNL     1      -0.278   6.654 -30.314  1.00  0.00    -0.326 N 
HETATM    9  H   UNL     1      -1.118   7.156 -30.604  1.00  0.00     0.169 HD
HETATM   10  O   UNL     1       1.075   4.855 -30.910  1.00  0.00    -0.271 OA
BRANCH   8  11
HETATM   11  C   UNL     1       0.275   7.078 -29.090  1.00  0.00     0.034 A 
HETATM   12  C   UNL     1       1.114   8.181 -28.948  1.00  0.00     0.030 A 
HETATM   13  C   UNL     1       1.602   8.539 -27.685  1.00  0.00     0.009 A 
HETATM   14  C   UNL     1       1.267   7.795 -26.548  1.00  0.00    -0.058 A 
HETATM   15  C   UNL     1       0.423   6.688 -26.693  1.00  0.00     0.009 A 
HETATM   16  C   UNL     1      -0.068   6.336 -27.953  1.00  0.00     0.030 A 
BRANCH  14  17
HETATM   17  C   UNL     1       1.776   8.196 -25.188  1.00  0.00     0.034 C 
HETATM   18  C   UNL     1       1.165   9.509 -24.722  1.00  0.00     0.010 C 
ENDBRANCH  14  17
ENDBRANCH   8  11
ENDBRANCH   6   7
ENDBRANCH   1   6
BRANCH   5  19
HETATM   19  N   UNL     1      -3.029   5.095 -34.321  1.00  0.00    -0.382 N 
HETATM   20  H   UNL     1      -3.387   6.055 -34.277  1.00  0.00     0.157 HD
HETATM   21  H   UNL     1      -3.122   4.675 -35.242  1.00  0.00     0.157 HD
ENDBRANCH   5  19
BRANCH   4  22
HETATM   22  C   UNL     1      -4.777   2.729 -33.050  1.00  0.00     0.280 C 
HETATM   23  N   UNL     1      -4.754   1.379 -32.740  1.00  0.00    -0.319 N 
HETATM   24  H   UNL     1      -3.858   1.053 -32.396  1.00  0.00     0.169 HD
HETATM   25  O   UNL     1      -5.622   3.327 -33.704  1.00  0.00    -0.265 OA
BRANCH  23  26
HETATM   26  C   UNL     1      -5.699   0.387 -33.071  1.00  0.00     0.069 A 
HETATM   27  C   UNL     1      -7.060   0.400 -32.741  1.00  0.00     0.095 A 
HETATM   28  C   UNL     1      -7.910  -0.610 -33.207  1.00  0.00     0.039 A 
HETATM   29  C   UNL     1      -7.404  -1.675 -33.953  1.00  0.00     0.009 A 
HETATM   30  C   UNL     1      -6.040  -1.740 -34.241  1.00  0.00    -0.060 A 
HETATM   31  C   UNL     1      -5.469  -2.884 -35.026  1.00  0.00     0.048 C 
HETATM   32  C   UNL     1      -5.197  -0.715 -33.785  1.00  0.00     0.039 A 
BRANCH  27  33
HETATM   33  O   UNL     1      -7.649   1.335 -31.934  1.00  0.00    -0.354 OA
HETATM   34  C   UNL     1      -9.005   1.553 -32.321  1.00  0.00     0.210 C 
ENDBRANCH  27  33
ENDBRANCH  23  26
ENDBRANCH   4  22
TORSDOF 8
ENDMDL
MODEL 3
REMARK VINA RESULT:      -8.4      1.880     10.459
REMARK  8 active torsions:
REMARK  status: ('A' for Active; 'I' for Inactive)
REMARK    1  A    between atoms: C_2  and  C_3 
REMARK    2  A    between atoms: C_6  and  N_7 
REMARK       I    between atoms: N_7  and  C_8 
REMARK    3  A    between atoms: C_8  and  C_9 
REMARK    4  A    between atoms: C_9  and  N_10 
REMARK    5  A    between atoms: C_13  and  C_14 
REMARK       I    between atoms: C_14  and  N_15 
REMARK    6  A    between atoms: N_15  and  C_16 
REMARK    7  A    between atoms: C_17  and  O_18 
REMARK    8  A    between atoms: C_26  and  N_27 
ROOT
HETATM    1  N   UNL     1      -6.141   4.528 -31.537  1.00  0.00    -0.248 N 
HETATM    2  N   UNL     1      -6.449   5.763 -31.997  1.00  0.00     0.007 NA
HETATM    3  N   UNL     1      -5.355   6.499 -31.925  1.00  0.00    -0.150 NA
HETATM    4  C   UNL     1      -4.351   5.734 -31.370  1.00  0.00     0.187 A 
HETATM    5  C   UNL     1      -4.840   4.463 -31.109  1.00  0.00     0.151 A 
ENDROOT
BRANCH   1   6
HETATM    6  C   UNL     1      -7.148   3.492 -31.607  1.00  0.00     0.251 C 
BRANCH   6   7
HETATM    7  C   UNL     1      -6.845   2.457 -32.678  1.00  0.00     0.241 C 
HETATM    8  N   UNL     1      -6.875   1.145 -32.233  1.00  0.00    -0.326 N 
HETATM    9  H   UNL     1      -7.205   0.997 -31.279  1.00  0.00     0.169 HD
HETATM   10  O   UNL     1      -6.535   2.824 -33.810  1.00  0.00    -0.271 OA
BRANCH   8  11
HETATM   11  C   UNL     1      -6.575  -0.030 -32.948  1.00  0.00     0.034 A 
HETATM   12  C   UNL     1      -7.508  -0.767 -33.674  1.00  0.00     0.030 A 
HETATM   13  C   UNL     1      -7.113  -1.916 -34.371  1.00  0.00     0.009 A 
HETATM   14  C   UNL     1      -5.783  -2.349 -34.346  1.00  0.00    -0.058 A 
HETATM   15  C   UNL     1      -4.847  -1.607 -33.618  1.00  0.00     0.009 A 
HETATM   16  C   UNL     1      -5.241  -0.458 -32.928  1.00  0.00     0.030 A 
BRANCH  14  17
HETATM   17  C   UNL     1      -5.357  -3.573 -35.116  1.00  0.00     0.034 C 
HETATM   18  C   UNL     1      -6.518  -4.528 -35.345  1.00  0.00     0.010 C 
ENDBRANCH  14  17
ENDBRANCH   8  11
ENDBRANCH   6   7
ENDBRANCH   1   6
BRANCH   5  19
HETATM   19  N   UNL     1      -4.261   3.361 -30.584  1.00  0.00    -0.382 N 
HETATM   20  H   UNL     1      -3.239   3.331 -30.504  1.00  0.00     0.157 HD
HETATM   21  H   UNL     1      -4.694   2.444 -30.519  1.00  0.00     0.157 HD
ENDBRANCH   5  19
BRANCH   4  22
HETATM   22  C   UNL     1      -2.995   6.246 -31.172  1.00  0.00     0.280 C 
HETATM   23  N   UNL     1      -2.746   6.488 -29.831  1.00  0.00    -0.319 N 
HETATM   24  H   UNL     1      -3.572   6.440 -29.245  1.00  0.00     0.169 HD
HETATM   25  O   UNL     1      -2.256   6.480 -32.119  1.00  0.00    -0.265 OA
BRANCH  23  26
HETATM   26  C   UNL     1      -1.584   7.022 -29.238  1.00  0.00     0.069 A 
HETATM   27  C   UNL     1      -0.319   6.421 -29.209  1.00  0.00     0.095 A 
HETATM   28  C   UNL     1       0.774   7.101 -28.659  1.00  0.00     0.039 A 
HETATM   29  C   UNL     1       0.609   8.358 -28.079  1.00  0.00     0.009 A 
HETATM   30  C   UNL     1      -0.654   8.950 -28.041  1.00  0.00    -0.060 A 
HETATM   31  C   UNL     1      -0.861  10.293 -27.406  1.00  0.00     0.048 C 
HETATM   32  C   UNL     1      -1.743   8.270 -28.609  1.00  0.00     0.039 A 
BRANCH  27  33
HETATM   33  O   UNL     1      -0.058   5.154 -29.655  1.00  0.00    -0.354 OA
HETATM   34  C   UNL     1       0.777   5.189 -30.812  1.00  0.00     0.210 C 
ENDBRANCH  27  33
ENDBRANCH  23  26
ENDBRANCH   4  22
TORSDOF 8
ENDMDL
MODEL 4
REMARK VINA RESULT:      -8.3      1.610     10.719
REMARK  8 active torsions:
REMARK  status: ('A' for Active; 'I' for Inactive)
REMARK    1  A    between atoms: C_2  and  C_3 
REMARK    2  A    between atoms: C_6  and  N_7 
REMARK       I    between atoms: N_7  and  C_8 
REMARK    3  A    between atoms: C_8  and  C_9 
REMARK    4  A    between atoms: C_9  and  N_10 
REMARK    5  A    between atoms: C_13  and  C_14 
REMARK       I    between atoms: C_14  and  N_15 
REMARK    6  A    between atoms: N_15  and  C_16 
REMARK    7  A    between atoms: C_17  and  O_18 
REMARK    8  A    between atoms: C_26  and  N_27 
ROOT
HETATM    1  N   UNL     1      -4.168   3.980 -31.615  1.00  0.00    -0.248 N 
HETATM    2  N   UNL     1      -3.051   3.266 -31.887  1.00  0.00     0.007 NA
HETATM    3  N   UNL     1      -2.011   4.024 -31.587  1.00  0.00    -0.150 NA
HETATM    4  C   UNL     1      -2.476   5.251 -31.160  1.00  0.00     0.187 A 
HETATM    5  C   UNL     1      -3.862   5.243 -31.177  1.00  0.00     0.151 A 
ENDROOT
BRANCH   1   6
HETATM    6  C   UNL     1      -5.454   3.334 -31.760  1.00  0.00     0.251 C 
BRANCH   6   7
HETATM    7  C   UNL     1      -5.343   1.820 -31.817  1.00  0.00     0.241 C 
HETATM    8  N   UNL     1      -5.264   1.299 -33.099  1.00  0.00    -0.326 N 
HETATM    9  H   UNL     1      -5.171   1.973 -33.859  1.00  0.00     0.169 HD
HETATM   10  O   UNL     1      -5.397   1.165 -30.778  1.00  0.00    -0.271 OA
BRANCH   8  11
HETATM   11  C   UNL     1      -5.223  -0.052 -33.494  1.00  0.00     0.034 A 
HETATM   12  C   UNL     1      -4.183  -0.928 -33.190  1.00  0.00     0.030 A 
HETATM   13  C   UNL     1      -4.238  -2.263 -33.611  1.00  0.00     0.009 A 
HETATM   14  C   UNL     1      -5.328  -2.739 -34.349  1.00  0.00    -0.058 A 
HETATM   15  C   UNL     1      -6.372  -1.859 -34.652  1.00  0.00     0.009 A 
HETATM   16  C   UNL     1      -6.319  -0.529 -34.226  1.00  0.00     0.030 A 
BRANCH  14  17
HETATM   17  C   UNL     1      -5.394  -4.182 -34.781  1.00  0.00     0.034 C 
HETATM   18  C   UNL     1      -6.747  -4.529 -35.383  1.00  0.00     0.010 C 
ENDBRANCH  14  17
ENDBRANCH   8  11
ENDBRANCH   6   7
ENDBRANCH   1   6
BRANCH   5  19
HETATM   19  N   UNL     1      -4.776   6.181 -30.847  1.00  0.00    -0.382 N 
HETATM   20  H   UNL     1      -5.643   6.237 -31.392  1.00  0.00     0.157 HD
HETATM   21  H   UNL     1      -4.588   7.021 -30.307  1.00  0.00     0.157 HD
ENDBRANCH   5  19
BRANCH   4  22
HETATM   22  C   UNL     1      -1.576   6.320 -30.727  1.00  0.00     0.280 C 
HETATM   23  N   UNL     1      -1.880   6.736 -29.442  1.00  0.00    -0.319 N 
HETATM   24  H   UNL     1      -2.757   6.369 -29.088  1.00  0.00     0.169 HD
HETATM   25  O   UNL     1      -0.734   6.791 -31.481  1.00  0.00    -0.265 OA
BRANCH  23  26
HETATM   26  C   UNL     1      -1.280   7.765 -28.688  1.00  0.00     0.069 A 
HETATM   27  C   UNL     1      -1.765   9.071 -28.540  1.00  0.00     0.095 A 
HETATM   28  C   UNL     1      -1.116   9.974 -27.690  1.00  0.00     0.039 A 
HETATM   29  C   UNL     1       0.056   9.608 -27.027  1.00  0.00     0.009 A 
HETATM   30  C   UNL     1       0.591   8.332 -27.209  1.00  0.00    -0.060 A 
HETATM   31  C   UNL     1       1.859   7.920 -26.521  1.00  0.00     0.048 C 
HETATM   32  C   UNL     1      -0.075   7.426 -28.048  1.00  0.00     0.039 A 
BRANCH  27  33
HETATM   33  O   UNL     1      -2.844   9.574 -29.215  1.00  0.00    -0.354 OA
HETATM   34  C   UNL     1      -2.447  10.095 -30.483  1.00  0.00     0.210 C 
ENDBRANCH  27  33
ENDBRANCH  23  26
ENDBRANCH   4  22
TORSDOF 8
ENDMDL
MODEL 5
REMARK VINA RESULT:      -8.3      2.271      4.022
REMARK  8 active torsions:
REMARK  status: ('A' for Active; 'I' for Inactive)
REMARK    1  A    between atoms: C_2  and  C_3 
REMARK    2  A    between atoms: C_6  and  N_7 
REMARK       I    between atoms: N_7  and  C_8 
REMARK    3  A    between atoms: C_8  and  C_9 
REMARK    4  A    between atoms: C_9  and  N_10 
REMARK    5  A    between atoms: C_13  and  C_14 
REMARK       I    between atoms: C_14  and  N_15 
REMARK    6  A    between atoms: N_15  and  C_16 
REMARK    7  A    between atoms: C_17  and  O_18 
REMARK    8  A    between atoms: C_26  and  N_27 
ROOT
HETATM    1  N   UNL     1      -3.031   4.993 -34.247  1.00  0.00    -0.248 N 
HETATM    2  N   UNL     1      -3.999   5.499 -35.045  1.00  0.00     0.007 NA
HETATM    3  N   UNL     1      -5.144   4.951 -34.679  1.00  0.00    -0.150 NA
HETATM    4  C   UNL     1      -4.891   4.052 -33.664  1.00  0.00     0.187 A 
HETATM    5  C   UNL     1      -3.535   4.061 -33.376  1.00  0.00     0.151 A 
ENDROOT
BRANCH   1   6
HETATM    6  C   UNL     1      -1.687   5.512 -34.375  1.00  0.00     0.251 C 
BRANCH   6   7
HETATM    7  C   UNL     1      -1.395   6.623 -33.381  1.00  0.00     0.241 C 
HETATM    8  N   UNL     1      -1.101   6.184 -32.100  1.00  0.00    -0.326 N 
HETATM    9  H   UNL     1      -0.996   5.176 -31.978  1.00  0.00     0.169 HD
HETATM   10  O   UNL     1      -1.498   7.797 -33.732  1.00  0.00    -0.271 OA
BRANCH   8  11
HETATM   11  C   UNL     1      -0.856   6.952 -30.945  1.00  0.00     0.034 A 
HETATM   12  C   UNL     1      -1.777   7.825 -30.373  1.00  0.00     0.030 A 
HETATM   13  C   UNL     1      -1.450   8.535 -29.210  1.00  0.00     0.009 A 
HETATM   14  C   UNL     1      -0.195   8.388 -28.608  1.00  0.00    -0.058 A 
HETATM   15  C   UNL     1       0.728   7.509 -29.184  1.00  0.00     0.009 A 
HETATM   16  C   UNL     1       0.398   6.797 -30.340  1.00  0.00     0.030 A 
BRANCH  14  17
HETATM   17  C   UNL     1       0.145   9.135 -27.344  1.00  0.00     0.034 C 
HETATM   18  C   UNL     1       1.587   8.899 -26.920  1.00  0.00     0.010 C 
ENDBRANCH  14  17
ENDBRANCH   8  11
ENDBRANCH   6   7
ENDBRANCH   1   6
BRANCH   5  19
HETATM   19  N   UNL     1      -2.797   3.378 -32.474  1.00  0.00    -0.382 N 
HETATM   20  H   UNL     1      -1.799   3.596 -32.388  1.00  0.00     0.157 HD
HETATM   21  H   UNL     1      -3.047   2.480 -32.069  1.00  0.00     0.157 HD
ENDBRANCH   5  19
BRANCH   4  22
HETATM   22  C   UNL     1      -5.955   3.287 -33.013  1.00  0.00     0.280 C 
HETATM   23  N   UNL     1      -6.763   2.663 -33.948  1.00  0.00    -0.319 N 
HETATM   24  H   UNL     1      -6.600   2.969 -34.901  1.00  0.00     0.169 HD
HETATM   25  O   UNL     1      -6.100   3.302 -31.797  1.00  0.00    -0.265 OA
BRANCH  23  26
HETATM   26  C   UNL     1      -7.912   1.876 -33.729  1.00  0.00     0.069 A 
HETATM   27  C   UNL     1      -7.938   0.581 -33.197  1.00  0.00     0.095 A 
HETATM   28  C   UNL     1      -9.159  -0.057 -32.949  1.00  0.00     0.039 A 
HETATM   29  C   UNL     1     -10.363   0.561 -33.286  1.00  0.00     0.009 A 
HETATM   30  C   UNL     1     -10.359   1.826 -33.875  1.00  0.00    -0.060 A 
HETATM   31  C   UNL     1     -11.640   2.503 -34.263  1.00  0.00     0.048 C 
HETATM   32  C   UNL     1      -9.132   2.467 -34.103  1.00  0.00     0.039 A 
BRANCH  27  33
HETATM   33  O   UNL     1      -6.822  -0.161 -32.922  1.00  0.00    -0.354 OA
HETATM   34  C   UNL     1      -6.857  -1.403 -33.625  1.00  0.00     0.210 C 
ENDBRANCH  27  33
ENDBRANCH  23  26
ENDBRANCH   4  22
TORSDOF 8
ENDMDL
MODEL 6
REMARK VINA RESULT:      -8.2      2.174      9.866
REMARK  8 active torsions:
REMARK  status: ('A' for Active; 'I' for Inactive)
REMARK    1  A    between atoms: C_2  and  C_3 
REMARK    2  A    between atoms: C_6  and  N_7 
REMARK       I    between atoms: N_7  and  C_8 
REMARK    3  A    between atoms: C_8  and  C_9 
REMARK    4  A    between atoms: C_9  and  N_10 
REMARK    5  A    between atoms: C_13  and  C_14 
REMARK       I    between atoms: C_14  and  N_15 
REMARK    6  A    between atoms: N_15  and  C_16 
REMARK    7  A    between atoms: C_17  and  O_18 
REMARK    8  A    between atoms: C_26  and  N_27 
ROOT
HETATM    1  N   UNL     1      -7.046   3.585 -33.157  1.00  0.00    -0.248 N 
HETATM    2  N   UNL     1      -6.463   4.279 -34.162  1.00  0.00     0.007 NA
HETATM    3  N   UNL     1      -5.514   5.029 -33.630  1.00  0.00    -0.150 NA
HETATM    4  C   UNL     1      -5.526   4.840 -32.263  1.00  0.00     0.187 A 
HETATM    5  C   UNL     1      -6.509   3.919 -31.940  1.00  0.00     0.151 A 
ENDROOT
BRANCH   1   6
HETATM    6  C   UNL     1      -8.056   2.604 -33.488  1.00  0.00     0.251 C 
BRANCH   6   7
HETATM    7  C   UNL     1      -7.612   1.184 -33.180  1.00  0.00     0.241 C 
HETATM    8  N   UNL     1      -6.907   0.569 -34.202  1.00  0.00    -0.326 N 
HETATM    9  H   UNL     1      -6.657   1.156 -34.998  1.00  0.00     0.169 HD
HETATM   10  O   UNL     1      -7.947   0.658 -32.120  1.00  0.00    -0.271 OA
BRANCH   8  11
HETATM   11  C   UNL     1      -6.421  -0.752 -34.260  1.00  0.00     0.034 A 
HETATM   12  C   UNL     1      -7.152  -1.836 -34.742  1.00  0.00     0.030 A 
HETATM   13  C   UNL     1      -6.577  -3.113 -34.779  1.00  0.00     0.009 A 
HETATM   14  C   UNL     1      -5.270  -3.326 -34.327  1.00  0.00    -0.058 A 
HETATM   15  C   UNL     1      -4.538  -2.236 -33.846  1.00  0.00     0.009 A 
HETATM   16  C   UNL     1      -5.110  -0.961 -33.815  1.00  0.00     0.030 A 
BRANCH  14  17
HETATM   17  C   UNL     1      -4.648  -4.698 -34.390  1.00  0.00     0.034 C 
HETATM   18  C   UNL     1      -3.495  -4.840 -33.408  1.00  0.00     0.010 C 
ENDBRANCH  14  17
ENDBRANCH   8  11
ENDBRANCH   6   7
ENDBRANCH   1   6
BRANCH   5  19
HETATM   19  N   UNL     1      -6.908   3.398 -30.759  1.00  0.00    -0.382 N 
HETATM   20  H   UNL     1      -7.518   2.575 -30.764  1.00  0.00     0.157 HD
HETATM   21  H   UNL     1      -6.907   3.889 -29.869  1.00  0.00     0.157 HD
ENDBRANCH   5  19
BRANCH   4  22
HETATM   22  C   UNL     1      -4.578   5.511 -31.373  1.00  0.00     0.280 C 
HETATM   23  N   UNL     1      -3.339   5.645 -31.976  1.00  0.00    -0.319 N 
HETATM   24  H   UNL     1      -3.241   5.118 -32.837  1.00  0.00     0.169 HD
HETATM   25  O   UNL     1      -4.886   5.820 -30.229  1.00  0.00    -0.265 OA
BRANCH  23  26
HETATM   26  C   UNL     1      -2.156   6.192 -31.437  1.00  0.00     0.069 A 
HETATM   27  C   UNL     1      -1.845   7.554 -31.338  1.00  0.00     0.095 A 
HETATM   28  C   UNL     1      -0.670   7.967 -30.700  1.00  0.00     0.039 A 
HETATM   29  C   UNL     1       0.238   7.028 -30.210  1.00  0.00     0.009 A 
HETATM   30  C   UNL     1      -0.021   5.664 -30.353  1.00  0.00    -0.060 A 
HETATM   31  C   UNL     1       0.949   4.636 -29.851  1.00  0.00     0.048 C 
HETATM   32  C   UNL     1      -1.210   5.258 -30.978  1.00  0.00     0.039 A 
BRANCH  27  33
HETATM   33  O   UNL     1      -2.608   8.559 -31.869  1.00  0.00    -0.354 OA
HETATM   34  C   UNL     1      -3.369   9.207 -30.850  1.00  0.00     0.210 C 
ENDBRANCH  27  33
ENDBRANCH  23  26
ENDBRANCH   4  22
TORSDOF 8
ENDMDL
MODEL 7
REMARK VINA RESULT:      -8.2      5.924     10.187
REMARK  8 active torsions:
REMARK  status: ('A' for Active; 'I' for Inactive)
REMARK    1  A    between atoms: C_2  and  C_3 
REMARK    2  A    between atoms: C_6  and  N_7 
REMARK       I    between atoms: N_7  and  C_8 
REMARK    3  A    between atoms: C_8  and  C_9 
REMARK    4  A    between atoms: C_9  and  N_10 
REMARK    5  A    between atoms: C_13  and  C_14 
REMARK       I    between atoms: C_14  and  N_15 
REMARK    6  A    between atoms: N_15  and  C_16 
REMARK    7  A    between atoms: C_17  and  O_18 
REMARK    8  A    between atoms: C_26  and  N_27 
ROOT
HETATM    1  N   UNL     1      -8.258   3.566 -31.888  1.00  0.00    -0.248 N 
HETATM    2  N   UNL     1      -8.806   2.923 -30.831  1.00  0.00     0.007 NA
HETATM    3  N   UNL     1     -10.099   2.794 -31.069  1.00  0.00    -0.150 NA
HETATM    4  C   UNL     1     -10.382   3.403 -32.274  1.00  0.00     0.187 A 
HETATM    5  C   UNL     1      -9.210   3.911 -32.813  1.00  0.00     0.151 A 
ENDROOT
BRANCH   1   6
HETATM    6  C   UNL     1      -6.823   3.742 -31.924  1.00  0.00     0.251 C 
BRANCH   6   7
HETATM    7  C   UNL     1      -6.118   2.632 -32.685  1.00  0.00     0.241 C 
HETATM    8  N   UNL     1      -6.759   1.404 -32.632  1.00  0.00    -0.326 N 
HETATM    9  H   UNL     1      -7.682   1.392 -32.196  1.00  0.00     0.169 HD
HETATM   10  O   UNL     1      -5.035   2.854 -33.222  1.00  0.00    -0.271 OA
BRANCH   8  11
HETATM   11  C   UNL     1      -6.337   0.172 -33.167  1.00  0.00     0.034 A 
HETATM   12  C   UNL     1      -5.124  -0.442 -32.862  1.00  0.00     0.030 A 
HETATM   13  C   UNL     1      -4.797  -1.680 -33.430  1.00  0.00     0.009 A 
HETATM   14  C   UNL     1      -5.673  -2.318 -34.315  1.00  0.00    -0.058 A 
HETATM   15  C   UNL     1      -6.891  -1.701 -34.618  1.00  0.00     0.009 A 
HETATM   16  C   UNL     1      -7.219  -0.469 -34.047  1.00  0.00     0.030 A 
BRANCH  14  17
HETATM   17  C   UNL     1      -5.328  -3.661 -34.906  1.00  0.00     0.034 C 
HETATM   18  C   UNL     1      -6.573  -4.467 -35.240  1.00  0.00     0.010 C 
ENDBRANCH  14  17
ENDBRANCH   8  11
ENDBRANCH   6   7
ENDBRANCH   1   6
BRANCH   5  19
HETATM   19  N   UNL     1      -8.956   4.577 -33.961  1.00  0.00    -0.382 N 
HETATM   20  H   UNL     1      -8.421   4.105 -34.697  1.00  0.00     0.157 HD
HETATM   21  H   UNL     1      -8.986   5.586 -34.074  1.00  0.00     0.157 HD
ENDBRANCH   5  19
BRANCH   4  22
HETATM   22  C   UNL     1     -11.729   3.420 -32.845  1.00  0.00     0.280 C 
HETATM   23  N   UNL     1     -12.691   3.321 -31.854  1.00  0.00    -0.319 N 
HETATM   24  H   UNL     1     -12.317   3.083 -30.941  1.00  0.00     0.169 HD
HETATM   25  O   UNL     1     -11.909   3.444 -34.056  1.00  0.00    -0.265 OA
BRANCH  23  26
HETATM   26  C   UNL     1     -14.092   3.259 -31.995  1.00  0.00     0.069 A 
HETATM   27  C   UNL     1     -14.827   2.164 -32.466  1.00  0.00     0.095 A 
HETATM   28  C   UNL     1     -16.227   2.203 -32.474  1.00  0.00     0.039 A 
HETATM   29  C   UNL     1     -16.907   3.353 -32.073  1.00  0.00     0.009 A 
HETATM   30  C   UNL     1     -16.193   4.478 -31.658  1.00  0.00    -0.060 A 
HETATM   31  C   UNL     1     -16.901   5.732 -31.239  1.00  0.00     0.048 C 
HETATM   32  C   UNL     1     -14.791   4.425 -31.636  1.00  0.00     0.039 A 
BRANCH  27  33
HETATM   33  O   UNL     1     -14.269   1.024 -32.978  1.00  0.00    -0.354 OA
HETATM   34  C   UNL     1     -14.625   0.862 -34.351  1.00  0.00     0.210 C 
ENDBRANCH  27  33
ENDBRANCH  23  26
ENDBRANCH   4  22
TORSDOF 8
ENDMDL
MODEL 8
REMARK VINA RESULT:      -8.2      5.913     10.031
REMARK  8 active torsions:
REMARK  status: ('A' for Active; 'I' for Inactive)
REMARK    1  A    between atoms: C_2  and  C_3 
REMARK    2  A    between atoms: C_6  and  N_7 
REMARK       I    between atoms: N_7  and  C_8 
REMARK    3  A    between atoms: C_8  and  C_9 
REMARK    4  A    between atoms: C_9  and  N_10 
REMARK    5  A    between atoms: C_13  and  C_14 
REMARK       I    between atoms: C_14  and  N_15 
REMARK    6  A    between atoms: N_15  and  C_16 
REMARK    7  A    between atoms: C_17  and  O_18 
REMARK    8  A    between atoms: C_26  and  N_27 
ROOT
HETATM    1  N   UNL     1      -9.128   3.529 -32.544  1.00  0.00    -0.248 N 
HETATM    2  N   UNL     1      -8.870   3.339 -33.859  1.00  0.00     0.007 NA
HETATM    3  N   UNL     1      -8.137   2.245 -33.967  1.00  0.00    -0.150 NA
HETATM    4  C   UNL     1      -7.891   1.759 -32.700  1.00  0.00     0.187 A 
HETATM    5  C   UNL     1      -8.516   2.575 -31.770  1.00  0.00     0.151 A 
ENDROOT
BRANCH   1   6
HETATM    6  C   UNL     1     -10.007   4.611 -32.160  1.00  0.00     0.251 C 
BRANCH   6   7
HETATM    7  C   UNL     1     -11.348   4.118 -31.644  1.00  0.00     0.241 C 
HETATM    8  N   UNL     1     -12.334   4.018 -32.613  1.00  0.00    -0.326 N 
HETATM    9  H   UNL     1     -12.039   4.168 -33.579  1.00  0.00     0.169 HD
HETATM   10  O   UNL     1     -11.500   3.912 -30.442  1.00  0.00    -0.271 OA
BRANCH   8  11
HETATM   11  C   UNL     1     -13.687   3.663 -32.454  1.00  0.00     0.034 A 
HETATM   12  C   UNL     1     -14.200   2.391 -32.700  1.00  0.00     0.030 A 
HETATM   13  C   UNL     1     -15.560   2.127 -32.495  1.00  0.00     0.009 A 
HETATM   14  C   UNL     1     -16.428   3.130 -32.049  1.00  0.00    -0.058 A 
HETATM   15  C   UNL     1     -15.910   4.405 -31.800  1.00  0.00     0.009 A 
HETATM   16  C   UNL     1     -14.552   4.667 -31.999  1.00  0.00     0.030 A 
BRANCH  14  17
HETATM   17  C   UNL     1     -17.886   2.835 -31.807  1.00  0.00     0.034 C 
HETATM   18  C   UNL     1     -18.725   3.081 -33.052  1.00  0.00     0.010 C 
ENDBRANCH  14  17
ENDBRANCH   8  11
ENDBRANCH   6   7
ENDBRANCH   1   6
BRANCH   5  19
HETATM   19  N   UNL     1      -8.584   2.525 -30.422  1.00  0.00    -0.382 N 
HETATM   20  H   UNL     1      -7.923   1.927 -29.917  1.00  0.00     0.157 HD
HETATM   21  H   UNL     1      -9.392   2.789 -29.864  1.00  0.00     0.157 HD
ENDBRANCH   5  19
BRANCH   4  22
HETATM   22  C   UNL     1      -7.123   0.536 -32.466  1.00  0.00     0.280 C 
HETATM   23  N   UNL     1      -6.594   0.047 -33.649  1.00  0.00    -0.319 N 
HETATM   24  H   UNL     1      -6.959   0.500 -34.480  1.00  0.00     0.169 HD
HETATM   25  O   UNL     1      -7.059   0.025 -31.356  1.00  0.00    -0.265 OA
BRANCH  23  26
HETATM   26  C   UNL     1      -5.837  -1.124 -33.853  1.00  0.00     0.069 A 
HETATM   27  C   UNL     1      -4.500  -1.319 -33.485  1.00  0.00     0.095 A 
HETATM   28  C   UNL     1      -3.890  -2.566 -33.668  1.00  0.00     0.039 A 
HETATM   29  C   UNL     1      -4.584  -3.612 -34.276  1.00  0.00     0.009 A 
HETATM   30  C   UNL     1      -5.898  -3.422 -34.707  1.00  0.00    -0.060 A 
HETATM   31  C   UNL     1      -6.658  -4.526 -35.379  1.00  0.00     0.048 C 
HETATM   32  C   UNL     1      -6.508  -2.175 -34.504  1.00  0.00     0.039 A 
BRANCH  27  33
HETATM   33  O   UNL     1      -3.691  -0.340 -32.975  1.00  0.00    -0.354 OA
HETATM   34  C   UNL     1      -3.430  -0.572 -31.591  1.00  0.00     0.210 C 
ENDBRANCH  27  33
ENDBRANCH  23  26
ENDBRANCH   4  22
TORSDOF 8
ENDMDL
MODEL 9
REMARK VINA RESULT:      -8.1      1.338      1.780
REMARK  8 active torsions:
REMARK  status: ('A' for Active; 'I' for Inactive)
REMARK    1  A    between atoms: C_2  and  C_3 
REMARK    2  A    between atoms: C_6  and  N_7 
REMARK       I    between atoms: N_7  and  C_8 
REMARK    3  A    between atoms: C_8  and  C_9 
REMARK    4  A    between atoms: C_9  and  N_10 
REMARK    5  A    between atoms: C_13  and  C_14 
REMARK       I    between atoms: C_14  and  N_15 
REMARK    6  A    between atoms: N_15  and  C_16 
REMARK    7  A    between atoms: C_17  and  O_18 
REMARK    8  A    between atoms: C_26  and  N_27 
ROOT
HETATM    1  N   UNL     1      -3.311   4.885 -31.618  1.00  0.00    -0.248 N 
HETATM    2  N   UNL     1      -2.195   4.144 -31.428  1.00  0.00     0.007 NA
HETATM    3  N   UNL     1      -2.561   2.875 -31.394  1.00  0.00    -0.150 NA
HETATM    4  C   UNL     1      -3.933   2.814 -31.520  1.00  0.00     0.187 A 
HETATM    5  C   UNL     1      -4.434   4.099 -31.660  1.00  0.00     0.151 A 
ENDROOT
BRANCH   1   6
HETATM    6  C   UNL     1      -3.172   6.313 -31.797  1.00  0.00     0.251 C 
BRANCH   6   7
HETATM    7  C   UNL     1      -1.961   6.876 -31.071  1.00  0.00     0.241 C 
HETATM    8  N   UNL     1      -1.941   6.625 -29.708  1.00  0.00    -0.326 N 
HETATM    9  H   UNL     1      -2.665   6.000 -29.351  1.00  0.00     0.169 HD
HETATM   10  O   UNL     1      -1.139   7.551 -31.689  1.00  0.00    -0.271 OA
BRANCH   8  11
HETATM   11  C   UNL     1      -1.007   7.062 -28.750  1.00  0.00     0.034 A 
HETATM   12  C   UNL     1      -1.115   8.254 -28.036  1.00  0.00     0.030 A 
HETATM   13  C   UNL     1      -0.144   8.598 -27.087  1.00  0.00     0.009 A 
HETATM   14  C   UNL     1       0.951   7.762 -26.843  1.00  0.00    -0.058 A 
HETATM   15  C   UNL     1       1.056   6.565 -27.559  1.00  0.00     0.009 A 
HETATM   16  C   UNL     1       0.084   6.219 -28.502  1.00  0.00     0.030 A 
BRANCH  14  17
HETATM   17  C   UNL     1       1.981   8.124 -25.804  1.00  0.00     0.034 C 
HETATM   18  C   UNL     1       1.945   9.607 -25.467  1.00  0.00     0.010 C 
ENDBRANCH  14  17
ENDBRANCH   8  11
ENDBRANCH   6   7
ENDBRANCH   1   6
BRANCH   5  19
HETATM   19  N   UNL     1      -5.691   4.567 -31.821  1.00  0.00    -0.382 N 
HETATM   20  H   UNL     1      -6.186   4.362 -32.694  1.00  0.00     0.157 HD
HETATM   21  H   UNL     1      -6.102   5.337 -31.300  1.00  0.00     0.157 HD
ENDBRANCH   5  19
BRANCH   4  22
HETATM   22  C   UNL     1      -4.661   1.545 -31.544  1.00  0.00     0.280 C 
HETATM   23  N   UNL     1      -4.846   1.102 -32.843  1.00  0.00    -0.319 N 
HETATM   24  H   UNL     1      -4.613   1.791 -33.549  1.00  0.00     0.169 HD
HETATM   25  O   UNL     1      -5.087   1.034 -30.517  1.00  0.00    -0.265 OA
BRANCH  23  26
HETATM   26  C   UNL     1      -5.533  -0.046 -33.288  1.00  0.00     0.069 A 
HETATM   27  C   UNL     1      -6.921  -0.189 -33.395  1.00  0.00     0.095 A 
HETATM   28  C   UNL     1      -7.473  -1.357 -33.936  1.00  0.00     0.039 A 
HETATM   29  C   UNL     1      -6.652  -2.417 -34.318  1.00  0.00     0.009 A 
HETATM   30  C   UNL     1      -5.268  -2.321 -34.163  1.00  0.00    -0.060 A 
HETATM   31  C   UNL     1      -4.366  -3.456 -34.551  1.00  0.00     0.048 C 
HETATM   32  C   UNL     1      -4.722  -1.141 -33.637  1.00  0.00     0.039 A 
BRANCH  27  33
HETATM   33  O   UNL     1      -7.827   0.740 -32.960  1.00  0.00    -0.354 OA
HETATM   34  C   UNL     1      -9.159   0.238 -33.074  1.00  0.00     0.210 C 
ENDBRANCH  27  33
ENDBRANCH  23  26
ENDBRANCH   4  22
TORSDOF 8
ENDMDL
MODEL 10
REMARK VINA RESULT:      -7.8      1.890      3.072
REMARK  8 active torsions:
REMARK  status: ('A' for Active; 'I' for Inactive)
REMARK    1  A    between atoms: C_2  and  C_3 
REMARK    2  A    between atoms: C_6  and  N_7 
REMARK       I    between atoms: N_7  and  C_8 
REMARK    3  A    between atoms: C_8  and  C_9 
REMARK    4  A    between atoms: C_9  and  N_10 
REMARK    5  A    between atoms: C_13  and  C_14 
REMARK       I    between atoms: C_14  and  N_15 
REMARK    6  A    between atoms: N_15  and  C_16 
REMARK    7  A    between atoms: C_17  and  O_18 
REMARK    8  A    between atoms: C_26  and  N_27 
ROOT
HETATM    1  N   UNL     1      -2.611   5.566 -32.759  1.00  0.00    -0.248 N 
HETATM    2  N   UNL     1      -1.682   4.665 -32.363  1.00  0.00     0.007 NA
HETATM    3  N   UNL     1      -2.318   3.554 -32.037  1.00  0.00    -0.150 NA
HETATM    4  C   UNL     1      -3.672   3.767 -32.187  1.00  0.00     0.187 A 
HETATM    5  C   UNL     1      -3.881   5.059 -32.646  1.00  0.00     0.151 A 
ENDROOT
BRANCH   1   6
HETATM    6  C   UNL     1      -2.164   6.842 -33.270  1.00  0.00     0.251 C 
BRANCH   6   7
HETATM    7  C   UNL     1      -1.640   7.757 -32.175  1.00  0.00     0.241 C 
HETATM    8  N   UNL     1      -1.120   7.095 -31.075  1.00  0.00    -0.326 N 
HETATM    9  H   UNL     1      -1.033   6.082 -31.154  1.00  0.00     0.169 HD
HETATM   10  O   UNL     1      -1.764   8.976 -32.288  1.00  0.00    -0.271 OA
BRANCH   8  11
HETATM   11  C   UNL     1      -0.625   7.643 -29.876  1.00  0.00     0.034 A 
HETATM   12  C   UNL     1       0.669   7.447 -29.399  1.00  0.00     0.030 A 
HETATM   13  C   UNL     1       1.080   8.050 -28.203  1.00  0.00     0.009 A 
HETATM   14  C   UNL     1       0.201   8.848 -27.462  1.00  0.00    -0.058 A 
HETATM   15  C   UNL     1      -1.098   9.045 -27.944  1.00  0.00     0.009 A 
HETATM   16  C   UNL     1      -1.504   8.449 -29.140  1.00  0.00     0.030 A 
BRANCH  14  17
HETATM   17  C   UNL     1       0.653   9.513 -26.187  1.00  0.00     0.034 C 
HETATM   18  C   UNL     1       1.979   8.950 -25.697  1.00  0.00     0.010 C 
ENDBRANCH  14  17
ENDBRANCH   8  11
ENDBRANCH   6   7
ENDBRANCH   1   6
BRANCH   5  19
HETATM   19  N   UNL     1      -5.006   5.739 -32.952  1.00  0.00    -0.382 N 
HETATM   20  H   UNL     1      -5.178   6.641 -32.496  1.00  0.00     0.157 HD
HETATM   21  H   UNL     1      -5.842   5.337 -33.368  1.00  0.00     0.157 HD
ENDBRANCH   5  19
BRANCH   4  22
HETATM   22  C   UNL     1      -4.662   2.722 -31.929  1.00  0.00     0.280 C 
HETATM   23  N   UNL     1      -5.101   2.149 -33.111  1.00  0.00    -0.319 N 
HETATM   24  H   UNL     1      -4.808   2.649 -33.943  1.00  0.00     0.169 HD
HETATM   25  O   UNL     1      -5.061   2.486 -30.796  1.00  0.00    -0.265 OA
BRANCH  23  26
HETATM   26  C   UNL     1      -6.076   1.147 -33.290  1.00  0.00     0.069 A 
HETATM   27  C   UNL     1      -5.832  -0.212 -33.522  1.00  0.00     0.095 A 
HETATM   28  C   UNL     1      -6.895  -1.120 -33.597  1.00  0.00     0.039 A 
HETATM   29  C   UNL     1      -8.214  -0.676 -33.504  1.00  0.00     0.009 A 
HETATM   30  C   UNL     1      -8.483   0.683 -33.335  1.00  0.00    -0.060 A 
HETATM   31  C   UNL     1      -9.894   1.187 -33.250  1.00  0.00     0.048 C 
HETATM   32  C   UNL     1      -7.411   1.584 -33.243  1.00  0.00     0.039 A 
BRANCH  27  33
HETATM   33  O   UNL     1      -4.589  -0.747 -33.731  1.00  0.00    -0.354 OA
HETATM   34  C   UNL     1      -4.078  -1.320 -32.527  1.00  0.00     0.210 C 
ENDBRANCH  27  33
ENDBRANCH  23  26
ENDBRANCH   4  22
TORSDOF 8
ENDMDL
