MODEL 1
REMARK VINA RESULT:     -10.0      0.000      0.000
REMARK  8 active torsions:
REMARK  status: ('A' for Active; 'I' for Inactive)
REMARK    1  A    between atoms: C_4  and  N_5 
REMARK       I    between atoms: N_5  and  C_6 
REMARK    2  A    between atoms: C_6  and  C_7 
REMARK    3  A    between atoms: C_10  and  N_11 
REMARK       I    between atoms: N_11  and  C_12 
REMARK       I    between atoms: C_12  and  N_21 
REMARK    4  A    between atoms: N_21  and  CA_22 
REMARK    5  A    between atoms: CA_22  and  C_23 
REMARK    6  A    between atoms: CA_22  and  CB_25 
REMARK    7  A    between atoms: C_23  and  O_24 
REMARK    8  A    between atoms: CB_25  and  CG_26 
ROOT
HETATM    1  N   UNK A   0      -5.829   2.874 -31.653  1.00  0.00    -0.309 N 
HETATM    2  C   UNK A   0      -6.649   2.619 -32.729  1.00  0.00     0.321 C 
HETATM    3  O   UNK A   0      -6.850   3.349 -33.691  1.00  0.00    -0.247 OA
HETATM    4  H   UNK A   0      -6.027   2.327 -30.829  1.00  0.00     0.170 HD
ATOM      5  N   TRP A   1      -7.231   1.377 -32.592  1.00  0.00    -0.336 N 
ATOM      6  H   TRP A   1      -6.657   0.703 -32.100  1.00  0.00     0.164 HD
ENDROOT
BRANCH   1   7
HETATM    7  C   UNK A   0      -4.722   3.736 -31.607  1.00  0.00     0.036 A 
HETATM    8  C   UNK A   0      -3.459   3.391 -32.087  1.00  0.00     0.030 A 
HETATM    9  C   UNK A   0      -2.346   4.196 -31.812  1.00  0.00     0.019 A 
HETATM   10  C   UNK A   0      -2.490   5.379 -31.076  1.00  0.00     0.032 A 
HETATM   11  C   UNK A   0      -3.775   5.763 -30.669  1.00  0.00     0.019 A 
HETATM   12  C   UNK A   0      -4.881   4.948 -30.930  1.00  0.00     0.030 A 
BRANCH  10  13
HETATM   13  C   UNK A   0      -1.329   6.192 -30.582  1.00  0.00     0.256 C 
HETATM   14  N   UNK A   0      -0.833   5.870 -29.331  1.00  0.00    -0.323 N 
HETATM   15  H   UNK A   0      -1.087   4.976 -28.938  1.00  0.00     0.169 HD
HETATM   16  O   UNK A   0      -0.910   7.095 -31.300  1.00  0.00    -0.267 OA
BRANCH  14  17
HETATM   17  C   UNK A   0      -0.002   6.671 -28.519  1.00  0.00     0.035 A 
HETATM   18  C   UNK A   0       0.742   7.753 -28.996  1.00  0.00     0.029 A 
HETATM   19  C   UNK A   0       1.491   8.543 -28.118  1.00  0.00     0.002 A 
HETATM   20  C   UNK A   0       1.504   8.259 -26.756  1.00  0.00     0.000 A 
HETATM   21  C   UNK A   0       0.769   7.181 -26.269  1.00  0.00     0.002 A 
HETATM   22  C   UNK A   0       0.019   6.392 -27.146  1.00  0.00     0.029 A 
ENDBRANCH  14  17
ENDBRANCH  10  13
ENDBRANCH   1   7
BRANCH   5  23
ATOM     23  CA  TRP A   1      -7.981   0.760 -33.685  1.00  0.00     0.114 C 
BRANCH  23  24
ATOM     24  C   TRP A   1      -9.009  -0.231 -33.105  1.00  0.00     0.189 C 
BRANCH  24  25
ATOM     25  O   TRP A   1      -9.732   0.337 -32.012  1.00  0.00    -0.399 OA
ATOM     26  H   TRP A   1      -9.091   0.472 -31.292  1.00  0.00     0.209 HD
ENDBRANCH  24  25
ENDBRANCH  23  24
BRANCH  23  27
ATOM     27  CB  TRP A   1      -7.087   0.133 -34.785  1.00  0.00     0.068 C 
BRANCH  27  28
ATOM     28  CG  TRP A   1      -5.956  -0.746 -34.328  1.00  0.00    -0.028 A 
ATOM     29  CD2 TRP A   1      -5.873  -2.173 -34.476  1.00  0.00    -0.002 A 
ATOM     30  CE2 TRP A   1      -4.668  -2.588 -33.910  1.00  0.00     0.042 A 
ATOM     31  CE3 TRP A   1      -6.717  -3.154 -35.038  1.00  0.00     0.014 A 
ATOM     32  CZ2 TRP A   1      -4.257  -3.927 -33.893  1.00  0.00     0.030 A 
ATOM     33  NE1 TRP A   1      -4.048  -1.464 -33.417  1.00  0.00    -0.365 N 
ATOM     34  CH2 TRP A   1      -5.109  -4.876 -34.463  1.00  0.00     0.002 A 
ATOM     35  CZ3 TRP A   1      -6.326  -4.498 -35.024  1.00  0.00     0.001 A 
ATOM     36  HE1 TRP A   1      -3.156  -1.465 -32.945  1.00  0.00     0.165 HD
ATOM     37  CD1 TRP A   1      -4.821  -0.358 -33.644  1.00  0.00     0.096 A 
ENDBRANCH  27  28
ENDBRANCH  23  27
ENDBRANCH   5  23
TORSDOF 8
ENDMDL
MODEL 2
REMARK VINA RESULT:      -9.9      6.018      9.739
REMARK  8 active torsions:
REMARK  status: ('A' for Active; 'I' for Inactive)
REMARK    1  A    between atoms: C_4  and  N_5 
REMARK       I    between atoms: N_5  and  C_6 
REMARK    2  A    between atoms: C_6  and  C_7 
REMARK    3  A    between atoms: C_10  and  N_11 
REMARK       I    between atoms: N_11  and  C_12 
REMARK       I    between atoms: C_12  and  N_21 
REMARK    4  A    between atoms: N_21  and  CA_22 
REMARK    5  A    between atoms: CA_22  and  C_23 
REMARK    6  A    between atoms: CA_22  and  CB_25 
REMARK    7  A    between atoms: C_23  and  O_24 
REMARK    8  A    between atoms: CB_25  and  CG_26 
ROOT
HETATM    1  N   UNK A   0     -10.431   3.258 -30.621  1.00  0.00    -0.309 N 
HETATM    2  C   UNK A   0     -11.003   4.426 -31.073  1.00  0.00     0.321 C 
HETATM    3  O   UNK A   0     -10.531   5.211 -31.884  1.00  0.00    -0.247 OA
HETATM    4  H   UNK A   0     -10.797   2.916 -29.746  1.00  0.00     0.170 HD
ATOM      5  N   TRP A   1     -12.236   4.604 -30.483  1.00  0.00    -0.336 N 
ATOM      6  H   TRP A   1     -12.720   3.740 -30.269  1.00  0.00     0.164 HD
ENDROOT
BRANCH   1   7
HETATM    7  C   UNK A   0      -9.470   2.469 -31.272  1.00  0.00     0.036 A 
HETATM    8  C   UNK A   0      -9.771   1.608 -32.327  1.00  0.00     0.030 A 
HETATM    9  C   UNK A   0      -8.825   0.682 -32.787  1.00  0.00     0.019 A 
HETATM   10  C   UNK A   0      -7.548   0.629 -32.213  1.00  0.00     0.032 A 
HETATM   11  C   UNK A   0      -7.224   1.553 -31.211  1.00  0.00     0.019 A 
HETATM   12  C   UNK A   0      -8.177   2.464 -30.742  1.00  0.00     0.030 A 
BRANCH  10  13
HETATM   13  C   UNK A   0      -6.549  -0.449 -32.517  1.00  0.00     0.256 C 
HETATM   14  N   UNK A   0      -6.643  -1.050 -33.760  1.00  0.00    -0.323 N 
HETATM   15  H   UNK A   0      -7.180  -0.580 -34.473  1.00  0.00     0.169 HD
HETATM   16  O   UNK A   0      -5.735  -0.743 -31.647  1.00  0.00    -0.267 OA
BRANCH  14  17
HETATM   17  C   UNK A   0      -6.068  -2.279 -34.151  1.00  0.00     0.035 A 
HETATM   18  C   UNK A   0      -4.710  -2.579 -34.020  1.00  0.00     0.029 A 
HETATM   19  C   UNK A   0      -4.224  -3.843 -34.367  1.00  0.00     0.002 A 
HETATM   20  C   UNK A   0      -5.091  -4.819 -34.848  1.00  0.00     0.000 A 
HETATM   21  C   UNK A   0      -6.447  -4.531 -34.986  1.00  0.00     0.002 A 
HETATM   22  C   UNK A   0      -6.932  -3.267 -34.638  1.00  0.00     0.029 A 
ENDBRANCH  14  17
ENDBRANCH  10  13
ENDBRANCH   1   7
BRANCH   5  23
ATOM     23  CA  TRP A   1     -13.156   5.646 -30.935  1.00  0.00     0.114 C 
BRANCH  23  24
ATOM     24  C   TRP A   1     -13.629   6.472 -29.722  1.00  0.00     0.189 C 
BRANCH  24  25
ATOM     25  O   TRP A   1     -13.952   5.638 -28.609  1.00  0.00    -0.399 OA
ATOM     26  H   TRP A   1     -13.356   5.895 -27.884  1.00  0.00     0.209 HD
ENDBRANCH  24  25
ENDBRANCH  23  24
BRANCH  23  27
ATOM     27  CB  TRP A   1     -14.326   5.120 -31.805  1.00  0.00     0.068 C 
BRANCH  27  28
ATOM     28  CG  TRP A   1     -14.251   3.687 -32.256  1.00  0.00    -0.028 A 
ATOM     29  CD2 TRP A   1     -13.516   3.187 -33.384  1.00  0.00    -0.002 A 
ATOM     30  CE2 TRP A   1     -13.724   1.809 -33.447  1.00  0.00     0.042 A 
ATOM     31  CE3 TRP A   1     -12.693   3.782 -34.363  1.00  0.00     0.014 A 
ATOM     32  CZ2 TRP A   1     -13.138   0.996 -34.426  1.00  0.00     0.030 A 
ATOM     33  NE1 TRP A   1     -14.568   1.483 -32.413  1.00  0.00    -0.365 N 
ATOM     34  CH2 TRP A   1     -12.321   1.610 -35.379  1.00  0.00     0.002 A 
ATOM     35  CZ3 TRP A   1     -12.105   2.985 -35.354  1.00  0.00     0.001 A 
ATOM     36  HE1 TRP A   1     -14.897   0.549 -32.218  1.00  0.00     0.165 HD
ATOM     37  CD1 TRP A   1     -14.907   2.604 -31.705  1.00  0.00     0.096 A 
ENDBRANCH  27  28
ENDBRANCH  23  27
ENDBRANCH   5  23
TORSDOF 8
ENDMDL
MODEL 3
REMARK VINA RESULT:      -9.7      1.809     10.795
REMARK  8 active torsions:
REMARK  status: ('A' for Active; 'I' for Inactive)
REMARK    1  A    between atoms: C_4  and  N_5 
REMARK       I    between atoms: N_5  and  C_6 
REMARK    2  A    between atoms: C_6  and  C_7 
REMARK    3  A    between atoms: C_10  and  N_11 
REMARK       I    between atoms: N_11  and  C_12 
REMARK       I    between atoms: C_12  and  N_21 
REMARK    4  A    between atoms: N_21  and  CA_22 
REMARK    5  A    between atoms: CA_22  and  C_23 
REMARK    6  A    between atoms: CA_22  and  CB_25 
REMARK    7  A    between atoms: C_23  and  O_24 
REMARK    8  A    between atoms: CB_25  and  CG_26 
ROOT
HETATM    1  N   UNK A   0      -3.735   4.548 -31.129  1.00  0.00    -0.309 N 
HETATM    2  C   UNK A   0      -2.610   5.133 -31.663  1.00  0.00     0.321 C 
HETATM    3  O   UNK A   0      -1.774   4.601 -32.382  1.00  0.00    -0.247 OA
HETATM    4  H   UNK A   0      -4.122   5.023 -30.328  1.00  0.00     0.170 HD
ATOM      5  N   TRP A   1      -2.545   6.457 -31.286  1.00  0.00    -0.336 N 
ATOM      6  H   TRP A   1      -3.449   6.896 -31.158  1.00  0.00     0.164 HD
ENDROOT
BRANCH   1   7
HETATM    7  C   UNK A   0      -4.432   3.430 -31.616  1.00  0.00     0.036 A 
HETATM    8  C   UNK A   0      -4.381   2.172 -31.016  1.00  0.00     0.030 A 
HETATM    9  C   UNK A   0      -4.908   1.048 -31.666  1.00  0.00     0.019 A 
HETATM   10  C   UNK A   0      -5.523   1.177 -32.918  1.00  0.00     0.032 A 
HETATM   11  C   UNK A   0      -5.645   2.456 -33.477  1.00  0.00     0.019 A 
HETATM   12  C   UNK A   0      -5.103   3.573 -32.833  1.00  0.00     0.030 A 
BRANCH  10  13
HETATM   13  C   UNK A   0      -5.940   0.005 -33.758  1.00  0.00     0.256 C 
HETATM   14  N   UNK A   0      -5.687  -1.253 -33.240  1.00  0.00    -0.323 N 
HETATM   15  H   UNK A   0      -5.485  -1.325 -32.254  1.00  0.00     0.169 HD
HETATM   16  O   UNK A   0      -6.453   0.232 -34.850  1.00  0.00    -0.267 OA
BRANCH  14  17
HETATM   17  C   UNK A   0      -5.667  -2.472 -33.951  1.00  0.00     0.035 A 
HETATM   18  C   UNK A   0      -4.535  -3.280 -34.078  1.00  0.00     0.029 A 
HETATM   19  C   UNK A   0      -4.609  -4.509 -34.741  1.00  0.00     0.002 A 
HETATM   20  C   UNK A   0      -5.815  -4.941 -35.284  1.00  0.00     0.000 A 
HETATM   21  C   UNK A   0      -6.950  -4.142 -35.167  1.00  0.00     0.002 A 
HETATM   22  C   UNK A   0      -6.876  -2.915 -34.502  1.00  0.00     0.029 A 
ENDBRANCH  14  17
ENDBRANCH  10  13
ENDBRANCH   1   7
BRANCH   5  23
ATOM     23  CA  TRP A   1      -1.572   7.373 -31.879  1.00  0.00     0.114 C 
BRANCH  23  24
ATOM     24  C   TRP A   1      -1.833   7.484 -33.394  1.00  0.00     0.189 C 
BRANCH  24  25
ATOM     25  O   TRP A   1      -0.800   6.857 -34.155  1.00  0.00    -0.399 OA
ATOM     26  H   TRP A   1      -0.035   7.459 -34.139  1.00  0.00     0.209 HD
ENDBRANCH  24  25
ENDBRANCH  23  24
BRANCH  23  27
ATOM     27  CB  TRP A   1      -0.099   7.034 -31.539  1.00  0.00     0.068 C 
BRANCH  27  28
ATOM     28  CG  TRP A   1       0.182   6.523 -30.153  1.00  0.00    -0.028 A 
ATOM     29  CD2 TRP A   1       0.075   7.273 -28.932  1.00  0.00    -0.002 A 
ATOM     30  CE2 TRP A   1       0.432   6.426 -27.883  1.00  0.00     0.042 A 
ATOM     31  CE3 TRP A   1      -0.291   8.600 -28.622  1.00  0.00     0.014 A 
ATOM     32  CZ2 TRP A   1       0.425   6.832 -26.542  1.00  0.00     0.030 A 
ATOM     33  NE1 TRP A   1       0.764   5.214 -28.440  1.00  0.00    -0.365 N 
ATOM     34  CH2 TRP A   1       0.052   8.149 -26.263  1.00  0.00     0.002 A 
ATOM     35  CZ3 TRP A   1      -0.296   9.025 -27.287  1.00  0.00     0.001 A 
ATOM     36  HE1 TRP A   1       1.069   4.409 -27.914  1.00  0.00     0.165 HD
ATOM     37  CD1 TRP A   1       0.638   5.268 -29.801  1.00  0.00     0.096 A 
ENDBRANCH  27  28
ENDBRANCH  23  27
ENDBRANCH   5  23
TORSDOF 8
ENDMDL
MODEL 4
REMARK VINA RESULT:      -9.7      1.463      2.191
REMARK  8 active torsions:
REMARK  status: ('A' for Active; 'I' for Inactive)
REMARK    1  A    between atoms: C_4  and  N_5 
REMARK       I    between atoms: N_5  and  C_6 
REMARK    2  A    between atoms: C_6  and  C_7 
REMARK    3  A    between atoms: C_10  and  N_11 
REMARK       I    between atoms: N_11  and  C_12 
REMARK       I    between atoms: C_12  and  N_21 
REMARK    4  A    between atoms: N_21  and  CA_22 
REMARK    5  A    between atoms: CA_22  and  C_23 
REMARK    6  A    between atoms: CA_22  and  CB_25 
REMARK    7  A    between atoms: C_23  and  O_24 
REMARK    8  A    between atoms: CB_25  and  CG_26 
ROOT
HETATM    1  N   UNK A   0      -6.206   4.089 -32.472  1.00  0.00    -0.309 N 
HETATM    2  C   UNK A   0      -6.701   3.175 -33.375  1.00  0.00     0.321 C 
HETATM    3  O   UNK A   0      -6.149   2.768 -34.388  1.00  0.00    -0.247 OA
HETATM    4  H   UNK A   0      -6.901   4.535 -31.894  1.00  0.00     0.170 HD
ATOM      5  N   TRP A   1      -7.946   2.743 -32.970  1.00  0.00    -0.336 N 
ATOM      6  H   TRP A   1      -8.071   2.725 -31.965  1.00  0.00     0.164 HD
ENDROOT
BRANCH   1   7
HETATM    7  C   UNK A   0      -4.860   4.402 -32.222  1.00  0.00     0.036 A 
HETATM    8  C   UNK A   0      -3.867   3.437 -32.051  1.00  0.00     0.030 A 
HETATM    9  C   UNK A   0      -2.596   3.796 -31.583  1.00  0.00     0.019 A 
HETATM   10  C   UNK A   0      -2.293   5.135 -31.308  1.00  0.00     0.032 A 
HETATM   11  C   UNK A   0      -3.268   6.109 -31.562  1.00  0.00     0.019 A 
HETATM   12  C   UNK A   0      -4.542   5.746 -32.013  1.00  0.00     0.030 A 
BRANCH  10  13
HETATM   13  C   UNK A   0      -1.028   5.575 -30.631  1.00  0.00     0.256 C 
HETATM   14  N   UNK A   0      -1.129   5.926 -29.296  1.00  0.00    -0.323 N 
HETATM   15  H   UNK A   0      -1.952   5.633 -28.791  1.00  0.00     0.169 HD
HETATM   16  O   UNK A   0       0.001   5.616 -31.299  1.00  0.00    -0.267 OA
BRANCH  14  17
HETATM   17  C   UNK A   0      -0.195   6.673 -28.545  1.00  0.00     0.035 A 
HETATM   18  C   UNK A   0       0.561   7.724 -29.070  1.00  0.00     0.029 A 
HETATM   19  C   UNK A   0       1.418   8.463 -28.248  1.00  0.00     0.002 A 
HETATM   20  C   UNK A   0       1.527   8.158 -26.895  1.00  0.00     0.000 A 
HETATM   21  C   UNK A   0       0.781   7.110 -26.361  1.00  0.00     0.002 A 
HETATM   22  C   UNK A   0      -0.077   6.373 -27.183  1.00  0.00     0.029 A 
ENDBRANCH  14  17
ENDBRANCH  10  13
ENDBRANCH   1   7
BRANCH   5  23
ATOM     23  CA  TRP A   1      -8.613   1.618 -33.622  1.00  0.00     0.114 C 
BRANCH  23  24
ATOM     24  C   TRP A   1     -10.101   1.960 -33.838  1.00  0.00     0.189 C 
BRANCH  24  25
ATOM     25  O   TRP A   1     -10.931   1.357 -32.844  1.00  0.00    -0.399 OA
ATOM     26  H   TRP A   1     -11.595   2.023 -32.592  1.00  0.00     0.209 HD
ENDBRANCH  24  25
ENDBRANCH  23  24
BRANCH  23  27
ATOM     27  CB  TRP A   1      -8.400   0.259 -32.907  1.00  0.00     0.068 C 
BRANCH  27  28
ATOM     28  CG  TRP A   1      -7.160  -0.513 -33.263  1.00  0.00    -0.028 A 
ATOM     29  CD2 TRP A   1      -5.912  -0.494 -32.552  1.00  0.00    -0.002 A 
ATOM     30  CE2 TRP A   1      -5.030  -1.343 -33.221  1.00  0.00     0.042 A 
ATOM     31  CE3 TRP A   1      -5.448   0.171 -31.398  1.00  0.00     0.014 A 
ATOM     32  CZ2 TRP A   1      -3.718  -1.572 -32.787  1.00  0.00     0.030 A 
ATOM     33  NE1 TRP A   1      -5.704  -1.844 -34.309  1.00  0.00    -0.365 N 
ATOM     34  CH2 TRP A   1      -3.288  -0.906 -31.636  1.00  0.00     0.002 A 
ATOM     35  CZ3 TRP A   1      -4.137  -0.040 -30.953  1.00  0.00     0.001 A 
ATOM     36  HE1 TRP A   1      -5.307  -2.484 -34.981  1.00  0.00     0.165 HD
ATOM     37  CD1 TRP A   1      -6.974  -1.337 -34.356  1.00  0.00     0.096 A 
ENDBRANCH  27  28
ENDBRANCH  23  27
ENDBRANCH   5  23
TORSDOF 8
ENDMDL
MODEL 5
REMARK VINA RESULT:      -9.5      2.372     10.048
REMARK  8 active torsions:
REMARK  status: ('A' for Active; 'I' for Inactive)
REMARK    1  A    between atoms: C_4  and  N_5 
REMARK       I    between atoms: N_5  and  C_6 
REMARK    2  A    between atoms: C_6  and  C_7 
REMARK    3  A    between atoms: C_10  and  N_11 
REMARK       I    between atoms: N_11  and  C_12 
REMARK       I    between atoms: C_12  and  N_21 
REMARK    4  A    between atoms: N_21  and  CA_22 
REMARK    5  A    between atoms: CA_22  and  C_23 
REMARK    6  A    between atoms: CA_22  and  CB_25 
REMARK    7  A    between atoms: C_23  and  O_24 
REMARK    8  A    between atoms: CB_25  and  CG_26 
ROOT
HETATM    1  N   UNK A   0      -4.065   6.024 -31.091  1.00  0.00    -0.309 N 
HETATM    2  C   UNK A   0      -4.054   6.871 -30.006  1.00  0.00     0.321 C 
HETATM    3  O   UNK A   0      -4.492   6.638 -28.887  1.00  0.00    -0.247 OA
HETATM    4  H   UNK A   0      -3.962   6.478 -31.986  1.00  0.00     0.170 HD
ATOM      5  N   TRP A   1      -3.447   8.061 -30.345  1.00  0.00    -0.336 N 
ATOM      6  H   TRP A   1      -2.721   7.970 -31.045  1.00  0.00     0.164 HD
ENDROOT
BRANCH   1   7
HETATM    7  C   UNK A   0      -4.125   4.621 -31.082  1.00  0.00     0.036 A 
HETATM    8  C   UNK A   0      -3.098   3.806 -31.558  1.00  0.00     0.030 A 
HETATM    9  C   UNK A   0      -3.301   2.431 -31.733  1.00  0.00     0.019 A 
HETATM   10  C   UNK A   0      -4.530   1.847 -31.402  1.00  0.00     0.032 A 
HETATM   11  C   UNK A   0      -5.530   2.658 -30.846  1.00  0.00     0.019 A 
HETATM   12  C   UNK A   0      -5.330   4.033 -30.689  1.00  0.00     0.030 A 
BRANCH  10  13
HETATM   13  C   UNK A   0      -4.888   0.428 -31.734  1.00  0.00     0.256 C 
HETATM   14  N   UNK A   0      -4.501  -0.035 -32.980  1.00  0.00    -0.323 N 
HETATM   15  H   UNK A   0      -3.799   0.489 -33.481  1.00  0.00     0.169 HD
HETATM   16  O   UNK A   0      -5.512  -0.220 -30.899  1.00  0.00    -0.267 OA
BRANCH  14  17
HETATM   17  C   UNK A   0      -4.995  -1.176 -33.649  1.00  0.00     0.035 A 
HETATM   18  C   UNK A   0      -4.267  -2.356 -33.816  1.00  0.00     0.029 A 
HETATM   19  C   UNK A   0      -4.847  -3.469 -34.432  1.00  0.00     0.002 A 
HETATM   20  C   UNK A   0      -6.162  -3.413 -34.885  1.00  0.00     0.000 A 
HETATM   21  C   UNK A   0      -6.897  -2.241 -34.727  1.00  0.00     0.002 A 
HETATM   22  C   UNK A   0      -6.317  -1.129 -34.111  1.00  0.00     0.029 A 
ENDBRANCH  14  17
ENDBRANCH  10  13
ENDBRANCH   1   7
BRANCH   5  23
ATOM     23  CA  TRP A   1      -3.108   9.060 -29.333  1.00  0.00     0.114 C 
BRANCH  23  24
ATOM     24  C   TRP A   1      -3.642  10.437 -29.776  1.00  0.00     0.189 C 
BRANCH  24  25
ATOM     25  O   TRP A   1      -4.077  10.424 -31.136  1.00  0.00    -0.399 OA
ATOM     26  H   TRP A   1      -4.509  11.280 -31.301  1.00  0.00     0.209 HD
ENDBRANCH  24  25
ENDBRANCH  23  24
BRANCH  23  27
ATOM     27  CB  TRP A   1      -1.606   9.086 -28.952  1.00  0.00     0.068 C 
BRANCH  27  28
ATOM     28  CG  TRP A   1      -0.964   7.768 -28.619  1.00  0.00    -0.028 A 
ATOM     29  CD2 TRP A   1      -0.280   6.898 -29.536  1.00  0.00    -0.002 A 
ATOM     30  CE2 TRP A   1       0.155   5.784 -28.818  1.00  0.00     0.042 A 
ATOM     31  CE3 TRP A   1       0.008   6.955 -30.916  1.00  0.00     0.014 A 
ATOM     32  CZ2 TRP A   1       0.874   4.735 -29.405  1.00  0.00     0.030 A 
ATOM     33  NE1 TRP A   1      -0.264   5.954 -27.520  1.00  0.00    -0.365 N 
ATOM     34  CH2 TRP A   1       1.152   4.820 -30.771  1.00  0.00     0.002 A 
ATOM     35  CZ3 TRP A   1       0.720   5.912 -31.520  1.00  0.00     0.001 A 
ATOM     36  HE1 TRP A   1      -0.095   5.295 -26.774  1.00  0.00     0.165 HD
ATOM     37  CD1 TRP A   1      -0.953   7.130 -27.394  1.00  0.00     0.096 A 
ENDBRANCH  27  28
ENDBRANCH  23  27
ENDBRANCH   5  23
TORSDOF 8
ENDMDL
MODEL 6
REMARK VINA RESULT:      -9.3      3.000     11.223
REMARK  8 active torsions:
REMARK  status: ('A' for Active; 'I' for Inactive)
REMARK    1  A    between atoms: C_4  and  N_5 
REMARK       I    between atoms: N_5  and  C_6 
REMARK    2  A    between atoms: C_6  and  C_7 
REMARK    3  A    between atoms: C_10  and  N_11 
REMARK       I    between atoms: N_11  and  C_12 
REMARK       I    between atoms: C_12  and  N_21 
REMARK    4  A    between atoms: N_21  and  CA_22 
REMARK    5  A    between atoms: CA_22  and  C_23 
REMARK    6  A    between atoms: CA_22  and  CB_25 
REMARK    7  A    between atoms: C_23  and  O_24 
REMARK    8  A    between atoms: CB_25  and  CG_26 
ROOT
HETATM    1  N   UNK A   0      -3.352   3.246 -31.004  1.00  0.00    -0.309 N 
HETATM    2  C   UNK A   0      -2.342   3.915 -31.659  1.00  0.00     0.321 C 
HETATM    3  O   UNK A   0      -2.089   3.876 -32.855  1.00  0.00    -0.247 OA
HETATM    4  H   UNK A   0      -3.218   3.142 -30.010  1.00  0.00     0.170 HD
ATOM      5  N   TRP A   1      -1.627   4.680 -30.762  1.00  0.00    -0.336 N 
ATOM      6  H   TRP A   1      -2.177   5.030 -29.987  1.00  0.00     0.164 HD
ENDROOT
BRANCH   1   7
HETATM    7  C   UNK A   0      -4.558   2.776 -31.547  1.00  0.00     0.036 A 
HETATM    8  C   UNK A   0      -4.690   1.530 -32.159  1.00  0.00     0.030 A 
HETATM    9  C   UNK A   0      -5.848   1.206 -32.879  1.00  0.00     0.019 A 
HETATM   10  C   UNK A   0      -6.905   2.120 -32.970  1.00  0.00     0.032 A 
HETATM   11  C   UNK A   0      -6.801   3.337 -32.283  1.00  0.00     0.019 A 
HETATM   12  C   UNK A   0      -5.636   3.664 -31.579  1.00  0.00     0.030 A 
BRANCH  10  13
HETATM   13  C   UNK A   0      -8.089   1.927 -33.871  1.00  0.00     0.256 C 
HETATM   14  N   UNK A   0      -9.240   2.623 -33.543  1.00  0.00    -0.323 N 
HETATM   15  H   UNK A   0      -9.157   3.396 -32.898  1.00  0.00     0.169 HD
HETATM   16  O   UNK A   0      -7.973   1.157 -34.820  1.00  0.00    -0.267 OA
BRANCH  14  17
HETATM   17  C   UNK A   0     -10.547   2.363 -34.008  1.00  0.00     0.035 A 
HETATM   18  C   UNK A   0     -11.198   3.136 -34.972  1.00  0.00     0.029 A 
HETATM   19  C   UNK A   0     -12.469   2.778 -35.432  1.00  0.00     0.002 A 
HETATM   20  C   UNK A   0     -13.100   1.643 -34.933  1.00  0.00     0.000 A 
HETATM   21  C   UNK A   0     -12.463   0.867 -33.968  1.00  0.00     0.002 A 
HETATM   22  C   UNK A   0     -11.192   1.224 -33.509  1.00  0.00     0.029 A 
ENDBRANCH  14  17
ENDBRANCH  10  13
ENDBRANCH   1   7
BRANCH   5  23
ATOM     23  CA  TRP A   1      -0.634   5.654 -31.211  1.00  0.00     0.114 C 
BRANCH  23  24
ATOM     24  C   TRP A   1       0.763   5.222 -30.723  1.00  0.00     0.189 C 
BRANCH  24  25
ATOM     25  O   TRP A   1       0.696   4.075 -29.875  1.00  0.00    -0.399 OA
ATOM     26  H   TRP A   1       0.100   4.305 -29.141  1.00  0.00     0.209 HD
ENDBRANCH  24  25
ENDBRANCH  23  24
BRANCH  23  27
ATOM     27  CB  TRP A   1      -0.979   7.120 -30.843  1.00  0.00     0.068 C 
BRANCH  27  28
ATOM     28  CG  TRP A   1      -1.281   7.408 -29.399  1.00  0.00    -0.028 A 
ATOM     29  CD2 TRP A   1      -0.338   7.829 -28.400  1.00  0.00    -0.002 A 
ATOM     30  CE2 TRP A   1      -1.031   7.976 -27.199  1.00  0.00     0.042 A 
ATOM     31  CE3 TRP A   1       1.047   8.097 -28.406  1.00  0.00     0.014 A 
ATOM     32  CZ2 TRP A   1      -0.415   8.392 -26.011  1.00  0.00     0.030 A 
ATOM     33  NE1 TRP A   1      -2.340   7.639 -27.447  1.00  0.00    -0.365 N 
ATOM     34  CH2 TRP A   1       0.956   8.657 -26.048  1.00  0.00     0.002 A 
ATOM     35  CZ3 TRP A   1       1.681   8.507 -27.226  1.00  0.00     0.001 A 
ATOM     36  HE1 TRP A   1      -3.073   7.647 -26.753  1.00  0.00     0.165 HD
ATOM     37  CD1 TRP A   1      -2.497   7.277 -28.757  1.00  0.00     0.096 A 
ENDBRANCH  27  28
ENDBRANCH  23  27
ENDBRANCH   5  23
TORSDOF 8
ENDMDL
MODEL 7
REMARK VINA RESULT:      -9.2      2.043     10.489
REMARK  8 active torsions:
REMARK  status: ('A' for Active; 'I' for Inactive)
REMARK    1  A    between atoms: C_4  and  N_5 
REMARK       I    between atoms: N_5  and  C_6 
REMARK    2  A    between atoms: C_6  and  C_7 
REMARK    3  A    between atoms: C_10  and  N_11 
REMARK       I    between atoms: N_11  and  C_12 
REMARK       I    between atoms: C_12  and  N_21 
REMARK    4  A    between atoms: N_21  and  CA_22 
REMARK    5  A    between atoms: CA_22  and  C_23 
REMARK    6  A    between atoms: CA_22  and  CB_25 
REMARK    7  A    between atoms: C_23  and  O_24 
REMARK    8  A    between atoms: CB_25  and  CG_26 
ROOT
HETATM    1  N   UNK A   0      -5.904   5.564 -32.016  1.00  0.00    -0.309 N 
HETATM    2  C   UNK A   0      -5.075   6.136 -31.078  1.00  0.00     0.321 C 
HETATM    3  O   UNK A   0      -4.647   5.612 -30.057  1.00  0.00    -0.247 OA
HETATM    4  H   UNK A   0      -6.399   6.220 -32.602  1.00  0.00     0.170 HD
ATOM      5  N   TRP A   1      -4.758   7.424 -31.453  1.00  0.00    -0.336 N 
ATOM      6  H   TRP A   1      -4.720   7.565 -32.455  1.00  0.00     0.164 HD
ENDROOT
BRANCH   1   7
HETATM    7  C   UNK A   0      -6.070   4.198 -32.292  1.00  0.00     0.036 A 
HETATM    8  C   UNK A   0      -7.126   3.437 -31.792  1.00  0.00     0.030 A 
HETATM    9  C   UNK A   0      -7.119   2.040 -31.911  1.00  0.00     0.019 A 
HETATM   10  C   UNK A   0      -6.065   1.389 -32.563  1.00  0.00     0.032 A 
HETATM   11  C   UNK A   0      -5.049   2.166 -33.137  1.00  0.00     0.019 A 
HETATM   12  C   UNK A   0      -5.050   3.558 -33.001  1.00  0.00     0.030 A 
BRANCH  10  13
HETATM   13  C   UNK A   0      -5.889  -0.101 -32.567  1.00  0.00     0.256 C 
HETATM   14  N   UNK A   0      -5.389  -0.665 -33.728  1.00  0.00    -0.323 N 
HETATM   15  H   UNK A   0      -4.936  -0.054 -34.392  1.00  0.00     0.169 HD
HETATM   16  O   UNK A   0      -6.217  -0.724 -31.561  1.00  0.00    -0.267 OA
BRANCH  14  17
HETATM   17  C   UNK A   0      -5.449  -2.025 -34.103  1.00  0.00     0.035 A 
HETATM   18  C   UNK A   0      -4.377  -2.913 -33.984  1.00  0.00     0.029 A 
HETATM   19  C   UNK A   0      -4.533  -4.263 -34.313  1.00  0.00     0.002 A 
HETATM   20  C   UNK A   0      -5.761  -4.737 -34.763  1.00  0.00     0.000 A 
HETATM   21  C   UNK A   0      -6.836  -3.861 -34.889  1.00  0.00     0.002 A 
HETATM   22  C   UNK A   0      -6.681  -2.512 -34.559  1.00  0.00     0.029 A 
ENDBRANCH  14  17
ENDBRANCH  10  13
ENDBRANCH   1   7
BRANCH   5  23
ATOM     23  CA  TRP A   1      -3.728   8.191 -30.754  1.00  0.00     0.114 C 
BRANCH  23  24
ATOM     24  C   TRP A   1      -4.121   9.682 -30.742  1.00  0.00     0.189 C 
BRANCH  24  25
ATOM     25  O   TRP A   1      -2.975  10.531 -30.802  1.00  0.00    -0.399 OA
ATOM     26  H   TRP A   1      -2.997  11.088 -30.004  1.00  0.00     0.209 HD
ENDBRANCH  24  25
ENDBRANCH  23  24
BRANCH  23  27
ATOM     27  CB  TRP A   1      -2.292   7.946 -31.285  1.00  0.00     0.068 C 
BRANCH  27  28
ATOM     28  CG  TRP A   1      -1.434   6.983 -30.512  1.00  0.00    -0.028 A 
ATOM     29  CD2 TRP A   1      -0.623   7.295 -29.368  1.00  0.00    -0.002 A 
ATOM     30  CE2 TRP A   1       0.012   6.120 -28.966  1.00  0.00     0.042 A 
ATOM     31  CE3 TRP A   1      -0.367   8.474 -28.636  1.00  0.00     0.014 A 
ATOM     32  CZ2 TRP A   1       0.874   6.061 -27.863  1.00  0.00     0.030 A 
ATOM     33  NE1 TRP A   1      -0.378   5.134 -29.840  1.00  0.00    -0.365 N 
ATOM     34  CH2 TRP A   1       1.103   7.241 -27.152  1.00  0.00     0.002 A 
ATOM     35  CZ3 TRP A   1       0.497   8.435 -27.535  1.00  0.00     0.001 A 
ATOM     36  HE1 TRP A   1      -0.066   4.175 -29.795  1.00  0.00     0.165 HD
ATOM     37  CD1 TRP A   1      -1.227   5.645 -30.783  1.00  0.00     0.096 A 
ENDBRANCH  27  28
ENDBRANCH  23  27
ENDBRANCH   5  23
TORSDOF 8
ENDMDL
MODEL 8
REMARK VINA RESULT:      -9.1      2.298     10.852
REMARK  8 active torsions:
REMARK  status: ('A' for Active; 'I' for Inactive)
REMARK    1  A    between atoms: C_4  and  N_5 
REMARK       I    between atoms: N_5  and  C_6 
REMARK    2  A    between atoms: C_6  and  C_7 
REMARK    3  A    between atoms: C_10  and  N_11 
REMARK       I    between atoms: N_11  and  C_12 
REMARK       I    between atoms: C_12  and  N_21 
REMARK    4  A    between atoms: N_21  and  CA_22 
REMARK    5  A    between atoms: CA_22  and  C_23 
REMARK    6  A    between atoms: CA_22  and  CB_25 
REMARK    7  A    between atoms: C_23  and  O_24 
REMARK    8  A    between atoms: CB_25  and  CG_26 
ROOT
HETATM    1  N   UNK A   0      -3.389   4.966 -31.077  1.00  0.00    -0.309 N 
HETATM    2  C   UNK A   0      -3.945   6.225 -31.103  1.00  0.00     0.321 C 
HETATM    3  O   UNK A   0      -4.847   6.615 -31.832  1.00  0.00    -0.247 OA
HETATM    4  H   UNK A   0      -2.473   4.914 -30.657  1.00  0.00     0.170 HD
ATOM      5  N   TRP A   1      -3.345   7.023 -30.153  1.00  0.00    -0.336 N 
ATOM      6  H   TRP A   1      -3.029   6.522 -29.332  1.00  0.00     0.164 HD
ENDROOT
BRANCH   1   7
HETATM    7  C   UNK A   0      -3.979   3.761 -31.490  1.00  0.00     0.036 A 
HETATM    8  C   UNK A   0      -5.228   3.326 -31.046  1.00  0.00     0.030 A 
HETATM    9  C   UNK A   0      -5.666   2.021 -31.311  1.00  0.00     0.019 A 
HETATM   10  C   UNK A   0      -4.867   1.142 -32.053  1.00  0.00     0.032 A 
HETATM   11  C   UNK A   0      -3.651   1.612 -32.568  1.00  0.00     0.019 A 
HETATM   12  C   UNK A   0      -3.210   2.910 -32.287  1.00  0.00     0.030 A 
BRANCH  10  13
HETATM   13  C   UNK A   0      -5.176  -0.317 -32.218  1.00  0.00     0.256 C 
HETATM   14  N   UNK A   0      -4.616  -0.951 -33.313  1.00  0.00    -0.323 N 
HETATM   15  H   UNK A   0      -3.848  -0.494 -33.781  1.00  0.00     0.169 HD
HETATM   16  O   UNK A   0      -5.916  -0.847 -31.393  1.00  0.00    -0.267 OA
BRANCH  14  17
HETATM   17  C   UNK A   0      -5.011  -2.188 -33.868  1.00  0.00     0.035 A 
HETATM   18  C   UNK A   0      -4.216  -3.336 -33.854  1.00  0.00     0.029 A 
HETATM   19  C   UNK A   0      -4.703  -4.544 -34.365  1.00  0.00     0.002 A 
HETATM   20  C   UNK A   0      -5.988  -4.614 -34.893  1.00  0.00     0.000 A 
HETATM   21  C   UNK A   0      -6.789  -3.475 -34.915  1.00  0.00     0.002 A 
HETATM   22  C   UNK A   0      -6.303  -2.269 -34.403  1.00  0.00     0.029 A 
ENDBRANCH  14  17
ENDBRANCH  10  13
ENDBRANCH   1   7
BRANCH   5  23
ATOM     23  CA  TRP A   1      -3.880   8.341 -29.816  1.00  0.00     0.114 C 
BRANCH  23  24
ATOM     24  C   TRP A   1      -3.262   9.398 -30.753  1.00  0.00     0.189 C 
BRANCH  24  25
ATOM     25  O   TRP A   1      -4.216  10.393 -31.129  1.00  0.00    -0.399 OA
ATOM     26  H   TRP A   1      -5.035  10.194 -30.643  1.00  0.00     0.209 HD
ENDBRANCH  24  25
ENDBRANCH  23  24
BRANCH  23  27
ATOM     27  CB  TRP A   1      -3.748   8.709 -28.315  1.00  0.00     0.068 C 
BRANCH  27  28
ATOM     28  CG  TRP A   1      -2.813   7.873 -27.487  1.00  0.00    -0.028 A 
ATOM     29  CD2 TRP A   1      -1.377   7.938 -27.497  1.00  0.00    -0.002 A 
ATOM     30  CE2 TRP A   1      -0.904   6.991 -26.590  1.00  0.00     0.042 A 
ATOM     31  CE3 TRP A   1      -0.434   8.717 -28.200  1.00  0.00     0.014 A 
ATOM     32  CZ2 TRP A   1       0.460   6.795 -26.337  1.00  0.00     0.030 A 
ATOM     33  NE1 TRP A   1      -2.003   6.357 -26.062  1.00  0.00    -0.365 N 
ATOM     34  CH2 TRP A   1       1.372   7.585 -27.042  1.00  0.00     0.002 A 
ATOM     35  CZ3 TRP A   1       0.934   8.530 -27.965  1.00  0.00     0.001 A 
ATOM     36  HE1 TRP A   1      -1.961   5.615 -25.378  1.00  0.00     0.165 HD
ATOM     37  CD1 TRP A   1      -3.151   6.863 -26.608  1.00  0.00     0.096 A 
ENDBRANCH  27  28
ENDBRANCH  23  27
ENDBRANCH   5  23
TORSDOF 8
ENDMDL
MODEL 9
REMARK VINA RESULT:      -9.1      2.526      9.904
REMARK  8 active torsions:
REMARK  status: ('A' for Active; 'I' for Inactive)
REMARK    1  A    between atoms: C_4  and  N_5 
REMARK       I    between atoms: N_5  and  C_6 
REMARK    2  A    between atoms: C_6  and  C_7 
REMARK    3  A    between atoms: C_10  and  N_11 
REMARK       I    between atoms: N_11  and  C_12 
REMARK       I    between atoms: C_12  and  N_21 
REMARK    4  A    between atoms: N_21  and  CA_22 
REMARK    5  A    between atoms: CA_22  and  C_23 
REMARK    6  A    between atoms: CA_22  and  CB_25 
REMARK    7  A    between atoms: C_23  and  O_24 
REMARK    8  A    between atoms: CB_25  and  CG_26 
ROOT
HETATM    1  N   UNK A   0      -5.178   5.564 -31.533  1.00  0.00    -0.309 N 
HETATM    2  C   UNK A   0      -4.693   6.441 -30.589  1.00  0.00     0.321 C 
HETATM    3  O   UNK A   0      -4.293   6.167 -29.466  1.00  0.00    -0.247 OA
HETATM    4  H   UNK A   0      -5.744   5.985 -32.254  1.00  0.00     0.170 HD
ATOM      5  N   TRP A   1      -4.700   7.724 -31.094  1.00  0.00    -0.336 N 
ATOM      6  H   TRP A   1      -4.554   7.776 -32.095  1.00  0.00     0.164 HD
ENDROOT
BRANCH   1   7
HETATM    7  C   UNK A   0      -4.909   4.190 -31.642  1.00  0.00     0.036 A 
HETATM    8  C   UNK A   0      -3.644   3.637 -31.441  1.00  0.00     0.030 A 
HETATM    9  C   UNK A   0      -3.385   2.303 -31.781  1.00  0.00     0.019 A 
HETATM   10  C   UNK A   0      -4.403   1.493 -32.302  1.00  0.00     0.032 A 
HETATM   11  C   UNK A   0      -5.692   2.031 -32.423  1.00  0.00     0.019 A 
HETATM   12  C   UNK A   0      -5.942   3.368 -32.098  1.00  0.00     0.030 A 
BRANCH  10  13
HETATM   13  C   UNK A   0      -4.163   0.123 -32.863  1.00  0.00     0.256 C 
HETATM   14  N   UNK A   0      -5.136  -0.381 -33.708  1.00  0.00    -0.323 N 
HETATM   15  H   UNK A   0      -5.802   0.267 -34.101  1.00  0.00     0.169 HD
HETATM   16  O   UNK A   0      -3.142  -0.469 -32.525  1.00  0.00    -0.267 OA
BRANCH  14  17
HETATM   17  C   UNK A   0      -5.315  -1.731 -34.083  1.00  0.00     0.035 A 
HETATM   18  C   UNK A   0      -4.296  -2.686 -34.059  1.00  0.00     0.029 A 
HETATM   19  C   UNK A   0      -4.564  -4.020 -34.381  1.00  0.00     0.002 A 
HETATM   20  C   UNK A   0      -5.852  -4.411 -34.730  1.00  0.00     0.000 A 
HETATM   21  C   UNK A   0      -6.876  -3.468 -34.761  1.00  0.00     0.002 A 
HETATM   22  C   UNK A   0      -6.608  -2.134 -34.438  1.00  0.00     0.029 A 
ENDBRANCH  14  17
ENDBRANCH  10  13
ENDBRANCH   1   7
BRANCH   5  23
ATOM     23  CA  TRP A   1      -4.044   8.825 -30.390  1.00  0.00     0.114 C 
BRANCH  23  24
ATOM     24  C   TRP A   1      -5.017  10.017 -30.286  1.00  0.00     0.189 C 
BRANCH  24  25
ATOM     25  O   TRP A   1      -5.783  10.179 -31.481  1.00  0.00    -0.399 OA
ATOM     26  H   TRP A   1      -5.886  11.137 -31.619  1.00  0.00     0.209 HD
ENDBRANCH  24  25
ENDBRANCH  23  24
BRANCH  23  27
ATOM     27  CB  TRP A   1      -2.665   9.216 -30.978  1.00  0.00     0.068 C 
BRANCH  27  28
ATOM     28  CG  TRP A   1      -1.805   8.100 -31.504  1.00  0.00    -0.028 A 
ATOM     29  CD2 TRP A   1      -1.009   7.196 -30.720  1.00  0.00    -0.002 A 
ATOM     30  CE2 TRP A   1      -0.368   6.325 -31.600  1.00  0.00     0.042 A 
ATOM     31  CE3 TRP A   1      -0.772   7.041 -29.338  1.00  0.00     0.014 A 
ATOM     32  CZ2 TRP A   1       0.483   5.299 -31.169  1.00  0.00     0.030 A 
ATOM     33  NE1 TRP A   1      -0.739   6.692 -32.871  1.00  0.00    -0.365 N 
ATOM     34  CH2 TRP A   1       0.695   5.164 -29.794  1.00  0.00     0.002 A 
ATOM     35  CZ3 TRP A   1       0.081   6.026 -28.889  1.00  0.00     0.001 A 
ATOM     36  HE1 TRP A   1      -0.419   6.237 -33.713  1.00  0.00     0.165 HD
ATOM     37  CD1 TRP A   1      -1.584   7.768 -32.826  1.00  0.00     0.096 A 
ENDBRANCH  27  28
ENDBRANCH  23  27
ENDBRANCH   5  23
TORSDOF 8
ENDMDL
MODEL 10
REMARK VINA RESULT:      -9.0      4.805      9.820
REMARK  8 active torsions:
REMARK  status: ('A' for Active; 'I' for Inactive)
REMARK    1  A    between atoms: C_4  and  N_5 
REMARK       I    between atoms: N_5  and  C_6 
REMARK    2  A    between atoms: C_6  and  C_7 
REMARK    3  A    between atoms: C_10  and  N_11 
REMARK       I    between atoms: N_11  and  C_12 
REMARK       I    between atoms: C_12  and  N_21 
REMARK    4  A    between atoms: N_21  and  CA_22 
REMARK    5  A    between atoms: CA_22  and  C_23 
REMARK    6  A    between atoms: CA_22  and  CB_25 
REMARK    7  A    between atoms: C_23  and  O_24 
REMARK    8  A    between atoms: CB_25  and  CG_26 
ROOT
HETATM    1  N   UNK A   0      -8.272   0.277 -32.429  1.00  0.00    -0.309 N 
HETATM    2  C   UNK A   0      -6.923   0.543 -32.510  1.00  0.00     0.321 C 
HETATM    3  O   UNK A   0      -6.375   1.346 -33.252  1.00  0.00    -0.247 OA
HETATM    4  H   UNK A   0      -8.506  -0.611 -32.012  1.00  0.00     0.170 HD
ATOM      5  N   TRP A   1      -6.237  -0.232 -31.599  1.00  0.00    -0.336 N 
ATOM      6  H   TRP A   1      -6.760  -0.442 -30.758  1.00  0.00     0.164 HD
ENDROOT
BRANCH   1   7
HETATM    7  C   UNK A   0      -9.333   1.124 -32.786  1.00  0.00     0.036 A 
HETATM    8  C   UNK A   0      -9.344   2.493 -32.522  1.00  0.00     0.030 A 
HETATM    9  C   UNK A   0     -10.515   3.244 -32.693  1.00  0.00     0.019 A 
HETATM   10  C   UNK A   0     -11.686   2.636 -33.162  1.00  0.00     0.032 A 
HETATM   11  C   UNK A   0     -11.645   1.277 -33.505  1.00  0.00     0.019 A 
HETATM   12  C   UNK A   0     -10.480   0.527 -33.316  1.00  0.00     0.030 A 
BRANCH  10  13
HETATM   13  C   UNK A   0     -13.020   3.323 -33.192  1.00  0.00     0.256 C 
HETATM   14  N   UNK A   0     -13.847   3.122 -32.101  1.00  0.00    -0.323 N 
HETATM   15  H   UNK A   0     -13.434   2.757 -31.256  1.00  0.00     0.169 HD
HETATM   16  O   UNK A   0     -13.300   3.995 -34.180  1.00  0.00    -0.267 OA
BRANCH  14  17
HETATM   17  C   UNK A   0     -15.237   3.364 -32.038  1.00  0.00     0.035 A 
HETATM   18  C   UNK A   0     -16.205   2.360 -32.098  1.00  0.00     0.029 A 
HETATM   19  C   UNK A   0     -17.561   2.670 -31.961  1.00  0.00     0.002 A 
HETATM   20  C   UNK A   0     -17.962   3.988 -31.762  1.00  0.00     0.000 A 
HETATM   21  C   UNK A   0     -17.006   4.999 -31.704  1.00  0.00     0.002 A 
HETATM   22  C   UNK A   0     -15.650   4.688 -31.840  1.00  0.00     0.029 A 
ENDBRANCH  14  17
ENDBRANCH  10  13
ENDBRANCH   1   7
BRANCH   5  23
ATOM     23  CA  TRP A   1      -4.820  -0.006 -31.319  1.00  0.00     0.114 C 
BRANCH  23  24
ATOM     24  C   TRP A   1      -4.606   1.470 -30.928  1.00  0.00     0.189 C 
BRANCH  24  25
ATOM     25  O   TRP A   1      -3.804   2.160 -31.887  1.00  0.00    -0.399 OA
ATOM     26  H   TRP A   1      -3.179   1.509 -32.250  1.00  0.00     0.209 HD
ENDBRANCH  24  25
ENDBRANCH  23  24
BRANCH  23  27
ATOM     27  CB  TRP A   1      -3.871  -0.477 -32.451  1.00  0.00     0.068 C 
BRANCH  27  28
ATOM     28  CG  TRP A   1      -3.788  -1.958 -32.700  1.00  0.00    -0.028 A 
ATOM     29  CD2 TRP A   1      -4.600  -2.715 -33.613  1.00  0.00    -0.002 A 
ATOM     30  CE2 TRP A   1      -4.201  -4.048 -33.528  1.00  0.00     0.042 A 
ATOM     31  CE3 TRP A   1      -5.642  -2.387 -34.505  1.00  0.00     0.014 A 
ATOM     32  CZ2 TRP A   1      -4.778  -5.065 -34.299  1.00  0.00     0.030 A 
ATOM     33  NE1 TRP A   1      -3.201  -4.109 -32.587  1.00  0.00    -0.365 N 
ATOM     34  CH2 TRP A   1      -5.804  -4.711 -35.180  1.00  0.00     0.002 A 
ATOM     35  CZ3 TRP A   1      -6.236  -3.392 -35.279  1.00  0.00     0.001 A 
ATOM     36  HE1 TRP A   1      -2.726  -4.957 -32.312  1.00  0.00     0.165 HD
ATOM     37  CD1 TRP A   1      -2.961  -2.866 -32.069  1.00  0.00     0.096 A 
ENDBRANCH  27  28
ENDBRANCH  23  27
ENDBRANCH   5  23
TORSDOF 8
ENDMDL
