MODEL 1
REMARK VINA RESULT:      -8.3      0.000      0.000
REMARK  8 active torsions:
REMARK  status: ('A' for Active; 'I' for Inactive)
REMARK    1  A    between atoms: C_2  and  C_4 
REMARK    2  A    between atoms: C_2  and  C_29 
REMARK    3  A    between atoms: C_2  and  O_3 
REMARK    4  A    between atoms: N_11  and  C_13 
REMARK    5  A    between atoms: C_13  and  C_14 
REMARK    6  A    between atoms: C_16  and  S_17 
REMARK    7  A    between atoms: S_17  and  C_18 
REMARK    8  A    between atoms: C_29  and  N_30 
ROOT
HETATM    1  C   UNL     1      -7.995   0.220 -33.234  1.00  0.00    -0.022 A 
HETATM    2  C   UNL     1      -7.184   0.612 -32.149  1.00  0.00     0.022 A 
HETATM    3  C   UNL     1      -5.989  -0.057 -31.833  1.00  0.00     0.002 A 
HETATM    4  C   UNL     1      -5.614  -1.155 -32.602  1.00  0.00     0.076 A 
HETATM    5  O   UNL     1      -4.492  -1.876 -32.303  1.00  0.00    -0.349 OA
HETATM    6  C   UNL     1      -3.289  -1.154 -32.603  1.00  0.00     0.203 C 
HETATM    7  C   UNL     1      -2.823  -0.289 -31.422  1.00  0.00     0.262 C 
HETATM    8  N   UNL     1      -3.740   0.890 -31.151  1.00  0.00    -0.059 N 
HETATM    9  H   UNL     1      -3.368   1.371 -30.323  1.00  0.00     0.280 HD
HETATM   10  C   UNL     1      -5.117   0.427 -30.711  1.00  0.00     0.276 C 
HETATM   11  C   UNL     1      -6.405  -1.581 -33.664  1.00  0.00     0.038 A 
HETATM   12  C   UNL     1      -7.570  -0.881 -33.998  1.00  0.00     0.013 A 
ENDROOT
BRANCH   8  13
HETATM   13  C   UNL     1      -3.716   1.932 -32.258  1.00  0.00     0.299 C 
BRANCH  13  14
HETATM   14  C   UNL     1      -3.511   3.335 -31.818  1.00  0.00     0.080 A 
HETATM   15  O   UNL     1      -2.279   3.868 -32.023  1.00  0.00    -0.306 OA
HETATM   16  C   UNL     1      -2.305   5.173 -31.621  1.00  0.00     0.120 A 
HETATM   17  C   UNL     1      -3.534   5.439 -31.054  1.00  0.00     0.047 A 
HETATM   18  C   UNL     1      -4.315   4.261 -31.189  1.00  0.00     0.038 A 
BRANCH  16  19
HETATM   19  S   UNL     1      -0.952   6.248 -31.850  1.00  0.00    -0.025 SA
BRANCH  19  20
HETATM   20  C   UNL     1      -0.080   5.805 -30.420  1.00  0.00     0.197 A 
HETATM   21  N   UNL     1      -0.083   6.541 -29.268  1.00  0.00    -0.322 N 
HETATM   22  C   UNL     1      -0.783   7.767 -28.989  1.00  0.00     0.159 C 
HETATM   23  C   UNL     1       0.737   5.872 -28.405  1.00  0.00     0.235 A 
HETATM   24  N   UNL     1       1.187   4.780 -28.980  1.00  0.00    -0.143 NA
HETATM   25  N   UNL     1       0.667   4.735 -30.250  1.00  0.00    -0.123 NA
ENDBRANCH  19  20
ENDBRANCH  16  19
ENDBRANCH  13  14
ENDBRANCH   8  13
BRANCH   1  26
HETATM   26  C   UNL     1      -9.238   1.040 -33.597  1.00  0.00     0.105 C 
HETATM   27  C   UNL     1     -10.485   0.288 -33.102  1.00  0.00     0.053 C 
BRANCH  26  28
HETATM   28  C   UNL     1      -9.262   2.496 -33.018  1.00  0.00     0.276 C 
BRANCH  28  29
HETATM   29  N   UNL     1     -10.302   2.726 -31.917  1.00  0.00    -0.076 N 
HETATM   30  H   UNL     1     -10.770   1.830 -31.731  1.00  0.00     0.279 HD
HETATM   31  C   UNL     1      -9.710   3.161 -30.600  1.00  0.00     0.269 C 
HETATM   32  C   UNL     1     -11.360   3.694 -32.374  1.00  0.00     0.269 C 
ENDBRANCH  28  29
ENDBRANCH  26  28
BRANCH  26  33
HETATM   33  O   UNL     1      -9.318   1.159 -35.028  1.00  0.00    -0.384 OA
HETATM   34  H   UNL     1      -8.919   0.371 -35.441  1.00  0.00     0.211 HD
ENDBRANCH  26  33
ENDBRANCH   1  26
TORSDOF 8
ENDMDL
MODEL 2
REMARK VINA RESULT:      -8.2      3.431      8.867
REMARK  8 active torsions:
REMARK  status: ('A' for Active; 'I' for Inactive)
REMARK    1  A    between atoms: C_2  and  C_4 
REMARK    2  A    between atoms: C_2  and  C_29 
REMARK    3  A    between atoms: C_2  and  O_3 
REMARK    4  A    between atoms: N_11  and  C_13 
REMARK    5  A    between atoms: C_13  and  C_14 
REMARK    6  A    between atoms: C_16  and  S_17 
REMARK    7  A    between atoms: S_17  and  C_18 
REMARK    8  A    between atoms: C_29  and  N_30 
ROOT
HETATM    1  C   UNL     1      -0.662   6.985 -30.173  1.00  0.00    -0.022 A 
HETATM    2  C   UNL     1      -1.946   6.847 -30.739  1.00  0.00     0.022 A 
HETATM    3  C   UNL     1      -2.137   6.723 -32.127  1.00  0.00     0.002 A 
HETATM    4  C   UNL     1      -1.024   6.766 -32.962  1.00  0.00     0.076 A 
HETATM    5  O   UNL     1      -1.159   6.707 -34.321  1.00  0.00    -0.349 OA
HETATM    6  C   UNL     1      -1.548   5.402 -34.771  1.00  0.00     0.203 C 
HETATM    7  C   UNL     1      -3.073   5.229 -34.798  1.00  0.00     0.262 C 
HETATM    8  N   UNL     1      -3.692   5.190 -33.412  1.00  0.00    -0.059 N 
HETATM    9  H   UNL     1      -4.709   5.119 -33.543  1.00  0.00     0.280 HD
HETATM   10  C   UNL     1      -3.512   6.514 -32.692  1.00  0.00     0.276 C 
HETATM   11  C   UNL     1       0.253   6.925 -32.434  1.00  0.00     0.038 A 
HETATM   12  C   UNL     1       0.437   7.002 -31.049  1.00  0.00     0.013 A 
ENDROOT
BRANCH   8  13
HETATM   13  C   UNL     1      -3.306   3.950 -32.621  1.00  0.00     0.299 C 
BRANCH  13  14
HETATM   14  C   UNL     1      -4.402   3.313 -31.847  1.00  0.00     0.080 A 
HETATM   15  O   UNL     1      -5.117   2.347 -32.480  1.00  0.00    -0.306 OA
HETATM   16  C   UNL     1      -6.024   1.837 -31.595  1.00  0.00     0.120 A 
HETATM   17  C   UNL     1      -5.958   2.563 -30.423  1.00  0.00     0.047 A 
HETATM   18  C   UNL     1      -4.909   3.506 -30.580  1.00  0.00     0.038 A 
BRANCH  16  19
HETATM   19  S   UNL     1      -7.042   0.476 -31.980  1.00  0.00    -0.025 SA
BRANCH  19  20
HETATM   20  C   UNL     1      -5.788  -0.578 -32.547  1.00  0.00     0.197 A 
HETATM   21  N   UNL     1      -5.751  -1.107 -33.805  1.00  0.00    -0.322 N 
HETATM   22  C   UNL     1      -6.676  -0.909 -34.890  1.00  0.00     0.159 C 
HETATM   23  C   UNL     1      -4.634  -1.892 -33.838  1.00  0.00     0.235 A 
HETATM   24  N   UNL     1      -4.010  -1.821 -32.684  1.00  0.00    -0.143 NA
HETATM   25  N   UNL     1      -4.736  -0.987 -31.871  1.00  0.00    -0.123 NA
ENDBRANCH  19  20
ENDBRANCH  16  19
ENDBRANCH  13  14
ENDBRANCH   8  13
BRANCH   1  26
HETATM   26  C   UNL     1      -0.498   7.019 -28.649  1.00  0.00     0.105 C 
HETATM   27  C   UNL     1       0.814   7.747 -28.311  1.00  0.00     0.053 C 
BRANCH  26  28
HETATM   28  C   UNL     1      -1.672   7.707 -27.873  1.00  0.00     0.276 C 
BRANCH  28  29
HETATM   29  N   UNL     1      -2.522   6.752 -27.028  1.00  0.00    -0.076 N 
HETATM   30  H   UNL     1      -2.227   5.792 -27.243  1.00  0.00     0.279 HD
HETATM   31  C   UNL     1      -2.332   6.919 -25.541  1.00  0.00     0.269 C 
HETATM   32  C   UNL     1      -3.978   6.863 -27.397  1.00  0.00     0.269 C 
ENDBRANCH  28  29
ENDBRANCH  26  28
BRANCH  26  33
HETATM   33  O   UNL     1      -0.408   5.670 -28.159  1.00  0.00    -0.384 OA
HETATM   34  H   UNL     1       0.522   5.462 -27.952  1.00  0.00     0.211 HD
ENDBRANCH  26  33
ENDBRANCH   1  26
TORSDOF 8
ENDMDL
MODEL 3
REMARK VINA RESULT:      -8.0      2.188      2.780
REMARK  8 active torsions:
REMARK  status: ('A' for Active; 'I' for Inactive)
REMARK    1  A    between atoms: C_2  and  C_4 
REMARK    2  A    between atoms: C_2  and  C_29 
REMARK    3  A    between atoms: C_2  and  O_3 
REMARK    4  A    between atoms: N_11  and  C_13 
REMARK    5  A    between atoms: C_13  and  C_14 
REMARK    6  A    between atoms: C_16  and  S_17 
REMARK    7  A    between atoms: S_17  and  C_18 
REMARK    8  A    between atoms: C_29  and  N_30 
ROOT
HETATM    1  C   UNL     1      -7.959   0.104 -33.366  1.00  0.00    -0.022 A 
HETATM    2  C   UNL     1      -7.228   0.258 -32.169  1.00  0.00     0.022 A 
HETATM    3  C   UNL     1      -5.996  -0.387 -31.961  1.00  0.00     0.002 A 
HETATM    4  C   UNL     1      -5.503  -1.223 -32.960  1.00  0.00     0.076 A 
HETATM    5  O   UNL     1      -4.339  -1.918 -32.785  1.00  0.00    -0.349 OA
HETATM    6  C   UNL     1      -3.187  -1.065 -32.819  1.00  0.00     0.203 C 
HETATM    7  C   UNL     1      -2.841  -0.503 -31.432  1.00  0.00     0.262 C 
HETATM    8  N   UNL     1      -3.861   0.502 -30.926  1.00  0.00    -0.059 N 
HETATM    9  H   UNL     1      -3.564   0.778 -29.982  1.00  0.00     0.280 HD
HETATM   10  C   UNL     1      -5.214  -0.151 -30.702  1.00  0.00     0.276 C 
HETATM   11  C   UNL     1      -6.212  -1.414 -34.141  1.00  0.00     0.038 A 
HETATM   12  C   UNL     1      -7.415  -0.732 -34.356  1.00  0.00     0.013 A 
ENDROOT
BRANCH   8  13
HETATM   13  C   UNL     1      -3.876   1.792 -31.730  1.00  0.00     0.299 C 
BRANCH  13  14
HETATM   14  C   UNL     1      -4.442   2.977 -31.036  1.00  0.00     0.080 A 
HETATM   15  O   UNL     1      -3.888   4.182 -31.329  1.00  0.00    -0.306 OA
HETATM   16  C   UNL     1      -4.580   5.147 -30.654  1.00  0.00     0.120 A 
HETATM   17  C   UNL     1      -5.512   4.537 -29.840  1.00  0.00     0.047 A 
HETATM   18  C   UNL     1      -5.432   3.143 -30.091  1.00  0.00     0.038 A 
BRANCH  16  19
HETATM   19  S   UNL     1      -4.266   6.847 -30.872  1.00  0.00    -0.025 SA
BRANCH  19  20
HETATM   20  C   UNL     1      -3.469   6.724 -32.406  1.00  0.00     0.197 A 
HETATM   21  N   UNL     1      -2.171   7.090 -32.621  1.00  0.00    -0.322 N 
HETATM   22  C   UNL     1      -1.218   7.611 -31.677  1.00  0.00     0.159 C 
HETATM   23  C   UNL     1      -1.942   6.865 -33.948  1.00  0.00     0.235 A 
HETATM   24  N   UNL     1      -3.022   6.362 -34.504  1.00  0.00    -0.143 NA
HETATM   25  N   UNL     1      -3.984   6.269 -33.529  1.00  0.00    -0.123 NA
ENDBRANCH  19  20
ENDBRANCH  16  19
ENDBRANCH  13  14
ENDBRANCH   8  13
BRANCH   1  26
HETATM   26  C   UNL     1      -9.248   0.905 -33.583  1.00  0.00     0.105 C 
HETATM   27  C   UNL     1     -10.419   0.131 -32.954  1.00  0.00     0.053 C 
BRANCH  26  28
HETATM   28  C   UNL     1      -9.231   2.358 -32.999  1.00  0.00     0.276 C 
BRANCH  28  29
HETATM   29  N   UNL     1      -8.598   3.406 -33.920  1.00  0.00    -0.076 N 
HETATM   30  H   UNL     1      -8.486   2.985 -34.850  1.00  0.00     0.279 HD
HETATM   31  C   UNL     1      -9.450   4.633 -34.124  1.00  0.00     0.269 C 
HETATM   32  C   UNL     1      -7.223   3.784 -33.436  1.00  0.00     0.269 C 
ENDBRANCH  28  29
ENDBRANCH  26  28
BRANCH  26  33
HETATM   33  O   UNL     1      -9.489   1.026 -34.996  1.00  0.00    -0.384 OA
HETATM   34  H   UNL     1      -9.393   1.959 -35.261  1.00  0.00     0.211 HD
ENDBRANCH  26  33
ENDBRANCH   1  26
TORSDOF 8
ENDMDL
MODEL 4
REMARK VINA RESULT:      -7.9      3.325      9.159
REMARK  8 active torsions:
REMARK  status: ('A' for Active; 'I' for Inactive)
REMARK    1  A    between atoms: C_2  and  C_4 
REMARK    2  A    between atoms: C_2  and  C_29 
REMARK    3  A    between atoms: C_2  and  O_3 
REMARK    4  A    between atoms: N_11  and  C_13 
REMARK    5  A    between atoms: C_13  and  C_14 
REMARK    6  A    between atoms: C_16  and  S_17 
REMARK    7  A    between atoms: S_17  and  C_18 
REMARK    8  A    between atoms: C_29  and  N_30 
ROOT
HETATM    1  C   UNL     1      -1.495   5.988 -31.373  1.00  0.00    -0.022 A 
HETATM    2  C   UNL     1      -2.845   5.700 -31.084  1.00  0.00     0.022 A 
HETATM    3  C   UNL     1      -3.825   5.634 -32.091  1.00  0.00     0.002 A 
HETATM    4  C   UNL     1      -3.448   5.889 -33.407  1.00  0.00     0.076 A 
HETATM    5  O   UNL     1      -4.370   5.894 -34.416  1.00  0.00    -0.349 OA
HETATM    6  C   UNL     1      -4.846   4.576 -34.723  1.00  0.00     0.203 C 
HETATM    7  C   UNL     1      -6.059   4.184 -33.866  1.00  0.00     0.262 C 
HETATM    8  N   UNL     1      -5.711   3.972 -32.404  1.00  0.00    -0.059 N 
HETATM    9  H   UNL     1      -6.591   3.761 -31.916  1.00  0.00     0.280 HD
HETATM   10  C   UNL     1      -5.240   5.261 -31.756  1.00  0.00     0.276 C 
HETATM   11  C   UNL     1      -2.129   6.200 -33.721  1.00  0.00     0.038 A 
HETATM   12  C   UNL     1      -1.154   6.219 -32.717  1.00  0.00     0.013 A 
ENDROOT
BRANCH   8  13
HETATM   13  C   UNL     1      -4.828   2.755 -32.172  1.00  0.00     0.299 C 
BRANCH  13  14
HETATM   14  C   UNL     1      -5.510   1.439 -32.258  1.00  0.00     0.080 A 
HETATM   15  O   UNL     1      -5.693   0.924 -33.502  1.00  0.00    -0.306 OA
HETATM   16  C   UNL     1      -6.268  -0.308 -33.375  1.00  0.00     0.120 A 
HETATM   17  C   UNL     1      -6.552  -0.531 -32.043  1.00  0.00     0.047 A 
HETATM   18  C   UNL     1      -6.057   0.587 -31.322  1.00  0.00     0.038 A 
BRANCH  16  19
HETATM   19  S   UNL     1      -6.538  -1.358 -34.740  1.00  0.00    -0.025 SA
BRANCH  19  20
HETATM   20  C   UNL     1      -5.370  -2.567 -34.317  1.00  0.00     0.197 A 
HETATM   21  N   UNL     1      -5.482  -3.885 -34.658  1.00  0.00    -0.322 N 
HETATM   22  C   UNL     1      -6.523  -4.531 -35.415  1.00  0.00     0.159 C 
HETATM   23  C   UNL     1      -4.387  -4.496 -34.120  1.00  0.00     0.235 A 
HETATM   24  N   UNL     1      -3.634  -3.603 -33.517  1.00  0.00    -0.143 NA
HETATM   25  N   UNL     1      -4.253  -2.385 -33.647  1.00  0.00    -0.123 NA
ENDBRANCH  19  20
ENDBRANCH  16  19
ENDBRANCH  13  14
ENDBRANCH   8  13
BRANCH   1  26
HETATM   26  C   UNL     1      -0.449   5.953 -30.254  1.00  0.00     0.105 C 
HETATM   27  C   UNL     1       0.855   6.579 -30.779  1.00  0.00     0.053 C 
BRANCH  26  28
HETATM   28  C   UNL     1      -0.867   6.688 -28.935  1.00  0.00     0.276 C 
BRANCH  28  29
HETATM   29  N   UNL     1      -0.642   8.203 -28.952  1.00  0.00    -0.076 N 
HETATM   30  H   UNL     1       0.000   8.420 -29.724  1.00  0.00     0.279 HD
HETATM   31  C   UNL     1      -1.892   9.003 -29.220  1.00  0.00     0.269 C 
HETATM   32  C   UNL     1       0.024   8.660 -27.681  1.00  0.00     0.269 C 
ENDBRANCH  28  29
ENDBRANCH  26  28
BRANCH  26  33
HETATM   33  O   UNL     1      -0.187   4.583 -29.903  1.00  0.00    -0.384 OA
HETATM   34  H   UNL     1       0.457   4.206 -30.531  1.00  0.00     0.211 HD
ENDBRANCH  26  33
ENDBRANCH   1  26
TORSDOF 8
ENDMDL
MODEL 5
REMARK VINA RESULT:      -7.8      1.739      2.345
REMARK  8 active torsions:
REMARK  status: ('A' for Active; 'I' for Inactive)
REMARK    1  A    between atoms: C_2  and  C_4 
REMARK    2  A    between atoms: C_2  and  C_29 
REMARK    3  A    between atoms: C_2  and  O_3 
REMARK    4  A    between atoms: N_11  and  C_13 
REMARK    5  A    between atoms: C_13  and  C_14 
REMARK    6  A    between atoms: C_16  and  S_17 
REMARK    7  A    between atoms: S_17  and  C_18 
REMARK    8  A    between atoms: C_29  and  N_30 
ROOT
HETATM    1  C   UNL     1      -8.461   1.078 -32.776  1.00  0.00    -0.022 A 
HETATM    2  C   UNL     1      -7.496   1.471 -31.826  1.00  0.00     0.022 A 
HETATM    3  C   UNL     1      -6.310   0.742 -31.625  1.00  0.00     0.002 A 
HETATM    4  C   UNL     1      -6.103  -0.416 -32.370  1.00  0.00     0.076 A 
HETATM    5  O   UNL     1      -4.995  -1.192 -32.173  1.00  0.00    -0.349 OA
HETATM    6  C   UNL     1      -3.801  -0.567 -32.663  1.00  0.00     0.203 C 
HETATM    7  C   UNL     1      -3.136   0.324 -31.603  1.00  0.00     0.262 C 
HETATM    8  N   UNL     1      -3.941   1.573 -31.287  1.00  0.00    -0.059 N 
HETATM    9  H   UNL     1      -3.437   2.070 -30.542  1.00  0.00     0.280 HD
HETATM   10  C   UNL     1      -5.274   1.224 -30.651  1.00  0.00     0.276 C 
HETATM   11  C   UNL     1      -7.048  -0.842 -33.297  1.00  0.00     0.038 A 
HETATM   12  C   UNL     1      -8.203  -0.085 -33.521  1.00  0.00     0.013 A 
ENDROOT
BRANCH   8  13
HETATM   13  C   UNL     1      -3.999   2.554 -32.448  1.00  0.00     0.299 C 
BRANCH  13  14
HETATM   14  C   UNL     1      -2.921   3.575 -32.483  1.00  0.00     0.080 A 
HETATM   15  O   UNL     1      -2.309   3.860 -31.305  1.00  0.00    -0.306 OA
HETATM   16  C   UNL     1      -1.311   4.760 -31.549  1.00  0.00     0.120 A 
HETATM   17  C   UNL     1      -1.361   5.131 -32.876  1.00  0.00     0.047 A 
HETATM   18  C   UNL     1      -2.390   4.363 -33.481  1.00  0.00     0.038 A 
BRANCH  16  19
HETATM   19  S   UNL     1      -0.196   5.277 -30.312  1.00  0.00    -0.025 SA
BRANCH  19  20
HETATM   20  C   UNL     1      -1.086   6.668 -29.787  1.00  0.00     0.197 A 
HETATM   21  N   UNL     1      -0.542   7.692 -29.064  1.00  0.00    -0.322 N 
HETATM   22  C   UNL     1       0.817   7.849 -28.615  1.00  0.00     0.159 C 
HETATM   23  C   UNL     1      -1.567   8.563 -28.835  1.00  0.00     0.235 A 
HETATM   24  N   UNL     1      -2.662   8.118 -29.409  1.00  0.00    -0.143 NA
HETATM   25  N   UNL     1      -2.357   6.925 -30.014  1.00  0.00    -0.123 NA
ENDBRANCH  19  20
ENDBRANCH  16  19
ENDBRANCH  13  14
ENDBRANCH   8  13
BRANCH   1  26
HETATM   26  C   UNL     1      -9.691   1.959 -33.026  1.00  0.00     0.105 C 
HETATM   27  C   UNL     1      -9.226   3.291 -33.637  1.00  0.00     0.053 C 
BRANCH  26  28
HETATM   28  C   UNL     1     -10.779   1.326 -33.959  1.00  0.00     0.276 C 
BRANCH  28  29
HETATM   29  N   UNL     1     -12.185   1.274 -33.353  1.00  0.00    -0.076 N 
HETATM   30  H   UNL     1     -12.100   1.438 -32.342  1.00  0.00     0.279 HD
HETATM   31  C   UNL     1     -13.111   2.347 -33.867  1.00  0.00     0.269 C 
HETATM   32  C   UNL     1     -12.795  -0.091 -33.532  1.00  0.00     0.269 C 
ENDBRANCH  28  29
ENDBRANCH  26  28
BRANCH  26  33
HETATM   33  O   UNL     1     -10.331   2.235 -31.767  1.00  0.00    -0.384 OA
HETATM   34  H   UNL     1     -11.269   1.975 -31.818  1.00  0.00     0.211 HD
ENDBRANCH  26  33
ENDBRANCH   1  26
TORSDOF 8
ENDMDL
MODEL 6
REMARK VINA RESULT:      -7.8      1.482      1.859
REMARK  8 active torsions:
REMARK  status: ('A' for Active; 'I' for Inactive)
REMARK    1  A    between atoms: C_2  and  C_4 
REMARK    2  A    between atoms: C_2  and  C_29 
REMARK    3  A    between atoms: C_2  and  O_3 
REMARK    4  A    between atoms: N_11  and  C_13 
REMARK    5  A    between atoms: C_13  and  C_14 
REMARK    6  A    between atoms: C_16  and  S_17 
REMARK    7  A    between atoms: S_17  and  C_18 
REMARK    8  A    between atoms: C_29  and  N_30 
ROOT
HETATM    1  C   UNL     1      -8.375   0.874 -32.857  1.00  0.00    -0.022 A 
HETATM    2  C   UNL     1      -7.691   1.757 -31.996  1.00  0.00     0.022 A 
HETATM    3  C   UNL     1      -6.374   1.511 -31.571  1.00  0.00     0.002 A 
HETATM    4  C   UNL     1      -5.742   0.345 -31.994  1.00  0.00     0.076 A 
HETATM    5  O   UNL     1      -4.483   0.029 -31.565  1.00  0.00    -0.349 OA
HETATM    6  C   UNL     1      -3.483   0.878 -32.146  1.00  0.00     0.203 C 
HETATM    7  C   UNL     1      -3.247   2.148 -31.316  1.00  0.00     0.262 C 
HETATM    8  N   UNL     1      -4.421   3.110 -31.355  1.00  0.00    -0.059 N 
HETATM    9  H   UNL     1      -4.181   3.896 -30.737  1.00  0.00     0.280 HD
HETATM   10  C   UNL     1      -5.652   2.504 -30.707  1.00  0.00     0.276 C 
HETATM   11  C   UNL     1      -6.399  -0.558 -32.823  1.00  0.00     0.038 A 
HETATM   12  C   UNL     1      -7.694  -0.281 -33.277  1.00  0.00     0.013 A 
ENDROOT
BRANCH   8  13
HETATM   13  C   UNL     1      -4.634   3.735 -32.725  1.00  0.00     0.299 C 
BRANCH  13  14
HETATM   14  C   UNL     1      -3.538   4.610 -33.212  1.00  0.00     0.080 A 
HETATM   15  O   UNL     1      -3.022   5.498 -32.322  1.00  0.00    -0.306 OA
HETATM   16  C   UNL     1      -1.990   6.158 -32.927  1.00  0.00     0.120 A 
HETATM   17  C   UNL     1      -1.922   5.762 -34.247  1.00  0.00     0.047 A 
HETATM   18  C   UNL     1      -2.910   4.760 -34.429  1.00  0.00     0.038 A 
BRANCH  16  19
HETATM   19  S   UNL     1      -0.974   7.286 -32.071  1.00  0.00    -0.025 SA
BRANCH  19  20
HETATM   20  C   UNL     1      -0.222   6.139 -31.011  1.00  0.00     0.197 A 
HETATM   21  N   UNL     1       0.132   6.414 -29.721  1.00  0.00    -0.322 N 
HETATM   22  C   UNL     1      -0.043   7.638 -28.983  1.00  0.00     0.159 C 
HETATM   23  C   UNL     1       0.710   5.271 -29.249  1.00  0.00     0.235 A 
HETATM   24  N   UNL     1       0.682   4.344 -30.181  1.00  0.00    -0.143 NA
HETATM   25  N   UNL     1       0.088   4.891 -31.290  1.00  0.00    -0.123 NA
ENDBRANCH  19  20
ENDBRANCH  16  19
ENDBRANCH  13  14
ENDBRANCH   8  13
BRANCH   1  26
HETATM   26  C   UNL     1      -9.774   1.234 -33.368  1.00  0.00     0.105 C 
HETATM   27  C   UNL     1     -10.725   0.062 -33.071  1.00  0.00     0.053 C 
BRANCH  26  28
HETATM   28  C   UNL     1     -10.382   2.545 -32.763  1.00  0.00     0.276 C 
BRANCH  28  29
HETATM   29  N   UNL     1     -11.461   3.205 -33.628  1.00  0.00    -0.076 N 
HETATM   30  H   UNL     1     -11.515   2.689 -34.515  1.00  0.00     0.279 HD
HETATM   31  C   UNL     1     -12.845   3.141 -33.031  1.00  0.00     0.269 C 
HETATM   32  C   UNL     1     -11.087   4.624 -33.962  1.00  0.00     0.269 C 
ENDBRANCH  28  29
ENDBRANCH  26  28
BRANCH  26  33
HETATM   33  O   UNL     1      -9.716   1.422 -34.794  1.00  0.00    -0.384 OA
HETATM   34  H   UNL     1     -10.162   0.676 -35.236  1.00  0.00     0.211 HD
ENDBRANCH  26  33
ENDBRANCH   1  26
TORSDOF 8
ENDMDL
MODEL 7
REMARK VINA RESULT:      -7.7      3.436      8.423
REMARK  8 active torsions:
REMARK  status: ('A' for Active; 'I' for Inactive)
REMARK    1  A    between atoms: C_2  and  C_4 
REMARK    2  A    between atoms: C_2  and  C_29 
REMARK    3  A    between atoms: C_2  and  O_3 
REMARK    4  A    between atoms: N_11  and  C_13 
REMARK    5  A    between atoms: C_13  and  C_14 
REMARK    6  A    between atoms: C_16  and  S_17 
REMARK    7  A    between atoms: S_17  and  C_18 
REMARK    8  A    between atoms: C_29  and  N_30 
ROOT
HETATM    1  C   UNL     1      -4.672   5.285 -31.310  1.00  0.00    -0.022 A 
HETATM    2  C   UNL     1      -5.365   4.294 -30.585  1.00  0.00     0.022 A 
HETATM    3  C   UNL     1      -6.756   4.350 -30.389  1.00  0.00     0.002 A 
HETATM    4  C   UNL     1      -7.461   5.434 -30.907  1.00  0.00     0.076 A 
HETATM    5  O   UNL     1      -8.805   5.566 -30.697  1.00  0.00    -0.349 OA
HETATM    6  C   UNL     1      -9.568   4.610 -31.445  1.00  0.00     0.203 C 
HETATM    7  C   UNL     1      -9.765   3.296 -30.676  1.00  0.00     0.262 C 
HETATM    8  N   UNL     1      -8.482   2.500 -30.520  1.00  0.00    -0.059 N 
HETATM    9  H   UNL     1      -8.713   1.671 -29.957  1.00  0.00     0.280 HD
HETATM   10  C   UNL     1      -7.471   3.245 -29.667  1.00  0.00     0.276 C 
HETATM   11  C   UNL     1      -6.802   6.440 -31.606  1.00  0.00     0.038 A 
HETATM   12  C   UNL     1      -5.424   6.351 -31.833  1.00  0.00     0.013 A 
ENDROOT
BRANCH   8  13
HETATM   13  C   UNL     1      -7.957   1.950 -31.837  1.00  0.00     0.299 C 
BRANCH  13  14
HETATM   14  C   UNL     1      -6.964   0.851 -31.726  1.00  0.00     0.080 A 
HETATM   15  O   UNL     1      -6.338   0.473 -32.871  1.00  0.00    -0.306 OA
HETATM   16  C   UNL     1      -5.422  -0.491 -32.560  1.00  0.00     0.120 A 
HETATM   17  C   UNL     1      -5.545  -0.805 -31.222  1.00  0.00     0.047 A 
HETATM   18  C   UNL     1      -6.529   0.063 -30.682  1.00  0.00     0.038 A 
BRANCH  16  19
HETATM   19  S   UNL     1      -4.312  -1.139 -33.737  1.00  0.00    -0.025 SA
BRANCH  19  20
HETATM   20  C   UNL     1      -5.289  -2.480 -34.240  1.00  0.00     0.197 A 
HETATM   21  N   UNL     1      -4.850  -3.773 -34.267  1.00  0.00    -0.322 N 
HETATM   22  C   UNL     1      -3.560  -4.291 -33.891  1.00  0.00     0.159 C 
HETATM   23  C   UNL     1      -5.900  -4.505 -34.742  1.00  0.00     0.235 A 
HETATM   24  N   UNL     1      -6.928  -3.715 -34.959  1.00  0.00    -0.143 NA
HETATM   25  N   UNL     1      -6.543  -2.438 -34.637  1.00  0.00    -0.123 NA
ENDBRANCH  19  20
ENDBRANCH  16  19
ENDBRANCH  13  14
ENDBRANCH   8  13
BRANCH   1  26
HETATM   26  C   UNL     1      -3.171   5.129 -31.577  1.00  0.00     0.105 C 
HETATM   27  C   UNL     1      -2.855   3.633 -31.749  1.00  0.00     0.053 C 
BRANCH  26  28
HETATM   28  C   UNL     1      -2.638   5.906 -32.829  1.00  0.00     0.276 C 
BRANCH  28  29
HETATM   29  N   UNL     1      -2.577   5.075 -34.115  1.00  0.00    -0.076 N 
HETATM   30  H   UNL     1      -2.587   4.082 -33.852  1.00  0.00     0.279 HD
HETATM   31  C   UNL     1      -3.764   5.271 -35.024  1.00  0.00     0.269 C 
HETATM   32  C   UNL     1      -1.290   5.326 -34.854  1.00  0.00     0.269 C 
ENDBRANCH  28  29
ENDBRANCH  26  28
BRANCH  26  33
HETATM   33  O   UNL     1      -2.441   5.620 -30.439  1.00  0.00    -0.384 OA
HETATM   34  H   UNL     1      -2.510   6.592 -30.406  1.00  0.00     0.211 HD
ENDBRANCH  26  33
ENDBRANCH   1  26
TORSDOF 8
ENDMDL
MODEL 8
REMARK VINA RESULT:      -7.6      3.305      6.074
REMARK  8 active torsions:
REMARK  status: ('A' for Active; 'I' for Inactive)
REMARK    1  A    between atoms: C_2  and  C_4 
REMARK    2  A    between atoms: C_2  and  C_29 
REMARK    3  A    between atoms: C_2  and  O_3 
REMARK    4  A    between atoms: N_11  and  C_13 
REMARK    5  A    between atoms: C_13  and  C_14 
REMARK    6  A    between atoms: C_16  and  S_17 
REMARK    7  A    between atoms: S_17  and  C_18 
REMARK    8  A    between atoms: C_29  and  N_30 
ROOT
HETATM    1  C   UNL     1      -4.851   3.457 -31.477  1.00  0.00    -0.022 A 
HETATM    2  C   UNL     1      -3.487   3.764 -31.298  1.00  0.00     0.022 A 
HETATM    3  C   UNL     1      -2.735   4.423 -32.286  1.00  0.00     0.002 A 
HETATM    4  C   UNL     1      -3.357   4.756 -33.487  1.00  0.00     0.076 A 
HETATM    5  O   UNL     1      -2.658   5.346 -34.503  1.00  0.00    -0.349 OA
HETATM    6  C   UNL     1      -2.318   6.708 -34.208  1.00  0.00     0.203 C 
HETATM    7  C   UNL     1      -0.978   6.824 -33.467  1.00  0.00     0.262 C 
HETATM    8  N   UNL     1      -1.034   6.285 -32.049  1.00  0.00    -0.059 N 
HETATM    9  H   UNL     1      -0.085   6.367 -31.662  1.00  0.00     0.280 HD
HETATM   10  C   UNL     1      -1.301   4.791 -32.037  1.00  0.00     0.276 C 
HETATM   11  C   UNL     1      -4.695   4.446 -33.703  1.00  0.00     0.038 A 
HETATM   12  C   UNL     1      -5.445   3.829 -32.696  1.00  0.00     0.013 A 
ENDROOT
BRANCH   8  13
HETATM   13  C   UNL     1      -1.909   7.120 -31.128  1.00  0.00     0.299 C 
BRANCH  13  14
HETATM   14  C   UNL     1      -1.573   7.051 -29.682  1.00  0.00     0.080 A 
HETATM   15  O   UNL     1      -2.556   7.391 -28.808  1.00  0.00    -0.306 OA
HETATM   16  C   UNL     1      -2.085   7.201 -27.540  1.00  0.00     0.120 A 
HETATM   17  C   UNL     1      -0.754   6.842 -27.610  1.00  0.00     0.047 A 
HETATM   18  C   UNL     1      -0.426   6.736 -28.986  1.00  0.00     0.038 A 
BRANCH  16  19
HETATM   19  S   UNL     1      -3.092   7.392 -26.131  1.00  0.00    -0.025 SA
BRANCH  19  20
HETATM   20  C   UNL     1      -4.601   7.005 -26.890  1.00  0.00     0.197 A 
HETATM   21  N   UNL     1      -5.440   7.935 -27.435  1.00  0.00    -0.322 N 
HETATM   22  C   UNL     1      -5.266   9.362 -27.516  1.00  0.00     0.159 C 
HETATM   23  C   UNL     1      -6.514   7.232 -27.899  1.00  0.00     0.235 A 
HETATM   24  N   UNL     1      -6.330   5.949 -27.681  1.00  0.00    -0.143 NA
HETATM   25  N   UNL     1      -5.121   5.806 -27.050  1.00  0.00    -0.123 NA
ENDBRANCH  19  20
ENDBRANCH  16  19
ENDBRANCH  13  14
ENDBRANCH   8  13
BRANCH   1  26
HETATM   26  C   UNL     1      -5.651   2.824 -30.333  1.00  0.00     0.105 C 
HETATM   27  C   UNL     1      -7.151   3.000 -30.624  1.00  0.00     0.053 C 
BRANCH  26  28
HETATM   28  C   UNL     1      -5.358   1.306 -30.082  1.00  0.00     0.276 C 
BRANCH  28  29
HETATM   29  N   UNL     1      -4.883   0.537 -31.319  1.00  0.00    -0.076 N 
HETATM   30  H   UNL     1      -4.801   1.205 -32.096  1.00  0.00     0.279 HD
HETATM   31  C   UNL     1      -3.517  -0.084 -31.165  1.00  0.00     0.269 C 
HETATM   32  C   UNL     1      -5.898  -0.498 -31.729  1.00  0.00     0.269 C 
ENDBRANCH  28  29
ENDBRANCH  26  28
BRANCH  26  33
HETATM   33  O   UNL     1      -5.341   3.516 -29.110  1.00  0.00    -0.384 OA
HETATM   34  H   UNL     1      -6.138   3.976 -28.788  1.00  0.00     0.211 HD
ENDBRANCH  26  33
ENDBRANCH   1  26
TORSDOF 8
ENDMDL
MODEL 9
REMARK VINA RESULT:      -7.5     16.846     19.174
REMARK  8 active torsions:
REMARK  status: ('A' for Active; 'I' for Inactive)
REMARK    1  A    between atoms: C_2  and  C_4 
REMARK    2  A    between atoms: C_2  and  C_29 
REMARK    3  A    between atoms: C_2  and  O_3 
REMARK    4  A    between atoms: N_11  and  C_13 
REMARK    5  A    between atoms: C_13  and  C_14 
REMARK    6  A    between atoms: C_16  and  S_17 
REMARK    7  A    between atoms: S_17  and  C_18 
REMARK    8  A    between atoms: C_29  and  N_30 
ROOT
HETATM    1  C   UNL     1      -4.846 -12.546 -39.010  1.00  0.00    -0.022 A 
HETATM    2  C   UNL     1      -5.947 -12.876 -38.193  1.00  0.00     0.022 A 
HETATM    3  C   UNL     1      -7.268 -12.835 -38.673  1.00  0.00     0.002 A 
HETATM    4  C   UNL     1      -7.490 -12.429 -39.986  1.00  0.00     0.076 A 
HETATM    5  O   UNL     1      -8.758 -12.317 -40.484  1.00  0.00    -0.349 OA
HETATM    6  C   UNL     1      -9.375 -13.595 -40.690  1.00  0.00     0.203 C 
HETATM    7  C   UNL     1     -10.111 -14.092 -39.438  1.00  0.00     0.262 C 
HETATM    8  N   UNL     1      -9.171 -14.466 -38.305  1.00  0.00    -0.059 N 
HETATM    9  H   UNL     1      -9.761 -14.739 -37.508  1.00  0.00     0.280 HD
HETATM   10  C   UNL     1      -8.412 -13.255 -37.796  1.00  0.00     0.276 C 
HETATM   11  C   UNL     1      -6.427 -12.074 -40.809  1.00  0.00     0.038 A 
HETATM   12  C   UNL     1      -5.112 -12.161 -40.335  1.00  0.00     0.013 A 
ENDROOT
BRANCH   8  13
HETATM   13  C   UNL     1      -8.328 -15.694 -38.611  1.00  0.00     0.299 C 
BRANCH  13  14
HETATM   14  C   UNL     1      -8.208 -16.684 -37.511  1.00  0.00     0.080 A 
HETATM   15  O   UNL     1      -7.545 -16.282 -36.396  1.00  0.00    -0.306 OA
HETATM   16  C   UNL     1      -7.598 -17.294 -35.479  1.00  0.00     0.120 A 
HETATM   17  C   UNL     1      -8.207 -18.388 -36.059  1.00  0.00     0.047 A 
HETATM   18  C   UNL     1      -8.608 -17.995 -37.362  1.00  0.00     0.038 A 
BRANCH  16  19
HETATM   19  S   UNL     1      -6.981 -17.119 -33.858  1.00  0.00    -0.025 SA
BRANCH  19  20
HETATM   20  C   UNL     1      -6.756 -15.401 -33.897  1.00  0.00     0.197 A 
HETATM   21  N   UNL     1      -5.558 -14.797 -34.154  1.00  0.00    -0.322 N 
HETATM   22  C   UNL     1      -4.289 -15.409 -34.450  1.00  0.00     0.159 C 
HETATM   23  C   UNL     1      -5.799 -13.456 -34.065  1.00  0.00     0.235 A 
HETATM   24  N   UNL     1      -7.071 -13.252 -33.804  1.00  0.00    -0.143 NA
HETATM   25  N   UNL     1      -7.675 -14.479 -33.704  1.00  0.00    -0.123 NA
ENDBRANCH  19  20
ENDBRANCH  16  19
ENDBRANCH  13  14
ENDBRANCH   8  13
BRANCH   1  26
HETATM   26  C   UNL     1      -3.419 -12.699 -38.470  1.00  0.00     0.105 C 
HETATM   27  C   UNL     1      -3.483 -12.805 -36.937  1.00  0.00     0.053 C 
BRANCH  26  28
HETATM   28  C   UNL     1      -2.629 -13.931 -39.030  1.00  0.00     0.276 C 
BRANCH  28  29
HETATM   29  N   UNL     1      -1.878 -13.663 -40.338  1.00  0.00    -0.076 N 
HETATM   30  H   UNL     1      -1.908 -12.652 -40.520  1.00  0.00     0.279 HD
HETATM   31  C   UNL     1      -0.416 -14.028 -40.288  1.00  0.00     0.269 C 
HETATM   32  C   UNL     1      -2.560 -14.343 -41.496  1.00  0.00     0.269 C 
ENDBRANCH  28  29
ENDBRANCH  26  28
BRANCH  26  33
HETATM   33  O   UNL     1      -2.662 -11.526 -38.814  1.00  0.00    -0.384 OA
HETATM   34  H   UNL     1      -3.203 -10.732 -38.650  1.00  0.00     0.211 HD
ENDBRANCH  26  33
ENDBRANCH   1  26
TORSDOF 8
ENDMDL
MODEL 10
REMARK VINA RESULT:      -7.5      3.411      8.860
REMARK  8 active torsions:
REMARK  status: ('A' for Active; 'I' for Inactive)
REMARK    1  A    between atoms: C_2  and  C_4 
REMARK    2  A    between atoms: C_2  and  C_29 
REMARK    3  A    between atoms: C_2  and  O_3 
REMARK    4  A    between atoms: N_11  and  C_13 
REMARK    5  A    between atoms: C_13  and  C_14 
REMARK    6  A    between atoms: C_16  and  S_17 
REMARK    7  A    between atoms: S_17  and  C_18 
REMARK    8  A    between atoms: C_29  and  N_30 
ROOT
HETATM    1  C   UNL     1      -5.033   2.525 -31.989  1.00  0.00    -0.022 A 
HETATM    2  C   UNL     1      -5.870   2.274 -33.096  1.00  0.00     0.022 A 
HETATM    3  C   UNL     1      -5.852   1.046 -33.780  1.00  0.00     0.002 A 
HETATM    4  C   UNL     1      -4.958   0.062 -33.364  1.00  0.00     0.076 A 
HETATM    5  O   UNL     1      -4.860  -1.128 -34.030  1.00  0.00    -0.349 OA
HETATM    6  C   UNL     1      -6.005  -1.964 -33.817  1.00  0.00     0.203 C 
HETATM    7  C   UNL     1      -7.117  -1.696 -34.842  1.00  0.00     0.262 C 
HETATM    8  N   UNL     1      -7.780  -0.342 -34.659  1.00  0.00    -0.059 N 
HETATM    9  H   UNL     1      -8.470  -0.245 -35.415  1.00  0.00     0.280 HD
HETATM   10  C   UNL     1      -6.802   0.790 -34.914  1.00  0.00     0.276 C 
HETATM   11  C   UNL     1      -4.103   0.288 -32.291  1.00  0.00     0.038 A 
HETATM   12  C   UNL     1      -4.161   1.498 -31.589  1.00  0.00     0.013 A 
ENDROOT
BRANCH   8  13
HETATM   13  C   UNL     1      -8.586  -0.242 -33.373  1.00  0.00     0.299 C 
BRANCH  13  14
HETATM   14  C   UNL     1      -9.342   1.022 -33.184  1.00  0.00     0.080 A 
HETATM   15  O   UNL     1     -10.112   1.436 -34.223  1.00  0.00    -0.306 OA
HETATM   16  C   UNL     1     -10.776   2.567 -33.839  1.00  0.00     0.120 A 
HETATM   17  C   UNL     1     -10.340   2.934 -32.583  1.00  0.00     0.047 A 
HETATM   18  C   UNL     1      -9.425   1.936 -32.156  1.00  0.00     0.038 A 
BRANCH  16  19
HETATM   19  S   UNL     1     -11.975   3.333 -34.845  1.00  0.00    -0.025 SA
BRANCH  19  20
HETATM   20  C   UNL     1     -13.297   2.288 -34.439  1.00  0.00     0.197 A 
HETATM   21  N   UNL     1     -14.086   2.453 -33.336  1.00  0.00    -0.322 N 
HETATM   22  C   UNL     1     -14.017   3.479 -32.329  1.00  0.00     0.159 C 
HETATM   23  C   UNL     1     -14.979   1.421 -33.368  1.00  0.00     0.235 A 
HETATM   24  N   UNL     1     -14.771   0.689 -34.440  1.00  0.00    -0.143 NA
HETATM   25  N   UNL     1     -13.713   1.240 -35.118  1.00  0.00    -0.123 NA
ENDBRANCH  19  20
ENDBRANCH  16  19
ENDBRANCH  13  14
ENDBRANCH   8  13
BRANCH   1  26
HETATM   26  C   UNL     1      -5.158   3.843 -31.217  1.00  0.00     0.105 C 
HETATM   27  C   UNL     1      -5.463   3.524 -29.744  1.00  0.00     0.053 C 
BRANCH  26  28
HETATM   28  C   UNL     1      -3.898   4.771 -31.284  1.00  0.00     0.276 C 
BRANCH  28  29
HETATM   29  N   UNL     1      -3.184   4.778 -32.640  1.00  0.00    -0.076 N 
HETATM   30  H   UNL     1      -3.459   3.928 -33.147  1.00  0.00     0.279 HD
HETATM   31  C   UNL     1      -3.575   5.931 -33.530  1.00  0.00     0.269 C 
HETATM   32  C   UNL     1      -1.691   4.725 -32.459  1.00  0.00     0.269 C 
ENDBRANCH  28  29
ENDBRANCH  26  28
BRANCH  26  33
HETATM   33  O   UNL     1      -6.260   4.596 -31.756  1.00  0.00    -0.384 OA
HETATM   34  H   UNL     1      -5.926   5.427 -32.141  1.00  0.00     0.211 HD
ENDBRANCH  26  33
ENDBRANCH   1  26
TORSDOF 8
ENDMDL
