MODEL 1
REMARK VINA RESULT:      -7.7      0.000      0.000
REMARK  5 active torsions:
REMARK  status: ('A' for Active; 'I' for Inactive)
REMARK    1  A    between atoms: C_8  and  N_9 
REMARK       I    between atoms: N_9  and  C_10 
REMARK    2  A    between atoms: C_10  and  C_11 
REMARK    3  A    between atoms: C_11  and  N_12 
REMARK    4  A    between atoms: N_12  and  C_13 
REMARK    5  A    between atoms: C_13  and  C_14 
ROOT
HETATM    1  C   UNL     1      -3.727   2.007 -31.528  1.00  0.00     0.372 C 
ENDROOT
BRANCH   1   2
HETATM    2  C   UNL     1      -3.530   3.518 -31.759  1.00  0.00     0.250 C 
HETATM    3  N   UNL     1      -2.602   3.777 -32.750  1.00  0.00    -0.322 N 
HETATM    4  H   UNL     1      -2.218   2.987 -33.248  1.00  0.00     0.169 HD
HETATM    5  O   UNL     1      -4.206   4.346 -31.157  1.00  0.00    -0.271 OA
BRANCH   3   6
HETATM    6  C   UNL     1      -2.201   5.022 -33.211  1.00  0.00     0.085 A 
HETATM    7  C   UNL     1      -2.786   5.603 -34.322  1.00  0.00     0.052 A 
HETATM    8  C   UNL     1      -3.870   5.162 -35.232  1.00  0.00     0.072 C 
HETATM    9  N   UNL     1      -2.163   6.806 -34.487  1.00  0.00    -0.280 N 
HETATM   10  H   UNL     1      -2.335   7.511 -35.196  1.00  0.00     0.189 HD
HETATM   11  N   UNL     1      -1.214   7.052 -33.582  1.00  0.00    -0.177 NA
HETATM   12  C   UNL     1      -1.217   5.965 -32.792  1.00  0.00     0.079 A 
HETATM   13  C   UNL     1      -0.224   5.906 -31.690  1.00  0.00     0.075 C 
ENDBRANCH   3   6
ENDBRANCH   1   2
BRANCH   1  14
HETATM   14  N   UNL     1      -4.490   1.430 -32.639  1.00  0.00     0.101 N 
HETATM   15  H   UNL     1      -3.835   0.940 -33.260  1.00  0.00     0.317 HD
BRANCH  14  16
HETATM   16  C   UNL     1      -5.569   0.518 -32.233  1.00  0.00     0.254 C 
HETATM   17  C   UNL     1      -5.444   0.028 -30.784  1.00  0.00     0.048 C 
BRANCH  16  18
HETATM   18  C   UNL     1      -5.635  -0.694 -33.155  1.00  0.00     0.035 A 
HETATM   19  C   UNL     1      -6.834  -1.149 -33.731  1.00  0.00     0.045 A 
HETATM   20 CL   UNL     1      -8.353  -0.368 -33.450  1.00  0.00    -0.084 Cl
HETATM   21  C   UNL     1      -6.857  -2.292 -34.544  1.00  0.00     0.024 A 
HETATM   22  C   UNL     1      -5.688  -3.008 -34.794  1.00  0.00     0.005 A 
HETATM   23  C   UNL     1      -4.496  -2.587 -34.220  1.00  0.00     0.043 A 
HETATM   24  C   UNL     1      -4.480  -1.454 -33.408  1.00  0.00     0.126 A 
HETATM   25  F   UNL     1      -3.314  -1.114 -32.838  1.00  0.00    -0.205 F 
ENDBRANCH  16  18
ENDBRANCH  14  16
ENDBRANCH   1  14
TORSDOF 5
ENDMDL
MODEL 2
REMARK VINA RESULT:      -7.7      1.612      1.882
REMARK  5 active torsions:
REMARK  status: ('A' for Active; 'I' for Inactive)
REMARK    1  A    between atoms: C_8  and  N_9 
REMARK       I    between atoms: N_9  and  C_10 
REMARK    2  A    between atoms: C_10  and  C_11 
REMARK    3  A    between atoms: C_11  and  N_12 
REMARK    4  A    between atoms: N_12  and  C_13 
REMARK    5  A    between atoms: C_13  and  C_14 
ROOT
HETATM    1  C   UNL     1      -3.318   2.304 -31.307  1.00  0.00     0.372 C 
ENDROOT
BRANCH   1   2
HETATM    2  C   UNL     1      -3.363   3.786 -31.726  1.00  0.00     0.250 C 
HETATM    3  N   UNL     1      -2.278   4.140 -32.506  1.00  0.00    -0.322 N 
HETATM    4  H   UNL     1      -1.633   3.408 -32.769  1.00  0.00     0.169 HD
HETATM    5  O   UNL     1      -4.318   4.500 -31.437  1.00  0.00    -0.271 OA
BRANCH   3   6
HETATM    6  C   UNL     1      -2.019   5.386 -33.057  1.00  0.00     0.085 A 
HETATM    7  C   UNL     1      -2.651   5.810 -34.212  1.00  0.00     0.052 A 
HETATM    8  C   UNL     1      -3.663   5.179 -35.092  1.00  0.00     0.072 C 
HETATM    9  N   UNL     1      -2.171   7.063 -34.463  1.00  0.00    -0.280 N 
HETATM   10  H   UNL     1      -2.413   7.689 -35.224  1.00  0.00     0.189 HD
HETATM   11  N   UNL     1      -1.270   7.485 -33.573  1.00  0.00    -0.177 NA
HETATM   12  C   UNL     1      -1.158   6.466 -32.704  1.00  0.00     0.079 A 
HETATM   13  C   UNL     1      -0.180   6.606 -31.595  1.00  0.00     0.075 C 
ENDBRANCH   3   6
ENDBRANCH   1   2
BRANCH   1  14
HETATM   14  N   UNL     1      -3.762   1.459 -32.419  1.00  0.00     0.101 N 
HETATM   15  H   UNL     1      -3.053   0.733 -32.577  1.00  0.00     0.317 HD
BRANCH  14  16
HETATM   16  C   UNL     1      -5.080   0.836 -32.229  1.00  0.00     0.254 C 
HETATM   17  C   UNL     1      -5.365   0.442 -30.773  1.00  0.00     0.048 C 
BRANCH  16  18
HETATM   18  C   UNL     1      -5.232  -0.400 -33.109  1.00  0.00     0.035 A 
HETATM   19  C   UNL     1      -4.332  -1.478 -33.071  1.00  0.00     0.045 A 
HETATM   20 CL   UNL     1      -2.963  -1.507 -32.013  1.00  0.00    -0.084 Cl
HETATM   21  C   UNL     1      -4.488  -2.580 -33.926  1.00  0.00     0.024 A 
HETATM   22  C   UNL     1      -5.539  -2.625 -34.839  1.00  0.00     0.005 A 
HETATM   23  C   UNL     1      -6.429  -1.561 -34.907  1.00  0.00     0.043 A 
HETATM   24  C   UNL     1      -6.266  -0.467 -34.059  1.00  0.00     0.126 A 
HETATM   25  F   UNL     1      -7.123   0.557 -34.193  1.00  0.00    -0.205 F 
ENDBRANCH  16  18
ENDBRANCH  14  16
ENDBRANCH   1  14
TORSDOF 5
ENDMDL
MODEL 3
REMARK VINA RESULT:      -7.7      0.882      1.990
REMARK  5 active torsions:
REMARK  status: ('A' for Active; 'I' for Inactive)
REMARK    1  A    between atoms: C_8  and  N_9 
REMARK       I    between atoms: N_9  and  C_10 
REMARK    2  A    between atoms: C_10  and  C_11 
REMARK    3  A    between atoms: C_11  and  N_12 
REMARK    4  A    between atoms: N_12  and  C_13 
REMARK    5  A    between atoms: C_13  and  C_14 
ROOT
HETATM    1  C   UNL     1      -3.481   1.987 -31.313  1.00  0.00     0.372 C 
ENDROOT
BRANCH   1   2
HETATM    2  C   UNL     1      -3.525   3.415 -31.889  1.00  0.00     0.250 C 
HETATM    3  N   UNL     1      -2.311   3.796 -32.430  1.00  0.00    -0.322 N 
HETATM    4  H   UNL     1      -1.573   3.106 -32.455  1.00  0.00     0.169 HD
HETATM    5  O   UNL     1      -4.567   4.061 -31.909  1.00  0.00    -0.271 OA
BRANCH   3   6
HETATM    6  C   UNL     1      -2.012   5.006 -33.038  1.00  0.00     0.085 A 
HETATM    7  C   UNL     1      -1.040   5.848 -32.529  1.00  0.00     0.052 A 
HETATM    8  C   UNL     1      -0.132   5.745 -31.362  1.00  0.00     0.072 C 
HETATM    9  N   UNL     1      -1.006   6.927 -33.364  1.00  0.00    -0.280 N 
HETATM   10  H   UNL     1      -0.408   7.746 -33.309  1.00  0.00     0.189 HD
HETATM   11  N   UNL     1      -1.883   6.863 -34.367  1.00  0.00    -0.177 NA
HETATM   12  C   UNL     1      -2.516   5.693 -34.182  1.00  0.00     0.079 A 
HETATM   13  C   UNL     1      -3.606   5.337 -35.126  1.00  0.00     0.075 C 
ENDBRANCH   3   6
ENDBRANCH   1   2
BRANCH   1  14
HETATM   14  N   UNL     1      -3.597   1.008 -32.398  1.00  0.00     0.101 N 
HETATM   15  H   UNL     1      -2.841   0.321 -32.296  1.00  0.00     0.317 HD
BRANCH  14  16
HETATM   16  C   UNL     1      -4.893   0.318 -32.466  1.00  0.00     0.254 C 
HETATM   17  C   UNL     1      -5.559   0.130 -31.096  1.00  0.00     0.048 C 
BRANCH  16  18
HETATM   18  C   UNL     1      -4.751  -1.046 -33.132  1.00  0.00     0.035 A 
HETATM   19  C   UNL     1      -5.543  -1.449 -34.221  1.00  0.00     0.045 A 
HETATM   20 CL   UNL     1      -6.756  -0.426 -34.913  1.00  0.00    -0.084 Cl
HETATM   21  C   UNL     1      -5.406  -2.728 -34.780  1.00  0.00     0.024 A 
HETATM   22  C   UNL     1      -4.482  -3.633 -34.262  1.00  0.00     0.005 A 
HETATM   23  C   UNL     1      -3.702  -3.263 -33.174  1.00  0.00     0.043 A 
HETATM   24  C   UNL     1      -3.847  -1.993 -32.618  1.00  0.00     0.126 A 
HETATM   25  F   UNL     1      -3.105  -1.697 -31.540  1.00  0.00    -0.205 F 
ENDBRANCH  16  18
ENDBRANCH  14  16
ENDBRANCH   1  14
TORSDOF 5
ENDMDL
MODEL 4
REMARK VINA RESULT:      -7.5      5.136      7.601
REMARK  5 active torsions:
REMARK  status: ('A' for Active; 'I' for Inactive)
REMARK    1  A    between atoms: C_8  and  N_9 
REMARK       I    between atoms: N_9  and  C_10 
REMARK    2  A    between atoms: C_10  and  C_11 
REMARK    3  A    between atoms: C_11  and  N_12 
REMARK    4  A    between atoms: N_12  and  C_13 
REMARK    5  A    between atoms: C_13  and  C_14 
ROOT
HETATM    1  C   UNL     1      -8.516   1.450 -32.194  1.00  0.00     0.372 C 
ENDROOT
BRANCH   1   2
HETATM    2  C   UNL     1      -9.557   1.481 -33.330  1.00  0.00     0.250 C 
HETATM    3  N   UNL     1     -10.838   1.697 -32.859  1.00  0.00    -0.322 N 
HETATM    4  H   UNL     1     -10.948   1.876 -31.870  1.00  0.00     0.169 HD
HETATM    5  O   UNL     1      -9.216   1.396 -34.506  1.00  0.00    -0.271 OA
BRANCH   3   6
HETATM    6  C   UNL     1     -11.998   1.792 -33.612  1.00  0.00     0.085 A 
HETATM    7  C   UNL     1     -12.377   2.982 -34.207  1.00  0.00     0.052 A 
HETATM    8  C   UNL     1     -11.759   4.328 -34.242  1.00  0.00     0.072 C 
HETATM    9  N   UNL     1     -13.545   2.717 -34.862  1.00  0.00    -0.280 N 
HETATM   10  H   UNL     1     -14.112   3.350 -35.418  1.00  0.00     0.189 HD
HETATM   11  N   UNL     1     -13.963   1.457 -34.734  1.00  0.00    -0.177 NA
HETATM   12  C   UNL     1     -13.030   0.873 -33.964  1.00  0.00     0.079 A 
HETATM   13  C   UNL     1     -13.230  -0.551 -33.592  1.00  0.00     0.075 C 
ENDBRANCH   3   6
ENDBRANCH   1   2
BRANCH   1  14
HETATM   14  N   UNL     1      -7.739   0.209 -32.264  1.00  0.00     0.101 N 
HETATM   15  H   UNL     1      -8.129  -0.375 -33.013  1.00  0.00     0.317 HD
BRANCH  14  16
HETATM   16  C   UNL     1      -6.298   0.400 -32.479  1.00  0.00     0.254 C 
HETATM   17  C   UNL     1      -5.966   1.599 -33.377  1.00  0.00     0.048 C 
BRANCH  16  18
HETATM   18  C   UNL     1      -5.666  -0.851 -33.080  1.00  0.00     0.035 A 
HETATM   19  C   UNL     1      -4.448  -1.384 -32.623  1.00  0.00     0.045 A 
HETATM   20 CL   UNL     1      -3.551  -0.669 -31.327  1.00  0.00    -0.084 Cl
HETATM   21  C   UNL     1      -3.882  -2.515 -33.230  1.00  0.00     0.024 A 
HETATM   22  C   UNL     1      -4.514  -3.133 -34.306  1.00  0.00     0.005 A 
HETATM   23  C   UNL     1      -5.709  -2.612 -34.786  1.00  0.00     0.043 A 
HETATM   24  C   UNL     1      -6.263  -1.484 -34.183  1.00  0.00     0.126 A 
HETATM   25  F   UNL     1      -7.394  -0.990 -34.710  1.00  0.00    -0.205 F 
ENDBRANCH  16  18
ENDBRANCH  14  16
ENDBRANCH   1  14
TORSDOF 5
ENDMDL
MODEL 5
REMARK VINA RESULT:      -7.4      2.012      2.535
REMARK  5 active torsions:
REMARK  status: ('A' for Active; 'I' for Inactive)
REMARK    1  A    between atoms: C_8  and  N_9 
REMARK       I    between atoms: N_9  and  C_10 
REMARK    2  A    between atoms: C_10  and  C_11 
REMARK    3  A    between atoms: C_11  and  N_12 
REMARK    4  A    between atoms: N_12  and  C_13 
REMARK    5  A    between atoms: C_13  and  C_14 
ROOT
HETATM    1  C   UNL     1      -4.904   3.073 -31.661  1.00  0.00     0.372 C 
ENDROOT
BRANCH   1   2
HETATM    2  C   UNL     1      -3.622   3.849 -32.018  1.00  0.00     0.250 C 
HETATM    3  N   UNL     1      -3.895   5.122 -32.484  1.00  0.00    -0.322 N 
HETATM    4  H   UNL     1      -4.859   5.425 -32.477  1.00  0.00     0.169 HD
HETATM    5  O   UNL     1      -2.511   3.369 -31.815  1.00  0.00    -0.271 OA
BRANCH   3   6
HETATM    6  C   UNL     1      -2.974   6.080 -32.879  1.00  0.00     0.085 A 
HETATM    7  C   UNL     1      -2.881   7.301 -32.234  1.00  0.00     0.052 A 
HETATM    8  C   UNL     1      -3.608   7.886 -31.083  1.00  0.00     0.072 C 
HETATM    9  N   UNL     1      -1.885   7.984 -32.869  1.00  0.00    -0.280 N 
HETATM   10  H   UNL     1      -1.531   8.913 -32.665  1.00  0.00     0.189 HD
HETATM   11  N   UNL     1      -1.330   7.315 -33.881  1.00  0.00    -0.177 NA
HETATM   12  C   UNL     1      -1.989   6.145 -33.908  1.00  0.00     0.079 A 
HETATM   13  C   UNL     1      -1.631   5.172 -34.971  1.00  0.00     0.075 C 
ENDBRANCH   3   6
ENDBRANCH   1   2
BRANCH   1  14
HETATM   14  N   UNL     1      -5.090   1.962 -32.598  1.00  0.00     0.101 N 
HETATM   15  H   UNL     1      -4.165   1.596 -32.854  1.00  0.00     0.317 HD
BRANCH  14  16
HETATM   16  C   UNL     1      -5.936   0.871 -32.095  1.00  0.00     0.254 C 
HETATM   17  C   UNL     1      -5.644   0.492 -30.637  1.00  0.00     0.048 C 
BRANCH  16  18
HETATM   18  C   UNL     1      -5.794  -0.375 -32.962  1.00  0.00     0.035 A 
HETATM   19  C   UNL     1      -4.548  -0.943 -33.282  1.00  0.00     0.045 A 
HETATM   20 CL   UNL     1      -3.054  -0.279 -32.715  1.00  0.00    -0.084 Cl
HETATM   21  C   UNL     1      -4.459  -2.068 -34.115  1.00  0.00     0.024 A 
HETATM   22  C   UNL     1      -5.608  -2.646 -34.651  1.00  0.00     0.005 A 
HETATM   23  C   UNL     1      -6.848  -2.090 -34.363  1.00  0.00     0.043 A 
HETATM   24  C   UNL     1      -6.930  -0.968 -33.540  1.00  0.00     0.126 A 
HETATM   25  F   UNL     1      -8.145  -0.440 -33.328  1.00  0.00    -0.205 F 
ENDBRANCH  16  18
ENDBRANCH  14  16
ENDBRANCH   1  14
TORSDOF 5
ENDMDL
MODEL 6
REMARK VINA RESULT:      -7.2      3.761      6.920
REMARK  5 active torsions:
REMARK  status: ('A' for Active; 'I' for Inactive)
REMARK    1  A    between atoms: C_8  and  N_9 
REMARK       I    between atoms: N_9  and  C_10 
REMARK    2  A    between atoms: C_10  and  C_11 
REMARK    3  A    between atoms: C_11  and  N_12 
REMARK    4  A    between atoms: N_12  and  C_13 
REMARK    5  A    between atoms: C_13  and  C_14 
ROOT
HETATM    1  C   UNL     1      -3.076  -0.130 -32.474  1.00  0.00     0.372 C 
ENDROOT
BRANCH   1   2
HETATM    2  C   UNL     1      -3.678  -1.545 -32.580  1.00  0.00     0.250 C 
HETATM    3  N   UNL     1      -4.337  -1.743 -33.779  1.00  0.00    -0.322 N 
HETATM    4  H   UNL     1      -4.299  -0.999 -34.462  1.00  0.00     0.169 HD
HETATM    5  O   UNL     1      -3.492  -2.382 -31.703  1.00  0.00    -0.271 OA
BRANCH   3   6
HETATM    6  C   UNL     1      -4.976  -2.900 -34.198  1.00  0.00     0.085 A 
HETATM    7  C   UNL     1      -6.293  -2.884 -34.622  1.00  0.00     0.052 A 
HETATM    8  C   UNL     1      -7.290  -1.795 -34.760  1.00  0.00     0.072 C 
HETATM    9  N   UNL     1      -6.593  -4.171 -34.960  1.00  0.00    -0.280 N 
HETATM   10  H   UNL     1      -7.467  -4.539 -35.321  1.00  0.00     0.189 HD
HETATM   11  N   UNL     1      -5.585  -5.027 -34.781  1.00  0.00    -0.177 NA
HETATM   12  C   UNL     1      -4.584  -4.267 -34.307  1.00  0.00     0.079 A 
HETATM   13  C   UNL     1      -3.308  -4.940 -33.956  1.00  0.00     0.075 C 
ENDBRANCH   3   6
ENDBRANCH   1   2
BRANCH   1  14
HETATM   14  N   UNL     1      -3.879   0.684 -31.557  1.00  0.00     0.101 N 
HETATM   15  H   UNL     1      -3.265   1.028 -30.808  1.00  0.00     0.317 HD
BRANCH  14  16
HETATM   16  C   UNL     1      -4.577   1.812 -32.189  1.00  0.00     0.254 C 
HETATM   17  C   UNL     1      -4.412   3.136 -31.430  1.00  0.00     0.048 C 
BRANCH  16  18
HETATM   18  C   UNL     1      -6.065   1.518 -32.341  1.00  0.00     0.035 A 
HETATM   19  C   UNL     1      -6.819   0.870 -31.348  1.00  0.00     0.045 A 
HETATM   20 CL   UNL     1      -6.127   0.347 -29.851  1.00  0.00    -0.084 Cl
HETATM   21  C   UNL     1      -8.178   0.584 -31.545  1.00  0.00     0.024 A 
HETATM   22  C   UNL     1      -8.811   0.932 -32.736  1.00  0.00     0.005 A 
HETATM   23  C   UNL     1      -8.080   1.556 -33.739  1.00  0.00     0.043 A 
HETATM   24  C   UNL     1      -6.728   1.832 -33.540  1.00  0.00     0.126 A 
HETATM   25  F   UNL     1      -6.053   2.394 -34.554  1.00  0.00    -0.205 F 
ENDBRANCH  16  18
ENDBRANCH  14  16
ENDBRANCH   1  14
TORSDOF 5
ENDMDL
MODEL 7
REMARK VINA RESULT:      -7.2      4.258      5.167
REMARK  5 active torsions:
REMARK  status: ('A' for Active; 'I' for Inactive)
REMARK    1  A    between atoms: C_8  and  N_9 
REMARK       I    between atoms: N_9  and  C_10 
REMARK    2  A    between atoms: C_10  and  C_11 
REMARK    3  A    between atoms: C_11  and  N_12 
REMARK    4  A    between atoms: N_12  and  C_13 
REMARK    5  A    between atoms: C_13  and  C_14 
ROOT
HETATM    1  C   UNL     1      -4.472   0.413 -31.074  1.00  0.00     0.372 C 
ENDROOT
BRANCH   1   2
HETATM    2  C   UNL     1      -5.545   1.467 -31.408  1.00  0.00     0.250 C 
HETATM    3  N   UNL     1      -6.760   1.180 -30.815  1.00  0.00    -0.322 N 
HETATM    4  H   UNL     1      -6.801   0.383 -30.194  1.00  0.00     0.169 HD
HETATM    5  O   UNL     1      -5.272   2.467 -32.065  1.00  0.00    -0.271 OA
BRANCH   3   6
HETATM    6  C   UNL     1      -7.927   1.925 -30.901  1.00  0.00     0.085 A 
HETATM    7  C   UNL     1      -9.019   1.475 -31.622  1.00  0.00     0.052 A 
HETATM    8  C   UNL     1      -9.266   0.240 -32.403  1.00  0.00     0.072 C 
HETATM    9  N   UNL     1      -9.976   2.438 -31.490  1.00  0.00    -0.280 N 
HETATM   10  H   UNL     1     -10.915   2.450 -31.877  1.00  0.00     0.189 HD
HETATM   11  N   UNL     1      -9.595   3.483 -30.752  1.00  0.00    -0.177 NA
HETATM   12  C   UNL     1      -8.336   3.190 -30.386  1.00  0.00     0.079 A 
HETATM   13  C   UNL     1      -7.599   4.193 -29.576  1.00  0.00     0.075 C 
ENDBRANCH   3   6
ENDBRANCH   1   2
BRANCH   1  14
HETATM   14  N   UNL     1      -4.847  -0.880 -31.654  1.00  0.00     0.101 N 
HETATM   15  H   UNL     1      -5.737  -0.764 -32.154  1.00  0.00     0.317 HD
BRANCH  14  16
HETATM   16  C   UNL     1      -3.841  -1.462 -32.554  1.00  0.00     0.254 C 
HETATM   17  C   UNL     1      -3.140  -0.425 -33.442  1.00  0.00     0.048 C 
BRANCH  16  18
HETATM   18  C   UNL     1      -4.462  -2.531 -33.447  1.00  0.00     0.035 A 
HETATM   19  C   UNL     1      -5.573  -2.285 -34.271  1.00  0.00     0.045 A 
HETATM   20 CL   UNL     1      -6.342  -0.737 -34.353  1.00  0.00    -0.084 Cl
HETATM   21  C   UNL     1      -6.137  -3.308 -35.048  1.00  0.00     0.024 A 
HETATM   22  C   UNL     1      -5.608  -4.597 -35.016  1.00  0.00     0.005 A 
HETATM   23  C   UNL     1      -4.522  -4.867 -34.194  1.00  0.00     0.043 A 
HETATM   24  C   UNL     1      -3.970  -3.848 -33.419  1.00  0.00     0.126 A 
HETATM   25  F   UNL     1      -2.951  -4.167 -32.606  1.00  0.00    -0.205 F 
ENDBRANCH  16  18
ENDBRANCH  14  16
ENDBRANCH   1  14
TORSDOF 5
ENDMDL
MODEL 8
REMARK VINA RESULT:      -6.8      4.950      7.077
REMARK  5 active torsions:
REMARK  status: ('A' for Active; 'I' for Inactive)
REMARK    1  A    between atoms: C_8  and  N_9 
REMARK       I    between atoms: N_9  and  C_10 
REMARK    2  A    between atoms: C_10  and  C_11 
REMARK    3  A    between atoms: C_11  and  N_12 
REMARK    4  A    between atoms: N_12  and  C_13 
REMARK    5  A    between atoms: C_13  and  C_14 
ROOT
HETATM    1  C   UNL     1      -8.460   1.900 -31.643  1.00  0.00     0.372 C 
ENDROOT
BRANCH   1   2
HETATM    2  C   UNL     1      -9.700   2.609 -32.220  1.00  0.00     0.250 C 
HETATM    3  N   UNL     1     -10.143   2.016 -33.388  1.00  0.00    -0.322 N 
HETATM    4  H   UNL     1      -9.673   1.175 -33.692  1.00  0.00     0.169 HD
HETATM    5  O   UNL     1     -10.236   3.538 -31.625  1.00  0.00    -0.271 OA
BRANCH   3   6
HETATM    6  C   UNL     1     -11.236   2.396 -34.153  1.00  0.00     0.085 A 
HETATM    7  C   UNL     1     -12.372   1.610 -34.227  1.00  0.00     0.052 A 
HETATM    8  C   UNL     1     -12.743   0.319 -33.602  1.00  0.00     0.072 C 
HETATM    9  N   UNL     1     -13.234   2.277 -35.049  1.00  0.00    -0.280 N 
HETATM   10  H   UNL     1     -14.171   2.007 -35.330  1.00  0.00     0.189 HD
HETATM   11  N   UNL     1     -12.749   3.425 -35.525  1.00  0.00    -0.177 NA
HETATM   12  C   UNL     1     -11.519   3.514 -34.991  1.00  0.00     0.079 A 
HETATM   13  C   UNL     1     -10.683   4.682 -35.367  1.00  0.00     0.075 C 
ENDBRANCH   3   6
ENDBRANCH   1   2
BRANCH   1  14
HETATM   14  N   UNL     1      -7.966   0.905 -32.599  1.00  0.00     0.101 N 
HETATM   15  H   UNL     1      -8.624   0.857 -33.386  1.00  0.00     0.317 HD
BRANCH  14  16
HETATM   16  C   UNL     1      -6.607   1.157 -33.100  1.00  0.00     0.254 C 
HETATM   17  C   UNL     1      -6.565   2.116 -34.298  1.00  0.00     0.048 C 
BRANCH  16  18
HETATM   18  C   UNL     1      -5.918  -0.145 -33.491  1.00  0.00     0.035 A 
HETATM   19  C   UNL     1      -4.652  -0.514 -33.004  1.00  0.00     0.045 A 
HETATM   20 CL   UNL     1      -3.756   0.479 -31.907  1.00  0.00    -0.084 Cl
HETATM   21  C   UNL     1      -4.037  -1.704 -33.420  1.00  0.00     0.024 A 
HETATM   22  C   UNL     1      -4.668  -2.547 -34.333  1.00  0.00     0.005 A 
HETATM   23  C   UNL     1      -5.911  -2.193 -34.841  1.00  0.00     0.043 A 
HETATM   24  C   UNL     1      -6.514  -1.006 -34.430  1.00  0.00     0.126 A 
HETATM   25  F   UNL     1      -7.693  -0.683 -34.983  1.00  0.00    -0.205 F 
ENDBRANCH  16  18
ENDBRANCH  14  16
ENDBRANCH   1  14
TORSDOF 5
ENDMDL
MODEL 9
REMARK VINA RESULT:      -6.7     16.113     17.289
REMARK  5 active torsions:
REMARK  status: ('A' for Active; 'I' for Inactive)
REMARK    1  A    between atoms: C_8  and  N_9 
REMARK       I    between atoms: N_9  and  C_10 
REMARK    2  A    between atoms: C_10  and  C_11 
REMARK    3  A    between atoms: C_11  and  N_12 
REMARK    4  A    between atoms: N_12  and  C_13 
REMARK    5  A    between atoms: C_13  and  C_14 
ROOT
HETATM    1  C   UNL     1      -6.384 -13.150 -41.239  1.00  0.00     0.372 C 
ENDROOT
BRANCH   1   2
HETATM    2  C   UNL     1      -5.224 -12.646 -40.360  1.00  0.00     0.250 C 
HETATM    3  N   UNL     1      -4.387 -13.671 -39.962  1.00  0.00    -0.322 N 
HETATM    4  H   UNL     1      -4.572 -14.594 -40.330  1.00  0.00     0.169 HD
HETATM    5  O   UNL     1      -5.068 -11.449 -40.138  1.00  0.00    -0.271 OA
BRANCH   3   6
HETATM    6  C   UNL     1      -3.248 -13.562 -39.179  1.00  0.00     0.085 A 
HETATM    7  C   UNL     1      -1.992 -13.841 -39.688  1.00  0.00     0.052 A 
HETATM    8  C   UNL     1      -1.524 -14.267 -41.028  1.00  0.00     0.072 C 
HETATM    9  N   UNL     1      -1.117 -13.628 -38.662  1.00  0.00    -0.280 N 
HETATM   10  H   UNL     1      -0.107 -13.725 -38.667  1.00  0.00     0.189 HD
HETATM   11  N   UNL     1      -1.700 -13.245 -37.525  1.00  0.00    -0.177 NA
HETATM   12  C   UNL     1      -3.010 -13.204 -37.819  1.00  0.00     0.079 A 
HETATM   13  C   UNL     1      -3.954 -12.847 -36.730  1.00  0.00     0.075 C 
ENDBRANCH   3   6
ENDBRANCH   1   2
BRANCH   1  14
HETATM   14  N   UNL     1      -7.594 -12.371 -40.961  1.00  0.00     0.101 N 
HETATM   15  H   UNL     1      -7.883 -11.902 -41.828  1.00  0.00     0.317 HD
BRANCH  14  16
HETATM   16  C   UNL     1      -8.715 -13.152 -40.420  1.00  0.00     0.254 C 
HETATM   17  C   UNL     1      -9.969 -12.312 -40.140  1.00  0.00     0.048 C 
BRANCH  16  18
HETATM   18  C   UNL     1      -8.311 -13.869 -39.136  1.00  0.00     0.035 A 
HETATM   19  C   UNL     1      -8.453 -15.256 -38.961  1.00  0.00     0.045 A 
HETATM   20 CL   UNL     1      -9.097 -16.286 -40.194  1.00  0.00    -0.084 Cl
HETATM   21  C   UNL     1      -8.104 -15.871 -37.749  1.00  0.00     0.024 A 
HETATM   22  C   UNL     1      -7.614 -15.116 -36.687  1.00  0.00     0.005 A 
HETATM   23  C   UNL     1      -7.483 -13.740 -36.831  1.00  0.00     0.043 A 
HETATM   24  C   UNL     1      -7.838 -13.134 -38.035  1.00  0.00     0.126 A 
HETATM   25  F   UNL     1      -7.738 -11.798 -38.112  1.00  0.00    -0.205 F 
ENDBRANCH  16  18
ENDBRANCH  14  16
ENDBRANCH   1  14
TORSDOF 5
ENDMDL
MODEL 10
REMARK VINA RESULT:      -6.7      4.073      6.096
REMARK  5 active torsions:
REMARK  status: ('A' for Active; 'I' for Inactive)
REMARK    1  A    between atoms: C_8  and  N_9 
REMARK       I    between atoms: N_9  and  C_10 
REMARK    2  A    between atoms: C_10  and  C_11 
REMARK    3  A    between atoms: C_11  and  N_12 
REMARK    4  A    between atoms: N_12  and  C_13 
REMARK    5  A    between atoms: C_13  and  C_14 
ROOT
HETATM    1  C   UNL     1      -5.423   2.661 -31.523  1.00  0.00     0.372 C 
ENDROOT
BRANCH   1   2
HETATM    2  C   UNL     1      -4.720   1.498 -32.251  1.00  0.00     0.250 C 
HETATM    3  N   UNL     1      -5.597   0.480 -32.573  1.00  0.00    -0.322 N 
HETATM    4  H   UNL     1      -6.576   0.625 -32.372  1.00  0.00     0.169 HD
HETATM    5  O   UNL     1      -3.533   1.562 -32.553  1.00  0.00    -0.271 OA
BRANCH   3   6
HETATM    6  C   UNL     1      -5.296  -0.700 -33.238  1.00  0.00     0.085 A 
HETATM    7  C   UNL     1      -6.016  -1.107 -34.347  1.00  0.00     0.052 A 
HETATM    8  C   UNL     1      -7.155  -0.506 -35.081  1.00  0.00     0.072 C 
HETATM    9  N   UNL     1      -5.457  -2.287 -34.743  1.00  0.00    -0.280 N 
HETATM   10  H   UNL     1      -5.718  -2.875 -35.528  1.00  0.00     0.189 HD
HETATM   11  N   UNL     1      -4.439  -2.687 -33.978  1.00  0.00    -0.177 NA
HETATM   12  C   UNL     1      -4.329  -1.729 -33.043  1.00  0.00     0.079 A 
HETATM   13  C   UNL     1      -3.295  -1.903 -31.991  1.00  0.00     0.075 C 
ENDBRANCH   3   6
ENDBRANCH   1   2
BRANCH   1  14
HETATM   14  N   UNL     1      -6.719   2.213 -31.006  1.00  0.00     0.101 N 
HETATM   15  H   UNL     1      -6.644   2.113 -29.987  1.00  0.00     0.317 HD
BRANCH  14  16
HETATM   16  C   UNL     1      -7.849   3.092 -31.339  1.00  0.00     0.254 C 
HETATM   17  C   UNL     1      -8.703   3.478 -30.124  1.00  0.00     0.048 C 
BRANCH  16  18
HETATM   18  C   UNL     1      -8.751   2.449 -32.387  1.00  0.00     0.035 A 
HETATM   19  C   UNL     1      -9.184   3.127 -33.540  1.00  0.00     0.045 A 
HETATM   20 CL   UNL     1      -8.727   4.762 -33.880  1.00  0.00    -0.084 Cl
HETATM   21  C   UNL     1     -10.044   2.511 -34.460  1.00  0.00     0.024 A 
HETATM   22  C   UNL     1     -10.496   1.210 -34.247  1.00  0.00     0.005 A 
HETATM   23  C   UNL     1     -10.096   0.528 -33.106  1.00  0.00     0.043 A 
HETATM   24  C   UNL     1      -9.245   1.148 -32.192  1.00  0.00     0.126 A 
HETATM   25  F   UNL     1      -8.923   0.467 -31.081  1.00  0.00    -0.205 F 
ENDBRANCH  16  18
ENDBRANCH  14  16
ENDBRANCH   1  14
TORSDOF 5
ENDMDL
