MODEL 1
REMARK VINA RESULT:      -9.7      0.000      0.000
REMARK  6 active torsions:
REMARK  status: ('A' for Active; 'I' for Inactive)
REMARK    1  A    between atoms: C_2  and  O_3 
REMARK    2  A    between atoms: C_2  and  C_4 
REMARK    3  A    between atoms: C_6  and  N_7 
REMARK       I    between atoms: N_7  and  C_8 
REMARK    4  A    between atoms: C_8  and  C_9 
REMARK    5  A    between atoms: C_12  and  C_13 
REMARK    6  A    between atoms: C_18  and  C_19 
ROOT
HETATM    1  C   UNL     1      -5.457   1.442 -31.906  1.00  0.00     0.096 A 
HETATM    2  C   UNL     1      -6.171   0.880 -32.948  1.00  0.00     0.138 A 
HETATM    3  N   UNL     1      -7.367   0.455 -32.427  1.00  0.00    -0.240 N 
HETATM    4  C   UNL     1      -8.359  -0.303 -33.173  1.00  0.00     0.221 C 
HETATM    5  C   UNL     1      -8.091  -0.208 -34.691  1.00  0.00     0.068 C 
HETATM    6  C   UNL     1      -6.595  -0.344 -35.013  1.00  0.00     0.143 C 
HETATM    7  N   UNL     1      -5.880   0.691 -34.260  1.00  0.00    -0.363 N 
HETATM    8  N   UNL     1      -7.456   0.633 -31.099  1.00  0.00    -0.181 NA
HETATM    9  C   UNL     1      -6.315   1.257 -30.793  1.00  0.00     0.160 A 
HETATM   10  H   UNL     1      -4.908   0.835 -34.552  1.00  0.00     0.162 HD
ENDROOT
BRANCH   1  11
HETATM   11  C   UNL     1      -4.115   2.009 -32.001  1.00  0.00     0.261 C 
HETATM   12  N   UNL     1      -4.071   3.275 -32.562  1.00  0.00    -0.323 N 
HETATM   13  H   UNL     1      -4.938   3.654 -32.911  1.00  0.00     0.169 HD
HETATM   14  O   UNL     1      -3.142   1.378 -31.597  1.00  0.00    -0.267 OA
BRANCH  12  15
HETATM   15  C   UNL     1      -2.942   4.104 -32.737  1.00  0.00     0.035 A 
HETATM   16  C   UNL     1      -1.989   4.355 -31.746  1.00  0.00     0.039 A 
HETATM   17  C   UNL     1      -0.893   5.205 -31.988  1.00  0.00    -0.028 A 
HETATM   18  C   UNL     1      -0.761   5.796 -33.251  1.00  0.00     0.010 A 
HETATM   19  C   UNL     1      -1.705   5.554 -34.245  1.00  0.00     0.003 A 
HETATM   20  C   UNL     1      -2.789   4.712 -33.989  1.00  0.00     0.029 A 
BRANCH  17  21
HETATM   21  C   UNL     1       0.135   5.428 -30.900  1.00  0.00     0.147 C 
HETATM   22  C   UNL     1       0.014   6.821 -30.295  1.00  0.00     0.044 C 
BRANCH  21  23
HETATM   23  O   UNL     1      -0.027   4.455 -29.870  1.00  0.00    -0.391 OA
HETATM   24  H   UNL     1       0.853   4.301 -29.487  1.00  0.00     0.210 HD
ENDBRANCH  21  23
ENDBRANCH  17  21
ENDBRANCH  12  15
ENDBRANCH   1  11
BRANCH   4  25
HETATM   25  C   UNL     1      -9.764   0.171 -32.878  1.00  0.00     0.409 C 
HETATM   26  F   UNL     1      -9.791   1.176 -31.973  1.00  0.00    -0.169 F 
HETATM   27  F   UNL     1     -10.331   0.662 -34.014  1.00  0.00    -0.169 F 
HETATM   28  F   UNL     1     -10.586  -0.807 -32.445  1.00  0.00    -0.169 F 
ENDBRANCH   4  25
BRANCH   6  29
HETATM   29  C   UNL     1      -6.098  -1.742 -34.793  1.00  0.00     0.075 A 
HETATM   30  O   UNL     1      -4.808  -1.872 -34.365  1.00  0.00    -0.325 OA
HETATM   31  C   UNL     1      -4.564  -3.201 -34.230  1.00  0.00     0.142 A 
HETATM   32  C   UNL     1      -5.679  -3.932 -34.564  1.00  0.00     0.027 A 
HETATM   33  C   UNL     1      -6.672  -2.991 -34.926  1.00  0.00     0.037 A 
ENDBRANCH   6  29
TORSDOF 6
ENDMDL
MODEL 2
REMARK VINA RESULT:      -9.2      4.929      7.820
REMARK  6 active torsions:
REMARK  status: ('A' for Active; 'I' for Inactive)
REMARK    1  A    between atoms: C_2  and  O_3 
REMARK    2  A    between atoms: C_2  and  C_4 
REMARK    3  A    between atoms: C_6  and  N_7 
REMARK       I    between atoms: N_7  and  C_8 
REMARK    4  A    between atoms: C_8  and  C_9 
REMARK    5  A    between atoms: C_12  and  C_13 
REMARK    6  A    between atoms: C_18  and  C_19 
ROOT
HETATM    1  C   UNL     1      -9.204   2.431 -33.244  1.00  0.00     0.096 A 
HETATM    2  C   UNL     1     -10.237   2.651 -34.135  1.00  0.00     0.138 A 
HETATM    3  N   UNL     1     -10.605   3.966 -34.002  1.00  0.00    -0.240 N 
HETATM    4  C   UNL     1     -11.742   4.568 -34.678  1.00  0.00     0.221 C 
HETATM    5  C   UNL     1     -12.213   3.679 -35.850  1.00  0.00     0.068 C 
HETATM    6  C   UNL     1     -12.227   2.192 -35.465  1.00  0.00     0.143 C 
HETATM    7  N   UNL     1     -10.880   1.836 -35.009  1.00  0.00    -0.363 N 
HETATM    8  N   UNL     1      -9.932   4.605 -33.030  1.00  0.00    -0.181 NA
HETATM    9  C   UNL     1      -9.067   3.684 -32.596  1.00  0.00     0.160 A 
HETATM   10  H   UNL     1     -10.712   0.829 -34.925  1.00  0.00     0.162 HD
ENDROOT
BRANCH   1  11
HETATM   11  C   UNL     1      -8.516   1.160 -33.032  1.00  0.00     0.261 C 
HETATM   12  N   UNL     1      -7.513   0.898 -33.951  1.00  0.00    -0.323 N 
HETATM   13  H   UNL     1      -7.397   1.556 -34.707  1.00  0.00     0.169 HD
HETATM   14  O   UNL     1      -8.834   0.427 -32.100  1.00  0.00    -0.267 OA
BRANCH  12  15
HETATM   15  C   UNL     1      -6.637  -0.209 -33.982  1.00  0.00     0.035 A 
HETATM   16  C   UNL     1      -6.994  -1.482 -34.437  1.00  0.00     0.039 A 
HETATM   17  C   UNL     1      -6.071  -2.544 -34.428  1.00  0.00    -0.028 A 
HETATM   18  C   UNL     1      -4.772  -2.307 -33.961  1.00  0.00     0.010 A 
HETATM   19  C   UNL     1      -4.406  -1.044 -33.504  1.00  0.00     0.003 A 
HETATM   20  C   UNL     1      -5.333  -0.001 -33.516  1.00  0.00     0.029 A 
BRANCH  17  21
HETATM   21  C   UNL     1      -6.484  -3.900 -34.958  1.00  0.00     0.147 C 
HETATM   22  C   UNL     1      -5.346  -4.909 -34.857  1.00  0.00     0.044 C 
BRANCH  21  23
HETATM   23  O   UNL     1      -7.607  -4.387 -34.225  1.00  0.00    -0.391 OA
HETATM   24  H   UNL     1      -7.544  -4.012 -33.331  1.00  0.00     0.210 HD
ENDBRANCH  21  23
ENDBRANCH  17  21
ENDBRANCH  12  15
ENDBRANCH   1  11
BRANCH   4  25
HETATM   25  C   UNL     1     -11.418   5.952 -35.193  1.00  0.00     0.409 C 
HETATM   26  F   UNL     1     -10.223   6.003 -35.825  1.00  0.00    -0.169 F 
HETATM   27  F   UNL     1     -12.353   6.332 -36.108  1.00  0.00    -0.169 F 
HETATM   28  F   UNL     1     -11.428   6.902 -34.236  1.00  0.00    -0.169 F 
ENDBRANCH   4  25
BRANCH   6  29
HETATM   29  C   UNL     1     -13.328   1.874 -34.495  1.00  0.00     0.075 A 
HETATM   30  O   UNL     1     -14.361   1.118 -34.972  1.00  0.00    -0.325 OA
HETATM   31  C   UNL     1     -15.236   0.948 -33.948  1.00  0.00     0.142 A 
HETATM   32  C   UNL     1     -14.781   1.581 -32.815  1.00  0.00     0.027 A 
HETATM   33  C   UNL     1     -13.547   2.178 -33.167  1.00  0.00     0.037 A 
ENDBRANCH   6  29
TORSDOF 6
ENDMDL
MODEL 3
REMARK VINA RESULT:      -9.1      4.433      7.040
REMARK  6 active torsions:
REMARK  status: ('A' for Active; 'I' for Inactive)
REMARK    1  A    between atoms: C_2  and  O_3 
REMARK    2  A    between atoms: C_2  and  C_4 
REMARK    3  A    between atoms: C_6  and  N_7 
REMARK       I    between atoms: N_7  and  C_8 
REMARK    4  A    between atoms: C_8  and  C_9 
REMARK    5  A    between atoms: C_12  and  C_13 
REMARK    6  A    between atoms: C_18  and  C_19 
ROOT
HETATM    1  C   UNL     1      -9.194   2.491 -33.213  1.00  0.00     0.096 A 
HETATM    2  C   UNL     1     -10.227   2.703 -34.107  1.00  0.00     0.138 A 
HETATM    3  N   UNL     1     -10.609   4.013 -33.972  1.00  0.00    -0.240 N 
HETATM    4  C   UNL     1     -11.751   4.604 -34.651  1.00  0.00     0.221 C 
HETATM    5  C   UNL     1     -12.209   3.714 -35.825  1.00  0.00     0.068 C 
HETATM    6  C   UNL     1     -12.208   2.226 -35.444  1.00  0.00     0.143 C 
HETATM    7  N   UNL     1     -10.859   1.883 -34.986  1.00  0.00    -0.363 N 
HETATM    8  N   UNL     1      -9.947   4.657 -32.996  1.00  0.00    -0.181 NA
HETATM    9  C   UNL     1      -9.073   3.744 -32.562  1.00  0.00     0.160 A 
HETATM   10  H   UNL     1     -10.679   0.877 -34.903  1.00  0.00     0.162 HD
ENDROOT
BRANCH   1  11
HETATM   11  C   UNL     1      -8.493   1.228 -33.003  1.00  0.00     0.261 C 
HETATM   12  N   UNL     1      -7.364   1.067 -33.789  1.00  0.00    -0.323 N 
HETATM   13  H   UNL     1      -7.170   1.786 -34.469  1.00  0.00     0.169 HD
HETATM   14  O   UNL     1      -8.908   0.414 -32.182  1.00  0.00    -0.267 OA
BRANCH  12  15
HETATM   15  C   UNL     1      -6.450  -0.009 -33.779  1.00  0.00     0.035 A 
HETATM   16  C   UNL     1      -5.269  -0.032 -33.031  1.00  0.00     0.039 A 
HETATM   17  C   UNL     1      -4.397  -1.135 -33.080  1.00  0.00    -0.028 A 
HETATM   18  C   UNL     1      -4.733  -2.227 -33.889  1.00  0.00     0.010 A 
HETATM   19  C   UNL     1      -5.905  -2.216 -34.639  1.00  0.00     0.003 A 
HETATM   20  C   UNL     1      -6.759  -1.113 -34.583  1.00  0.00     0.029 A 
BRANCH  17  21
HETATM   21  C   UNL     1      -3.143  -1.136 -32.232  1.00  0.00     0.147 C 
HETATM   22  C   UNL     1      -3.192  -0.051 -31.163  1.00  0.00     0.044 C 
BRANCH  21  23
HETATM   23  O   UNL     1      -2.983  -2.406 -31.601  1.00  0.00    -0.391 OA
HETATM   24  H   UNL     1      -3.399  -3.064 -32.184  1.00  0.00     0.210 HD
ENDBRANCH  21  23
ENDBRANCH  17  21
ENDBRANCH  12  15
ENDBRANCH   1  11
BRANCH   4  25
HETATM   25  C   UNL     1     -11.440   5.993 -35.161  1.00  0.00     0.409 C 
HETATM   26  F   UNL     1     -10.238   6.061 -35.777  1.00  0.00    -0.169 F 
HETATM   27  F   UNL     1     -12.368   6.360 -36.087  1.00  0.00    -0.169 F 
HETATM   28  F   UNL     1     -11.477   6.943 -34.203  1.00  0.00    -0.169 F 
ENDBRANCH   4  25
BRANCH   6  29
HETATM   29  C   UNL     1     -13.308   1.893 -34.480  1.00  0.00     0.075 A 
HETATM   30  O   UNL     1     -14.336   1.135 -34.964  1.00  0.00    -0.325 OA
HETATM   31  C   UNL     1     -15.211   0.951 -33.942  1.00  0.00     0.142 A 
HETATM   32  C   UNL     1     -14.762   1.578 -32.804  1.00  0.00     0.027 A 
HETATM   33  C   UNL     1     -13.531   2.184 -33.149  1.00  0.00     0.037 A 
ENDBRANCH   6  29
TORSDOF 6
ENDMDL
MODEL 4
REMARK VINA RESULT:      -8.9      4.316      6.673
REMARK  6 active torsions:
REMARK  status: ('A' for Active; 'I' for Inactive)
REMARK    1  A    between atoms: C_2  and  O_3 
REMARK    2  A    between atoms: C_2  and  C_4 
REMARK    3  A    between atoms: C_6  and  N_7 
REMARK       I    between atoms: N_7  and  C_8 
REMARK    4  A    between atoms: C_8  and  C_9 
REMARK    5  A    between atoms: C_12  and  C_13 
REMARK    6  A    between atoms: C_18  and  C_19 
ROOT
HETATM    1  C   UNL     1      -8.855   3.075 -33.023  1.00  0.00     0.096 A 
HETATM    2  C   UNL     1     -10.027   3.245 -33.735  1.00  0.00     0.138 A 
HETATM    3  N   UNL     1     -10.844   4.042 -32.974  1.00  0.00    -0.240 N 
HETATM    4  C   UNL     1     -12.221   4.360 -33.315  1.00  0.00     0.221 C 
HETATM    5  C   UNL     1     -12.504   4.043 -34.799  1.00  0.00     0.068 C 
HETATM    6  C   UNL     1     -11.880   2.705 -35.224  1.00  0.00     0.143 C 
HETATM    7  N   UNL     1     -10.444   2.771 -34.937  1.00  0.00    -0.363 N 
HETATM    8  N   UNL     1     -10.317   4.346 -31.777  1.00  0.00    -0.181 NA
HETATM    9  C   UNL     1      -9.104   3.786 -31.822  1.00  0.00     0.160 A 
HETATM   10  H   UNL     1      -9.889   2.024 -35.366  1.00  0.00     0.162 HD
ENDROOT
BRANCH   1  11
HETATM   11  C   UNL     1      -7.706   2.280 -33.447  1.00  0.00     0.261 C 
HETATM   12  N   UNL     1      -7.670   1.003 -32.911  1.00  0.00    -0.323 N 
HETATM   13  H   UNL     1      -8.382   0.767 -32.237  1.00  0.00     0.169 HD
HETATM   14  O   UNL     1      -6.876   2.748 -34.221  1.00  0.00    -0.267 OA
BRANCH  12  15
HETATM   15  C   UNL     1      -6.729  -0.016 -33.169  1.00  0.00     0.035 A 
HETATM   16  C   UNL     1      -5.454  -0.074 -32.597  1.00  0.00     0.039 A 
HETATM   17  C   UNL     1      -4.561  -1.116 -32.910  1.00  0.00    -0.028 A 
HETATM   18  C   UNL     1      -4.971  -2.111 -33.806  1.00  0.00     0.010 A 
HETATM   19  C   UNL     1      -6.236  -2.063 -34.383  1.00  0.00     0.003 A 
HETATM   20  C   UNL     1      -7.110  -1.022 -34.065  1.00  0.00     0.029 A 
BRANCH  17  21
HETATM   21  C   UNL     1      -3.202  -1.162 -32.246  1.00  0.00     0.147 C 
HETATM   22  C   UNL     1      -3.045  -0.045 -31.221  1.00  0.00     0.044 C 
BRANCH  21  23
HETATM   23  O   UNL     1      -3.019  -2.420 -31.599  1.00  0.00    -0.391 OA
HETATM   24  H   UNL     1      -3.199  -3.107 -32.262  1.00  0.00     0.210 HD
ENDBRANCH  21  23
ENDBRANCH  17  21
ENDBRANCH  12  15
ENDBRANCH   1  11
BRANCH   4  25
HETATM   25  C   UNL     1     -12.546   5.810 -33.037  1.00  0.00     0.409 C 
HETATM   26  F   UNL     1     -11.525   6.638 -33.353  1.00  0.00    -0.169 F 
HETATM   27  F   UNL     1     -13.606   6.197 -33.799  1.00  0.00    -0.169 F 
HETATM   28  F   UNL     1     -12.902   6.050 -31.758  1.00  0.00    -0.169 F 
ENDBRANCH   4  25
BRANCH   6  29
HETATM   29  C   UNL     1     -12.594   1.535 -34.614  1.00  0.00     0.075 A 
HETATM   30  O   UNL     1     -13.936   1.446 -34.854  1.00  0.00    -0.325 OA
HETATM   31  C   UNL     1     -14.381   0.330 -34.221  1.00  0.00     0.142 A 
HETATM   32  C   UNL     1     -13.345  -0.304 -33.577  1.00  0.00     0.027 A 
HETATM   33  C   UNL     1     -12.189   0.471 -33.832  1.00  0.00     0.037 A 
ENDBRANCH   6  29
TORSDOF 6
ENDMDL
MODEL 5
REMARK VINA RESULT:      -8.8      4.039      8.260
REMARK  6 active torsions:
REMARK  status: ('A' for Active; 'I' for Inactive)
REMARK    1  A    between atoms: C_2  and  O_3 
REMARK    2  A    between atoms: C_2  and  C_4 
REMARK    3  A    between atoms: C_6  and  N_7 
REMARK       I    between atoms: N_7  and  C_8 
REMARK    4  A    between atoms: C_8  and  C_9 
REMARK    5  A    between atoms: C_12  and  C_13 
REMARK    6  A    between atoms: C_18  and  C_19 
ROOT
HETATM    1  C   UNL     1      -4.021   2.164 -32.097  1.00  0.00     0.096 A 
HETATM    2  C   UNL     1      -4.235   3.362 -32.753  1.00  0.00     0.138 A 
HETATM    3  N   UNL     1      -3.284   4.240 -32.297  1.00  0.00    -0.240 N 
HETATM    4  C   UNL     1      -3.239   5.650 -32.651  1.00  0.00     0.221 C 
HETATM    5  C   UNL     1      -4.113   5.930 -33.892  1.00  0.00     0.068 C 
HETATM    6  C   UNL     1      -5.453   5.181 -33.823  1.00  0.00     0.143 C 
HETATM    7  N   UNL     1      -5.160   3.754 -33.665  1.00  0.00    -0.363 N 
HETATM    8  N   UNL     1      -2.508   3.721 -31.331  1.00  0.00    -0.181 NA
HETATM    9  C   UNL     1      -2.935   2.459 -31.235  1.00  0.00     0.160 A 
HETATM   10  H   UNL     1      -5.963   3.135 -33.817  1.00  0.00     0.162 HD
ENDROOT
BRANCH   1  11
HETATM   11  C   UNL     1      -4.815   0.949 -32.261  1.00  0.00     0.261 C 
HETATM   12  N   UNL     1      -4.551   0.251 -33.427  1.00  0.00    -0.323 N 
HETATM   13  H   UNL     1      -3.902   0.668 -34.077  1.00  0.00     0.169 HD
HETATM   14  O   UNL     1      -5.630   0.617 -31.404  1.00  0.00    -0.267 OA
BRANCH  12  15
HETATM   15  C   UNL     1      -5.106  -0.978 -33.843  1.00  0.00     0.035 A 
HETATM   16  C   UNL     1      -4.383  -2.169 -33.962  1.00  0.00     0.039 A 
HETATM   17  C   UNL     1      -5.001  -3.356 -34.397  1.00  0.00    -0.028 A 
HETATM   18  C   UNL     1      -6.367  -3.335 -34.703  1.00  0.00     0.010 A 
HETATM   19  C   UNL     1      -7.097  -2.156 -34.590  1.00  0.00     0.003 A 
HETATM   20  C   UNL     1      -6.470  -0.984 -34.161  1.00  0.00     0.029 A 
BRANCH  17  21
HETATM   21  C   UNL     1      -4.192  -4.633 -34.483  1.00  0.00     0.147 C 
HETATM   22  C   UNL     1      -3.403  -4.880 -33.202  1.00  0.00     0.044 C 
BRANCH  21  23
HETATM   23  O   UNL     1      -5.056  -5.742 -34.721  1.00  0.00    -0.391 OA
HETATM   24  H   UNL     1      -4.490  -6.493 -34.966  1.00  0.00     0.210 HD
ENDBRANCH  21  23
ENDBRANCH  17  21
ENDBRANCH  12  15
ENDBRANCH   1  11
BRANCH   4  25
HETATM   25  C   UNL     1      -1.825   6.115 -32.915  1.00  0.00     0.409 C 
HETATM   26  F   UNL     1      -1.140   6.361 -31.774  1.00  0.00    -0.169 F 
HETATM   27  F   UNL     1      -1.137   5.142 -33.574  1.00  0.00    -0.169 F 
HETATM   28  F   UNL     1      -1.753   7.214 -33.694  1.00  0.00    -0.169 F 
ENDBRANCH   4  25
BRANCH   6  29
HETATM   29  C   UNL     1      -6.366   5.759 -32.781  1.00  0.00     0.075 A 
HETATM   30  O   UNL     1      -7.218   4.887 -32.165  1.00  0.00    -0.325 OA
HETATM   31  C   UNL     1      -7.944   5.604 -31.269  1.00  0.00     0.142 A 
HETATM   32  C   UNL     1      -7.571   6.928 -31.298  1.00  0.00     0.027 A 
HETATM   33  C   UNL     1      -6.550   7.029 -32.272  1.00  0.00     0.037 A 
ENDBRANCH   6  29
TORSDOF 6
ENDMDL
MODEL 6
REMARK VINA RESULT:      -8.8      1.756      2.315
REMARK  6 active torsions:
REMARK  status: ('A' for Active; 'I' for Inactive)
REMARK    1  A    between atoms: C_2  and  O_3 
REMARK    2  A    between atoms: C_2  and  C_4 
REMARK    3  A    between atoms: C_6  and  N_7 
REMARK       I    between atoms: N_7  and  C_8 
REMARK    4  A    between atoms: C_8  and  C_9 
REMARK    5  A    between atoms: C_12  and  C_13 
REMARK    6  A    between atoms: C_18  and  C_19 
ROOT
HETATM    1  C   UNL     1      -6.241   2.249 -31.653  1.00  0.00     0.096 A 
HETATM    2  C   UNL     1      -6.734   1.623 -32.783  1.00  0.00     0.138 A 
HETATM    3  N   UNL     1      -7.919   1.032 -32.425  1.00  0.00    -0.240 N 
HETATM    4  C   UNL     1      -8.697   0.169 -33.299  1.00  0.00     0.221 C 
HETATM    5  C   UNL     1      -8.252   0.336 -34.768  1.00  0.00     0.068 C 
HETATM    6  C   UNL     1      -6.723   0.406 -34.894  1.00  0.00     0.143 C 
HETATM    7  N   UNL     1      -6.255   1.507 -34.047  1.00  0.00    -0.363 N 
HETATM    8  N   UNL     1      -8.201   1.165 -31.118  1.00  0.00    -0.181 NA
HETATM    9  C   UNL     1      -7.201   1.925 -30.662  1.00  0.00     0.160 A 
HETATM   10  H   UNL     1      -5.282   1.785 -34.209  1.00  0.00     0.162 HD
ENDROOT
BRANCH   1  11
HETATM   11  C   UNL     1      -4.985   2.990 -31.568  1.00  0.00     0.261 C 
HETATM   12  N   UNL     1      -5.128   4.363 -31.674  1.00  0.00    -0.323 N 
HETATM   13  H   UNL     1      -6.053   4.717 -31.866  1.00  0.00     0.169 HD
HETATM   14  O   UNL     1      -3.921   2.397 -31.410  1.00  0.00    -0.267 OA
BRANCH  12  15
HETATM   15  C   UNL     1      -4.121   5.347 -31.575  1.00  0.00     0.035 A 
HETATM   16  C   UNL     1      -3.224   5.661 -32.601  1.00  0.00     0.039 A 
HETATM   17  C   UNL     1      -2.235   6.647 -32.428  1.00  0.00    -0.028 A 
HETATM   18  C   UNL     1      -2.163   7.325 -31.205  1.00  0.00     0.010 A 
HETATM   19  C   UNL     1      -3.049   7.020 -30.176  1.00  0.00     0.003 A 
HETATM   20  C   UNL     1      -4.022   6.037 -30.361  1.00  0.00     0.029 A 
BRANCH  17  21
HETATM   21  C   UNL     1      -1.303   6.982 -33.572  1.00  0.00     0.147 C 
HETATM   22  C   UNL     1      -1.106   5.787 -34.498  1.00  0.00     0.044 C 
BRANCH  21  23
HETATM   23  O   UNL     1      -1.828   8.075 -34.324  1.00  0.00    -0.391 OA
HETATM   24  H   UNL     1      -2.796   7.982 -34.317  1.00  0.00     0.210 HD
ENDBRANCH  21  23
ENDBRANCH  17  21
ENDBRANCH  12  15
ENDBRANCH   1  11
BRANCH   4  25
HETATM   25  C   UNL     1     -10.179   0.447 -33.186  1.00  0.00     0.409 C 
HETATM   26  F   UNL     1     -10.769   0.606 -34.393  1.00  0.00    -0.169 F 
HETATM   27  F   UNL     1     -10.799  -0.608 -32.589  1.00  0.00    -0.169 F 
HETATM   28  F   UNL     1     -10.471   1.526 -32.430  1.00  0.00    -0.169 F 
ENDBRANCH   4  25
BRANCH   6  29
HETATM   29  C   UNL     1      -6.076  -0.921 -34.622  1.00  0.00     0.075 A 
HETATM   30  O   UNL     1      -4.898  -0.895 -33.931  1.00  0.00    -0.325 OA
HETATM   31  C   UNL     1      -4.489  -2.182 -33.793  1.00  0.00     0.142 A 
HETATM   32  C   UNL     1      -5.386  -3.039 -34.385  1.00  0.00     0.027 A 
HETATM   33  C   UNL     1      -6.414  -2.226 -34.918  1.00  0.00     0.037 A 
ENDBRANCH   6  29
TORSDOF 6
ENDMDL
MODEL 7
REMARK VINA RESULT:      -8.7      1.541      1.758
REMARK  6 active torsions:
REMARK  status: ('A' for Active; 'I' for Inactive)
REMARK    1  A    between atoms: C_2  and  O_3 
REMARK    2  A    between atoms: C_2  and  C_4 
REMARK    3  A    between atoms: C_6  and  N_7 
REMARK       I    between atoms: N_7  and  C_8 
REMARK    4  A    between atoms: C_8  and  C_9 
REMARK    5  A    between atoms: C_12  and  C_13 
REMARK    6  A    between atoms: C_18  and  C_19 
ROOT
HETATM    1  C   UNL     1      -6.743   3.276 -32.059  1.00  0.00     0.096 A 
HETATM    2  C   UNL     1      -7.094   2.393 -33.063  1.00  0.00     0.138 A 
HETATM    3  N   UNL     1      -8.190   1.699 -32.618  1.00  0.00    -0.240 N 
HETATM    4  C   UNL     1      -8.796   0.587 -33.332  1.00  0.00     0.221 C 
HETATM    5  C   UNL     1      -8.326   0.559 -34.802  1.00  0.00     0.068 C 
HETATM    6  C   UNL     1      -6.820   0.840 -34.922  1.00  0.00     0.143 C 
HETATM    7  N   UNL     1      -6.555   2.132 -34.281  1.00  0.00    -0.363 N 
HETATM    8  N   UNL     1      -8.538   2.014 -31.360  1.00  0.00    -0.181 NA
HETATM    9  C   UNL     1      -7.681   2.987 -31.036  1.00  0.00     0.160 A 
HETATM   10  H   UNL     1      -5.628   2.523 -34.479  1.00  0.00     0.162 HD
ENDROOT
BRANCH   1  11
HETATM   11  C   UNL     1      -5.616   4.204 -32.094  1.00  0.00     0.261 C 
HETATM   12  N   UNL     1      -4.456   3.670 -32.631  1.00  0.00    -0.323 N 
HETATM   13  H   UNL     1      -4.471   2.692 -32.877  1.00  0.00     0.169 HD
HETATM   14  O   UNL     1      -5.742   5.352 -31.678  1.00  0.00    -0.267 OA
BRANCH  12  15
HETATM   15  C   UNL     1      -3.225   4.323 -32.852  1.00  0.00     0.035 A 
HETATM   16  C   UNL     1      -2.306   4.632 -31.845  1.00  0.00     0.039 A 
HETATM   17  C   UNL     1      -1.101   5.298 -32.137  1.00  0.00    -0.028 A 
HETATM   18  C   UNL     1      -0.825   5.645 -33.465  1.00  0.00     0.010 A 
HETATM   19  C   UNL     1      -1.733   5.344 -34.476  1.00  0.00     0.003 A 
HETATM   20  C   UNL     1      -2.926   4.687 -34.171  1.00  0.00     0.029 A 
BRANCH  17  21
HETATM   21  C   UNL     1      -0.116   5.586 -31.025  1.00  0.00     0.147 C 
HETATM   22  C   UNL     1      -0.784   6.314 -29.864  1.00  0.00     0.044 C 
BRANCH  21  23
HETATM   23  O   UNL     1       0.451   4.367 -30.548  1.00  0.00    -0.391 OA
HETATM   24  H   UNL     1      -0.162   3.655 -30.796  1.00  0.00     0.210 HD
ENDBRANCH  21  23
ENDBRANCH  17  21
ENDBRANCH  12  15
ENDBRANCH   1  11
BRANCH   4  25
HETATM   25  C   UNL     1     -10.306   0.649 -33.287  1.00  0.00     0.409 C 
HETATM   26  F   UNL     1     -10.860   0.693 -34.520  1.00  0.00    -0.169 F 
HETATM   27  F   UNL     1     -10.794  -0.471 -32.686  1.00  0.00    -0.169 F 
HETATM   28  F   UNL     1     -10.784   1.690 -32.574  1.00  0.00    -0.169 F 
ENDBRANCH   4  25
BRANCH   6  29
HETATM   29  C   UNL     1      -5.993  -0.302 -34.409  1.00  0.00     0.075 A 
HETATM   30  O   UNL     1      -4.951   0.019 -33.586  1.00  0.00    -0.325 OA
HETATM   31  C   UNL     1      -4.343  -1.144 -33.240  1.00  0.00     0.142 A 
HETATM   32  C   UNL     1      -4.978  -2.213 -33.827  1.00  0.00     0.027 A 
HETATM   33  C   UNL     1      -6.046  -1.671 -34.580  1.00  0.00     0.037 A 
ENDBRANCH   6  29
TORSDOF 6
ENDMDL
MODEL 8
REMARK VINA RESULT:      -8.7      1.877      2.508
REMARK  6 active torsions:
REMARK  status: ('A' for Active; 'I' for Inactive)
REMARK    1  A    between atoms: C_2  and  O_3 
REMARK    2  A    between atoms: C_2  and  C_4 
REMARK    3  A    between atoms: C_6  and  N_7 
REMARK       I    between atoms: N_7  and  C_8 
REMARK    4  A    between atoms: C_8  and  C_9 
REMARK    5  A    between atoms: C_12  and  C_13 
REMARK    6  A    between atoms: C_18  and  C_19 
ROOT
HETATM    1  C   UNL     1      -5.027   3.296 -31.239  1.00  0.00     0.096 A 
HETATM    2  C   UNL     1      -5.894   2.894 -32.237  1.00  0.00     0.138 A 
HETATM    3  N   UNL     1      -7.091   2.603 -31.633  1.00  0.00    -0.240 N 
HETATM    4  C   UNL     1      -8.234   2.027 -32.322  1.00  0.00     0.221 C 
HETATM    5  C   UNL     1      -8.080   2.171 -33.851  1.00  0.00     0.068 C 
HETATM    6  C   UNL     1      -6.648   1.856 -34.310  1.00  0.00     0.143 C 
HETATM    7  N   UNL     1      -5.740   2.742 -33.577  1.00  0.00    -0.363 N 
HETATM    8  N   UNL     1      -7.046   2.717 -30.295  1.00  0.00    -0.181 NA
HETATM    9  C   UNL     1      -5.809   3.164 -30.064  1.00  0.00     0.160 A 
HETATM   10  H   UNL     1      -4.784   2.772 -33.947  1.00  0.00     0.162 HD
ENDROOT
BRANCH   1  11
HETATM   11  C   UNL     1      -3.632   3.684 -31.426  1.00  0.00     0.261 C 
HETATM   12  N   UNL     1      -3.343   4.978 -31.026  1.00  0.00    -0.323 N 
HETATM   13  H   UNL     1      -4.117   5.547 -30.716  1.00  0.00     0.169 HD
HETATM   14  O   UNL     1      -2.822   2.890 -31.896  1.00  0.00    -0.267 OA
BRANCH  12  15
HETATM   15  C   UNL     1      -2.088   5.624 -31.027  1.00  0.00     0.035 A 
HETATM   16  C   UNL     1      -1.285   5.784 -29.894  1.00  0.00     0.039 A 
HETATM   17  C   UNL     1      -0.048   6.451 -29.966  1.00  0.00    -0.028 A 
HETATM   18  C   UNL     1       0.380   6.951 -31.202  1.00  0.00     0.010 A 
HETATM   19  C   UNL     1      -0.412   6.799 -32.336  1.00  0.00     0.003 A 
HETATM   20  C   UNL     1      -1.638   6.138 -32.249  1.00  0.00     0.029 A 
BRANCH  17  21
HETATM   21  C   UNL     1       0.808   6.576 -28.724  1.00  0.00     0.147 C 
HETATM   22  C   UNL     1       0.975   8.032 -28.307  1.00  0.00     0.044 C 
BRANCH  21  23
HETATM   23  O   UNL     1       0.217   5.847 -27.649  1.00  0.00    -0.391 OA
HETATM   24  H   UNL     1       0.781   5.071 -27.492  1.00  0.00     0.210 HD
ENDBRANCH  21  23
ENDBRANCH  17  21
ENDBRANCH  12  15
ENDBRANCH   1  11
BRANCH   4  25
HETATM   25  C   UNL     1      -9.532   2.667 -31.883  1.00  0.00     0.409 C 
HETATM   26  F   UNL     1     -10.591   2.241 -32.610  1.00  0.00    -0.169 F 
HETATM   27  F   UNL     1      -9.794   2.332 -30.589  1.00  0.00    -0.169 F 
HETATM   28  F   UNL     1      -9.511   4.015 -31.920  1.00  0.00    -0.169 F 
ENDBRANCH   4  25
BRANCH   6  29
HETATM   29  C   UNL     1      -6.333   0.393 -34.197  1.00  0.00     0.075 A 
HETATM   30  O   UNL     1      -5.169   0.067 -33.561  1.00  0.00    -0.325 OA
HETATM   31  C   UNL     1      -5.077  -1.288 -33.568  1.00  0.00     0.142 A 
HETATM   32  C   UNL     1      -6.165  -1.841 -34.199  1.00  0.00     0.027 A 
HETATM   33  C   UNL     1      -6.979  -0.757 -34.604  1.00  0.00     0.037 A 
ENDBRANCH   6  29
TORSDOF 6
ENDMDL
MODEL 9
REMARK VINA RESULT:      -8.6      4.334      8.342
REMARK  6 active torsions:
REMARK  status: ('A' for Active; 'I' for Inactive)
REMARK    1  A    between atoms: C_2  and  O_3 
REMARK    2  A    between atoms: C_2  and  C_4 
REMARK    3  A    between atoms: C_6  and  N_7 
REMARK       I    between atoms: N_7  and  C_8 
REMARK    4  A    between atoms: C_8  and  C_9 
REMARK    5  A    between atoms: C_12  and  C_13 
REMARK    6  A    between atoms: C_18  and  C_19 
ROOT
HETATM    1  C   UNL     1      -7.965   2.363 -32.666  1.00  0.00     0.096 A 
HETATM    2  C   UNL     1      -6.888   1.645 -32.182  1.00  0.00     0.138 A 
HETATM    3  N   UNL     1      -5.755   2.293 -32.605  1.00  0.00    -0.240 N 
HETATM    4  C   UNL     1      -4.406   1.790 -32.408  1.00  0.00     0.221 C 
HETATM    5  C   UNL     1      -4.387   0.685 -31.330  1.00  0.00     0.068 C 
HETATM    6  C   UNL     1      -5.569  -0.283 -31.489  1.00  0.00     0.143 C 
HETATM    7  N   UNL     1      -6.802   0.507 -31.447  1.00  0.00    -0.363 N 
HETATM    8  N   UNL     1      -6.016   3.346 -33.398  1.00  0.00    -0.181 NA
HETATM    9  C   UNL     1      -7.351   3.403 -33.407  1.00  0.00     0.160 A 
HETATM   10  H   UNL     1      -7.658  -0.045 -31.332  1.00  0.00     0.162 HD
ENDROOT
BRANCH   1  11
HETATM   11  C   UNL     1      -9.373   2.023 -32.473  1.00  0.00     0.261 C 
HETATM   12  N   UNL     1     -10.246   3.075 -32.691  1.00  0.00    -0.323 N 
HETATM   13  H   UNL     1      -9.840   3.977 -32.890  1.00  0.00     0.169 HD
HETATM   14  O   UNL     1      -9.700   0.885 -32.150  1.00  0.00    -0.267 OA
BRANCH  12  15
HETATM   15  C   UNL     1     -11.656   3.053 -32.640  1.00  0.00     0.035 A 
HETATM   16  C   UNL     1     -12.458   2.198 -33.403  1.00  0.00     0.039 A 
HETATM   17  C   UNL     1     -13.862   2.239 -33.310  1.00  0.00    -0.028 A 
HETATM   18  C   UNL     1     -14.454   3.151 -32.428  1.00  0.00     0.010 A 
HETATM   19  C   UNL     1     -13.667   4.008 -31.664  1.00  0.00     0.003 A 
HETATM   20  C   UNL     1     -12.276   3.958 -31.770  1.00  0.00     0.029 A 
BRANCH  17  21
HETATM   21  C   UNL     1     -14.695   1.276 -34.128  1.00  0.00     0.147 C 
HETATM   22  C   UNL     1     -14.285  -0.170 -33.875  1.00  0.00     0.044 C 
BRANCH  21  23
HETATM   23  O   UNL     1     -16.076   1.433 -33.807  1.00  0.00    -0.391 OA
HETATM   24  H   UNL     1     -16.421   0.548 -33.605  1.00  0.00     0.210 HD
ENDBRANCH  21  23
ENDBRANCH  17  21
ENDBRANCH  12  15
ENDBRANCH   1  11
BRANCH   4  25
HETATM   25  C   UNL     1      -3.449   2.893 -32.017  1.00  0.00     0.409 C 
HETATM   26  F   UNL     1      -4.084   3.966 -31.492  1.00  0.00    -0.169 F 
HETATM   27  F   UNL     1      -2.597   2.442 -31.055  1.00  0.00    -0.169 F 
HETATM   28  F   UNL     1      -2.670   3.320 -33.032  1.00  0.00    -0.169 F 
ENDBRANCH   4  25
BRANCH   6  29
HETATM   29  C   UNL     1      -5.419  -1.159 -32.698  1.00  0.00     0.075 A 
HETATM   30  O   UNL     1      -4.256  -1.869 -32.798  1.00  0.00    -0.325 OA
HETATM   31  C   UNL     1      -4.325  -2.586 -33.948  1.00  0.00     0.142 A 
HETATM   32  C   UNL     1      -5.516  -2.351 -34.593  1.00  0.00     0.027 A 
HETATM   33  C   UNL     1      -6.226  -1.431 -33.785  1.00  0.00     0.037 A 
ENDBRANCH   6  29
TORSDOF 6
ENDMDL
MODEL 10
REMARK VINA RESULT:      -8.4      4.170      7.129
REMARK  6 active torsions:
REMARK  status: ('A' for Active; 'I' for Inactive)
REMARK    1  A    between atoms: C_2  and  O_3 
REMARK    2  A    between atoms: C_2  and  C_4 
REMARK    3  A    between atoms: C_6  and  N_7 
REMARK       I    between atoms: N_7  and  C_8 
REMARK    4  A    between atoms: C_8  and  C_9 
REMARK    5  A    between atoms: C_12  and  C_13 
REMARK    6  A    between atoms: C_18  and  C_19 
ROOT
HETATM    1  C   UNL     1      -9.481   1.386 -33.189  1.00  0.00     0.096 A 
HETATM    2  C   UNL     1     -10.108   2.274 -32.336  1.00  0.00     0.138 A 
HETATM    3  N   UNL     1     -10.996   2.995 -33.094  1.00  0.00    -0.240 N 
HETATM    4  C   UNL     1     -11.770   4.120 -32.594  1.00  0.00     0.221 C 
HETATM    5  C   UNL     1     -11.782   4.132 -31.051  1.00  0.00     0.068 C 
HETATM    6  C   UNL     1     -10.395   3.815 -30.470  1.00  0.00     0.143 C 
HETATM    7  N   UNL     1      -9.971   2.520 -31.008  1.00  0.00    -0.363 N 
HETATM    8  N   UNL     1     -10.940   2.692 -34.402  1.00  0.00    -0.181 NA
HETATM    9  C   UNL     1     -10.046   1.700 -34.451  1.00  0.00     0.160 A 
HETATM   10  H   UNL     1      -9.162   2.106 -30.534  1.00  0.00     0.162 HD
ENDROOT
BRANCH   1  11
HETATM   11  C   UNL     1      -8.442   0.431 -32.813  1.00  0.00     0.261 C 
HETATM   12  N   UNL     1      -7.639   0.021 -33.864  1.00  0.00    -0.323 N 
HETATM   13  H   UNL     1      -7.882   0.353 -34.785  1.00  0.00     0.169 HD
HETATM   14  O   UNL     1      -8.328   0.062 -31.647  1.00  0.00    -0.267 OA
BRANCH  12  15
HETATM   15  C   UNL     1      -6.525  -0.844 -33.815  1.00  0.00     0.035 A 
HETATM   16  C   UNL     1      -5.372  -0.600 -33.062  1.00  0.00     0.039 A 
HETATM   17  C   UNL     1      -4.292  -1.501 -33.070  1.00  0.00    -0.028 A 
HETATM   18  C   UNL     1      -4.388  -2.665 -33.842  1.00  0.00     0.010 A 
HETATM   19  C   UNL     1      -5.530  -2.919 -34.597  1.00  0.00     0.003 A 
HETATM   20  C   UNL     1      -6.592  -2.013 -34.582  1.00  0.00     0.029 A 
BRANCH  17  21
HETATM   21  C   UNL     1      -3.074  -1.218 -32.217  1.00  0.00     0.147 C 
HETATM   22  C   UNL     1      -3.358  -0.136 -31.183  1.00  0.00     0.044 C 
BRANCH  21  23
HETATM   23  O   UNL     1      -2.661  -2.408 -31.548  1.00  0.00    -0.391 OA
HETATM   24  H   UNL     1      -1.745  -2.582 -31.821  1.00  0.00     0.210 HD
ENDBRANCH  21  23
ENDBRANCH  17  21
ENDBRANCH  12  15
ENDBRANCH   1  11
BRANCH   4  25
HETATM   25  C   UNL     1     -13.191   4.093 -33.110  1.00  0.00     0.409 C 
HETATM   26  F   UNL     1     -13.699   2.840 -33.164  1.00  0.00    -0.169 F 
HETATM   27  F   UNL     1     -13.998   4.799 -32.269  1.00  0.00    -0.169 F 
HETATM   28  F   UNL     1     -13.337   4.659 -34.326  1.00  0.00    -0.169 F 
ENDBRANCH   4  25
BRANCH   6  29
HETATM   29  C   UNL     1      -9.425   4.939 -30.687  1.00  0.00     0.075 A 
HETATM   30  O   UNL     1      -9.873   6.197 -30.397  1.00  0.00    -0.325 OA
HETATM   31  C   UNL     1      -8.853   7.053 -30.660  1.00  0.00     0.142 A 
HETATM   32  C   UNL     1      -7.752   6.367 -31.114  1.00  0.00     0.027 A 
HETATM   33  C   UNL     1      -8.119   5.000 -31.130  1.00  0.00     0.037 A 
ENDBRANCH   6  29
TORSDOF 6
ENDMDL
