MODEL 1
REMARK VINA RESULT:      -9.8      0.000      0.000
REMARK  2 active torsions:
REMARK  status: ('A' for Active; 'I' for Inactive)
REMARK    1  A    between atoms: C_4  and  C_5 
REMARK       I    between atoms: N_12  and  C_13 
REMARK    2  A    between atoms: C_13  and  C_14 
ROOT
HETATM    1  C   UNL     1      -4.088  -1.382 -32.896  1.00  0.00     0.070 A 
HETATM    2  N   UNL     1      -2.913  -1.519 -32.196  1.00  0.00    -0.277 N 
HETATM    3  H   UNL     1      -2.345  -2.354 -32.103  1.00  0.00     0.189 HD
HETATM    4  N   UNL     1      -2.490  -0.390 -31.596  1.00  0.00    -0.178 NA
HETATM    5  C   UNL     1      -3.430   0.497 -31.922  1.00  0.00     0.066 A 
HETATM    6  C   UNL     1      -4.448  -0.057 -32.730  1.00  0.00     0.015 A 
HETATM    7  C   UNL     1      -5.620   0.710 -33.230  1.00  0.00     0.169 C 
HETATM    8  N   UNL     1      -5.635   2.068 -32.650  1.00  0.00    -0.343 N 
HETATM    9  C   UNL     1      -6.794   2.781 -32.359  1.00  0.00     0.254 C 
HETATM   10  O   UNL     1      -6.802   3.869 -31.790  1.00  0.00    -0.267 OA
HETATM   11  C   UNL     1      -4.331   2.723 -32.428  1.00  0.00     0.132 C 
HETATM   12  C   UNL     1      -3.429   1.914 -31.482  1.00  0.00     0.081 C 
ENDROOT
BRANCH   9  13
HETATM   13  C   UNL     1      -8.105   2.208 -32.737  1.00  0.00     0.035 A 
HETATM   14  C   UNL     1      -8.917   2.848 -33.681  1.00  0.00     0.056 A 
HETATM   15  C   UNL     1     -10.117   2.244 -33.990  1.00  0.00     0.106 A 
HETATM   16  C   UNL     1     -10.523   1.076 -33.383  1.00  0.00     0.105 A 
HETATM   17  O   UNL     1     -11.022   2.698 -34.898  1.00  0.00    -0.323 OA
HETATM   18  O   UNL     1     -11.734   0.653 -33.836  1.00  0.00    -0.323 OA
HETATM   19  C   UNL     1      -9.756   0.446 -32.425  1.00  0.00     0.041 A 
HETATM   20  C   UNL     1     -12.041   1.680 -34.800  1.00  0.00     0.352 A 
HETATM   21  C   UNL     1      -8.529   1.026 -32.095  1.00  0.00     0.020 A 
ENDBRANCH   9  13
BRANCH   1  22
HETATM   22  C   UNL     1      -4.714  -2.477 -33.627  1.00  0.00    -0.007 A 
HETATM   23  C   UNL     1      -4.077  -3.720 -33.735  1.00  0.00     0.014 A 
HETATM   24  C   UNL     1      -4.683  -4.770 -34.431  1.00  0.00     0.001 A 
HETATM   25  C   UNL     1      -5.929  -4.585 -35.025  1.00  0.00     0.000 A 
HETATM   26  C   UNL     1      -6.571  -3.353 -34.926  1.00  0.00     0.001 A 
HETATM   27  C   UNL     1      -5.966  -2.304 -34.230  1.00  0.00     0.014 A 
ENDBRANCH   1  22
TORSDOF 2
ENDMDL
MODEL 2
REMARK VINA RESULT:      -9.5      3.057      5.660
REMARK  2 active torsions:
REMARK  status: ('A' for Active; 'I' for Inactive)
REMARK    1  A    between atoms: C_4  and  C_5 
REMARK       I    between atoms: N_12  and  C_13 
REMARK    2  A    between atoms: C_13  and  C_14 
ROOT
HETATM    1  C   UNL     1      -7.748  -0.063 -33.008  1.00  0.00     0.070 A 
HETATM    2  N   UNL     1      -9.068  -0.402 -33.190  1.00  0.00    -0.277 N 
HETATM    3  H   UNL     1      -9.434  -1.245 -33.615  1.00  0.00     0.189 HD
HETATM    4  N   UNL     1      -9.944   0.506 -32.718  1.00  0.00    -0.178 NA
HETATM    5  C   UNL     1      -9.155   1.459 -32.221  1.00  0.00     0.066 A 
HETATM    6  C   UNL     1      -7.782   1.163 -32.368  1.00  0.00     0.015 A 
HETATM    7  C   UNL     1      -6.687   2.058 -31.907  1.00  0.00     0.169 C 
HETATM    8  N   UNL     1      -7.236   3.337 -31.415  1.00  0.00    -0.343 N 
HETATM    9  C   UNL     1      -6.584   4.562 -31.523  1.00  0.00     0.254 C 
HETATM   10  O   UNL     1      -7.086   5.634 -31.199  1.00  0.00    -0.267 OA
HETATM   11  C   UNL     1      -8.532   3.290 -30.710  1.00  0.00     0.132 C 
HETATM   12  C   UNL     1      -9.650   2.707 -31.590  1.00  0.00     0.081 C 
ENDROOT
BRANCH   9  13
HETATM   13  C   UNL     1      -5.210   4.598 -32.071  1.00  0.00     0.035 A 
HETATM   14  C   UNL     1      -4.987   4.917 -33.417  1.00  0.00     0.056 A 
HETATM   15  C   UNL     1      -3.678   4.944 -33.847  1.00  0.00     0.106 A 
HETATM   16  C   UNL     1      -2.628   4.645 -33.008  1.00  0.00     0.105 A 
HETATM   17  O   UNL     1      -3.265   5.258 -35.105  1.00  0.00    -0.323 OA
HETATM   18  O   UNL     1      -1.424   4.735 -33.634  1.00  0.00    -0.323 OA
HETATM   19  C   UNL     1      -2.825   4.294 -31.689  1.00  0.00     0.041 A 
HETATM   20  C   UNL     1      -1.834   5.130 -34.960  1.00  0.00     0.352 A 
HETATM   21  C   UNL     1      -4.139   4.267 -31.215  1.00  0.00     0.020 A 
ENDBRANCH   9  13
BRANCH   1  22
HETATM   22  C   UNL     1      -6.640  -0.909 -33.434  1.00  0.00    -0.007 A 
HETATM   23  C   UNL     1      -5.426  -0.900 -32.735  1.00  0.00     0.014 A 
HETATM   24  C   UNL     1      -4.369  -1.719 -33.142  1.00  0.00     0.001 A 
HETATM   25  C   UNL     1      -4.516  -2.551 -34.250  1.00  0.00     0.000 A 
HETATM   26  C   UNL     1      -5.718  -2.566 -34.952  1.00  0.00     0.001 A 
HETATM   27  C   UNL     1      -6.776  -1.749 -34.546  1.00  0.00     0.014 A 
ENDBRANCH   1  22
TORSDOF 2
ENDMDL
MODEL 3
REMARK VINA RESULT:      -9.4      2.987      6.923
REMARK  2 active torsions:
REMARK  status: ('A' for Active; 'I' for Inactive)
REMARK    1  A    between atoms: C_4  and  C_5 
REMARK       I    between atoms: N_12  and  C_13 
REMARK    2  A    between atoms: C_13  and  C_14 
ROOT
HETATM    1  C   UNL     1      -5.949   4.994 -33.460  1.00  0.00     0.070 A 
HETATM    2  N   UNL     1      -6.612   6.107 -33.001  1.00  0.00    -0.277 N 
HETATM    3  H   UNL     1      -6.212   7.006 -32.756  1.00  0.00     0.189 HD
HETATM    4  N   UNL     1      -7.947   5.954 -32.897  1.00  0.00    -0.178 NA
HETATM    5  C   UNL     1      -8.140   4.699 -33.301  1.00  0.00     0.066 A 
HETATM    6  C   UNL     1      -6.939   4.051 -33.667  1.00  0.00     0.015 A 
HETATM    7  C   UNL     1      -6.868   2.645 -34.147  1.00  0.00     0.169 C 
HETATM    8  N   UNL     1      -8.191   1.997 -34.050  1.00  0.00    -0.343 N 
HETATM    9  C   UNL     1      -8.382   0.645 -33.783  1.00  0.00     0.254 C 
HETATM   10  O   UNL     1      -9.484   0.131 -33.609  1.00  0.00    -0.267 OA
HETATM   11  C   UNL     1      -9.376   2.836 -34.315  1.00  0.00     0.132 C 
HETATM   12  C   UNL     1      -9.465   4.034 -33.355  1.00  0.00     0.081 C 
ENDROOT
BRANCH   9  13
HETATM   13  C   UNL     1      -7.202  -0.243 -33.687  1.00  0.00     0.035 A 
HETATM   14  C   UNL     1      -6.306  -0.123 -32.617  1.00  0.00     0.056 A 
HETATM   15  C   UNL     1      -5.239  -0.996 -32.590  1.00  0.00     0.106 A 
HETATM   16  C   UNL     1      -5.036  -1.929 -33.582  1.00  0.00     0.105 A 
HETATM   17  O   UNL     1      -4.285  -1.051 -31.622  1.00  0.00    -0.323 OA
HETATM   18  O   UNL     1      -3.929  -2.687 -33.359  1.00  0.00    -0.323 OA
HETATM   19  C   UNL     1      -5.884  -2.042 -34.664  1.00  0.00     0.041 A 
HETATM   20  C   UNL     1      -3.462  -2.131 -32.113  1.00  0.00     0.352 A 
HETATM   21  C   UNL     1      -6.983  -1.180 -34.717  1.00  0.00     0.020 A 
ENDBRANCH   9  13
BRANCH   1  22
HETATM   22  C   UNL     1      -4.505   4.950 -33.657  1.00  0.00    -0.007 A 
HETATM   23  C   UNL     1      -3.941   5.307 -34.889  1.00  0.00     0.014 A 
HETATM   24  C   UNL     1      -2.556   5.270 -35.072  1.00  0.00     0.001 A 
HETATM   25  C   UNL     1      -1.724   4.876 -34.026  1.00  0.00     0.000 A 
HETATM   26  C   UNL     1      -2.275   4.517 -32.798  1.00  0.00     0.001 A 
HETATM   27  C   UNL     1      -3.659   4.554 -32.614  1.00  0.00     0.014 A 
ENDBRANCH   1  22
TORSDOF 2
ENDMDL
MODEL 4
REMARK VINA RESULT:      -9.0      1.354      1.781
REMARK  2 active torsions:
REMARK  status: ('A' for Active; 'I' for Inactive)
REMARK    1  A    between atoms: C_4  and  C_5 
REMARK       I    between atoms: N_12  and  C_13 
REMARK    2  A    between atoms: C_13  and  C_14 
ROOT
HETATM    1  C   UNL     1      -4.423  -0.116 -32.648  1.00  0.00     0.070 A 
HETATM    2  N   UNL     1      -3.308  -0.337 -31.874  1.00  0.00    -0.277 N 
HETATM    3  H   UNL     1      -2.826  -1.216 -31.726  1.00  0.00     0.189 HD
HETATM    4  N   UNL     1      -2.819   0.768 -31.279  1.00  0.00    -0.178 NA
HETATM    5  C   UNL     1      -3.653   1.725 -31.685  1.00  0.00     0.066 A 
HETATM    6  C   UNL     1      -4.668   1.240 -32.539  1.00  0.00     0.015 A 
HETATM    7  C   UNL     1      -5.734   2.094 -33.129  1.00  0.00     0.169 C 
HETATM    8  N   UNL     1      -5.657   3.466 -32.586  1.00  0.00    -0.343 N 
HETATM    9  C   UNL     1      -6.762   4.289 -32.385  1.00  0.00     0.254 C 
HETATM   10  O   UNL     1      -6.703   5.390 -31.845  1.00  0.00    -0.267 OA
HETATM   11  C   UNL     1      -4.314   4.007 -32.301  1.00  0.00     0.132 C 
HETATM   12  C   UNL     1      -3.548   3.149 -31.281  1.00  0.00     0.081 C 
ENDROOT
BRANCH   9  13
HETATM   13  C   UNL     1      -8.095   3.824 -32.827  1.00  0.00     0.035 A 
HETATM   14  C   UNL     1      -8.660   4.308 -34.014  1.00  0.00     0.056 A 
HETATM   15  C   UNL     1      -9.899   3.816 -34.365  1.00  0.00     0.106 A 
HETATM   16  C   UNL     1     -10.574   2.911 -33.578  1.00  0.00     0.105 A 
HETATM   17  O   UNL     1     -10.592   4.144 -35.489  1.00  0.00    -0.323 OA
HETATM   18  O   UNL     1     -11.775   2.557 -34.110  1.00  0.00    -0.323 OA
HETATM   19  C   UNL     1     -10.053   2.447 -32.388  1.00  0.00     0.041 A 
HETATM   20  C   UNL     1     -11.776   3.336 -35.324  1.00  0.00     0.352 A 
HETATM   21  C   UNL     1      -8.794   2.916 -32.006  1.00  0.00     0.020 A 
ENDBRANCH   9  13
BRANCH   1  22
HETATM   22  C   UNL     1      -5.103  -1.173 -33.388  1.00  0.00    -0.007 A 
HETATM   23  C   UNL     1      -6.501  -1.201 -33.468  1.00  0.00     0.014 A 
HETATM   24  C   UNL     1      -7.149  -2.211 -34.185  1.00  0.00     0.001 A 
HETATM   25  C   UNL     1      -6.406  -3.200 -34.825  1.00  0.00     0.000 A 
HETATM   26  C   UNL     1      -5.015  -3.182 -34.750  1.00  0.00     0.001 A 
HETATM   27  C   UNL     1      -4.367  -2.172 -34.035  1.00  0.00     0.014 A 
ENDBRANCH   1  22
TORSDOF 2
ENDMDL
MODEL 5
REMARK VINA RESULT:      -9.0      3.140      6.598
REMARK  2 active torsions:
REMARK  status: ('A' for Active; 'I' for Inactive)
REMARK    1  A    between atoms: C_4  and  C_5 
REMARK       I    between atoms: N_12  and  C_13 
REMARK    2  A    between atoms: C_13  and  C_14 
ROOT
HETATM    1  C   UNL     1      -5.490   5.090 -32.178  1.00  0.00     0.070 A 
HETATM    2  N   UNL     1      -5.852   6.153 -31.385  1.00  0.00    -0.277 N 
HETATM    3  H   UNL     1      -5.333   7.010 -31.229  1.00  0.00     0.189 HD
HETATM    4  N   UNL     1      -7.047   6.013 -30.781  1.00  0.00    -0.178 NA
HETATM    5  C   UNL     1      -7.459   4.816 -31.199  1.00  0.00     0.066 A 
HETATM    6  C   UNL     1      -6.539   4.194 -32.071  1.00  0.00     0.015 A 
HETATM    7  C   UNL     1      -6.747   2.853 -32.678  1.00  0.00     0.169 C 
HETATM    8  N   UNL     1      -7.966   2.221 -32.133  1.00  0.00    -0.343 N 
HETATM    9  C   UNL     1      -8.120   0.850 -31.950  1.00  0.00     0.254 C 
HETATM   10  O   UNL     1      -9.097   0.340 -31.408  1.00  0.00    -0.267 OA
HETATM   11  C   UNL     1      -9.106   3.106 -31.825  1.00  0.00     0.132 C 
HETATM   12  C   UNL     1      -8.739   4.185 -30.793  1.00  0.00     0.081 C 
ENDROOT
BRANCH   9  13
HETATM   13  C   UNL     1      -7.053  -0.062 -32.416  1.00  0.00     0.035 A 
HETATM   14  C   UNL     1      -7.233  -0.840 -33.567  1.00  0.00     0.056 A 
HETATM   15  C   UNL     1      -6.187  -1.654 -33.944  1.00  0.00     0.106 A 
HETATM   16  C   UNL     1      -5.022  -1.731 -33.214  1.00  0.00     0.105 A 
HETATM   17  O   UNL     1      -6.164  -2.457 -35.042  1.00  0.00    -0.323 OA
HETATM   18  O   UNL     1      -4.123  -2.591 -33.763  1.00  0.00    -0.323 OA
HETATM   19  C   UNL     1      -4.836  -1.002 -32.057  1.00  0.00     0.041 A 
HETATM   20  C   UNL     1      -4.849  -3.042 -34.924  1.00  0.00     0.352 A 
HETATM   21  C   UNL     1      -5.872  -0.157 -31.651  1.00  0.00     0.020 A 
ENDBRANCH   9  13
BRANCH   1  22
HETATM   22  C   UNL     1      -4.242   5.044 -32.931  1.00  0.00    -0.007 A 
HETATM   23  C   UNL     1      -3.035   4.728 -32.294  1.00  0.00     0.014 A 
HETATM   24  C   UNL     1      -1.842   4.678 -33.020  1.00  0.00     0.001 A 
HETATM   25  C   UNL     1      -1.846   4.943 -34.388  1.00  0.00     0.000 A 
HETATM   26  C   UNL     1      -3.041   5.260 -35.031  1.00  0.00     0.001 A 
HETATM   27  C   UNL     1      -4.233   5.309 -34.306  1.00  0.00     0.014 A 
ENDBRANCH   1  22
TORSDOF 2
ENDMDL
MODEL 6
REMARK VINA RESULT:      -8.3     14.304     16.380
REMARK  2 active torsions:
REMARK  status: ('A' for Active; 'I' for Inactive)
REMARK    1  A    between atoms: C_4  and  C_5 
REMARK       I    between atoms: N_12  and  C_13 
REMARK    2  A    between atoms: C_13  and  C_14 
ROOT
HETATM    1  C   UNL     1      -1.789 -15.653 -41.314  1.00  0.00     0.070 A 
HETATM    2  N   UNL     1      -0.698 -16.380 -40.899  1.00  0.00    -0.277 N 
HETATM    3  H   UNL     1      -0.239 -17.137 -41.391  1.00  0.00     0.189 HD
HETATM    4  N   UNL     1      -0.198 -15.998 -39.708  1.00  0.00    -0.178 NA
HETATM    5  C   UNL     1      -1.000 -14.996 -39.350  1.00  0.00     0.066 A 
HETATM    6  C   UNL     1      -2.006 -14.732 -40.306  1.00  0.00     0.015 A 
HETATM    7  C   UNL     1      -3.038 -13.671 -40.153  1.00  0.00     0.169 C 
HETATM    8  N   UNL     1      -2.944 -13.046 -38.819  1.00  0.00    -0.343 N 
HETATM    9  C   UNL     1      -4.033 -12.548 -38.110  1.00  0.00     0.254 C 
HETATM   10  O   UNL     1      -3.962 -12.117 -36.963  1.00  0.00    -0.267 OA
HETATM   11  C   UNL     1      -1.596 -12.889 -38.239  1.00  0.00     0.132 C 
HETATM   12  C   UNL     1      -0.872 -14.237 -38.081  1.00  0.00     0.081 C 
ENDROOT
BRANCH   9  13
HETATM   13  C   UNL     1      -5.366 -12.540 -38.752  1.00  0.00     0.035 A 
HETATM   14  C   UNL     1      -6.477 -13.081 -38.094  1.00  0.00     0.056 A 
HETATM   15  C   UNL     1      -7.687 -13.023 -38.752  1.00  0.00     0.106 A 
HETATM   16  C   UNL     1      -7.805 -12.486 -40.014  1.00  0.00     0.105 A 
HETATM   17  O   UNL     1      -8.876 -13.469 -38.264  1.00  0.00    -0.323 OA
HETATM   18  O   UNL     1      -9.084 -12.527 -40.476  1.00  0.00    -0.323 OA
HETATM   19  C   UNL     1      -6.719 -11.980 -40.697  1.00  0.00     0.041 A 
HETATM   20  C   UNL     1      -9.758 -13.144 -39.360  1.00  0.00     0.352 A 
HETATM   21  C   UNL     1      -5.479 -12.012 -40.055  1.00  0.00     0.020 A 
ENDBRANCH   9  13
BRANCH   1  22
HETATM   22  C   UNL     1      -2.476 -15.895 -42.577  1.00  0.00    -0.007 A 
HETATM   23  C   UNL     1      -3.384 -14.958 -43.086  1.00  0.00     0.014 A 
HETATM   24  C   UNL     1      -4.035 -15.189 -44.301  1.00  0.00     0.001 A 
HETATM   25  C   UNL     1      -3.783 -16.358 -45.016  1.00  0.00     0.000 A 
HETATM   26  C   UNL     1      -2.883 -17.297 -44.518  1.00  0.00     0.001 A 
HETATM   27  C   UNL     1      -2.232 -17.066 -43.304  1.00  0.00     0.014 A 
ENDBRANCH   1  22
TORSDOF 2
ENDMDL
MODEL 7
REMARK VINA RESULT:      -8.3     14.202     15.949
REMARK  2 active torsions:
REMARK  status: ('A' for Active; 'I' for Inactive)
REMARK    1  A    between atoms: C_4  and  C_5 
REMARK       I    between atoms: N_12  and  C_13 
REMARK    2  A    between atoms: C_13  and  C_14 
ROOT
HETATM    1  C   UNL     1      -6.303 -13.543 -40.788  1.00  0.00     0.070 A 
HETATM    2  N   UNL     1      -5.765 -13.792 -42.029  1.00  0.00    -0.277 N 
HETATM    3  H   UNL     1      -6.262 -13.897 -42.906  1.00  0.00     0.189 HD
HETATM    4  N   UNL     1      -4.421 -13.880 -42.044  1.00  0.00    -0.178 NA
HETATM    5  C   UNL     1      -4.091 -13.684 -40.767  1.00  0.00     0.066 A 
HETATM    6  C   UNL     1      -5.214 -13.466 -39.939  1.00  0.00     0.015 A 
HETATM    7  C   UNL     1      -5.129 -13.227 -38.473  1.00  0.00     0.169 C 
HETATM    8  N   UNL     1      -3.740 -13.391 -38.001  1.00  0.00    -0.343 N 
HETATM    9  C   UNL     1      -3.394 -13.872 -36.742  1.00  0.00     0.254 C 
HETATM   10  O   UNL     1      -2.239 -14.096 -36.390  1.00  0.00    -0.267 OA
HETATM   11  C   UNL     1      -2.661 -12.956 -38.909  1.00  0.00     0.132 C 
HETATM   12  C   UNL     1      -2.699 -13.701 -40.253  1.00  0.00     0.081 C 
ENDROOT
BRANCH   9  13
HETATM   13  C   UNL     1      -4.464 -14.148 -35.758  1.00  0.00     0.035 A 
HETATM   14  C   UNL     1      -5.067 -15.411 -35.698  1.00  0.00     0.056 A 
HETATM   15  C   UNL     1      -6.046 -15.594 -34.745  1.00  0.00     0.106 A 
HETATM   16  C   UNL     1      -6.443 -14.580 -33.903  1.00  0.00     0.105 A 
HETATM   17  O   UNL     1      -6.723 -16.752 -34.517  1.00  0.00    -0.323 OA
HETATM   18  O   UNL     1      -7.418 -14.975 -33.041  1.00  0.00    -0.323 OA
HETATM   19  C   UNL     1      -5.889 -13.318 -33.967  1.00  0.00     0.041 A 
HETATM   20  C   UNL     1      -7.585 -16.354 -33.430  1.00  0.00     0.352 A 
HETATM   21  C   UNL     1      -4.885 -13.100 -34.914  1.00  0.00     0.020 A 
ENDBRANCH   9  13
BRANCH   1  22
HETATM   22  C   UNL     1      -7.734 -13.399 -40.552  1.00  0.00    -0.007 A 
HETATM   23  C   UNL     1      -8.585 -14.509 -40.630  1.00  0.00     0.014 A 
HETATM   24  C   UNL     1      -9.956 -14.369 -40.397  1.00  0.00     0.001 A 
HETATM   25  C   UNL     1     -10.486 -13.119 -40.084  1.00  0.00     0.000 A 
HETATM   26  C   UNL     1      -9.649 -12.009 -40.006  1.00  0.00     0.001 A 
HETATM   27  C   UNL     1      -8.279 -12.148 -40.239  1.00  0.00     0.014 A 
ENDBRANCH   1  22
TORSDOF 2
ENDMDL
MODEL 8
REMARK VINA RESULT:      -8.3     14.199     15.987
REMARK  2 active torsions:
REMARK  status: ('A' for Active; 'I' for Inactive)
REMARK    1  A    between atoms: C_4  and  C_5 
REMARK       I    between atoms: N_12  and  C_13 
REMARK    2  A    between atoms: C_13  and  C_14 
ROOT
HETATM    1  C   UNL     1      -2.900 -14.704 -40.209  1.00  0.00     0.070 A 
HETATM    2  N   UNL     1      -1.650 -15.045 -39.749  1.00  0.00    -0.277 N 
HETATM    3  H   UNL     1      -0.877 -15.422 -40.287  1.00  0.00     0.189 HD
HETATM    4  N   UNL     1      -1.461 -14.820 -38.435  1.00  0.00    -0.178 NA
HETATM    5  C   UNL     1      -2.633 -14.321 -38.042  1.00  0.00     0.066 A 
HETATM    6  C   UNL     1      -3.567 -14.221 -39.097  1.00  0.00     0.015 A 
HETATM    7  C   UNL     1      -4.952 -13.705 -38.933  1.00  0.00     0.169 C 
HETATM    8  N   UNL     1      -5.245 -13.452 -37.508  1.00  0.00    -0.343 N 
HETATM    9  C   UNL     1      -6.503 -13.600 -36.931  1.00  0.00     0.254 C 
HETATM   10  O   UNL     1      -6.720 -13.481 -35.728  1.00  0.00    -0.267 OA
HETATM   11  C   UNL     1      -4.139 -12.953 -36.669  1.00  0.00     0.132 C 
HETATM   12  C   UNL     1      -2.944 -13.921 -36.647  1.00  0.00     0.081 C 
ENDROOT
BRANCH   9  13
HETATM   13  C   UNL     1      -7.656 -13.931 -37.796  1.00  0.00     0.035 A 
HETATM   14  C   UNL     1      -8.405 -12.917 -38.405  1.00  0.00     0.056 A 
HETATM   15  C   UNL     1      -9.456 -13.307 -39.208  1.00  0.00     0.106 A 
HETATM   16  C   UNL     1      -9.783 -14.632 -39.387  1.00  0.00     0.105 A 
HETATM   17  O   UNL     1     -10.275 -12.472 -39.902  1.00  0.00    -0.323 OA
HETATM   18  O   UNL     1     -10.848 -14.794 -40.217  1.00  0.00    -0.323 OA
HETATM   19  C   UNL     1      -9.082 -15.648 -38.769  1.00  0.00     0.041 A 
HETATM   20  C   UNL     1     -11.151 -13.423 -40.545  1.00  0.00     0.352 A 
HETATM   21  C   UNL     1      -8.004 -15.289 -37.957  1.00  0.00     0.020 A 
ENDBRANCH   9  13
BRANCH   1  22
HETATM   22  C   UNL     1      -3.308 -14.855 -41.600  1.00  0.00    -0.007 A 
HETATM   23  C   UNL     1      -2.588 -15.687 -42.468  1.00  0.00     0.014 A 
HETATM   24  C   UNL     1      -2.987 -15.835 -43.800  1.00  0.00     0.001 A 
HETATM   25  C   UNL     1      -4.106 -15.154 -44.274  1.00  0.00     0.000 A 
HETATM   26  C   UNL     1      -4.827 -14.323 -43.419  1.00  0.00     0.001 A 
HETATM   27  C   UNL     1      -4.430 -14.175 -42.088  1.00  0.00     0.014 A 
ENDBRANCH   1  22
TORSDOF 2
ENDMDL
MODEL 9
REMARK VINA RESULT:      -8.3      2.790      6.406
REMARK  2 active torsions:
REMARK  status: ('A' for Active; 'I' for Inactive)
REMARK    1  A    between atoms: C_4  and  C_5 
REMARK       I    between atoms: N_12  and  C_13 
REMARK    2  A    between atoms: C_13  and  C_14 
ROOT
HETATM    1  C   UNL     1      -8.767   3.323 -33.408  1.00  0.00     0.070 A 
HETATM    2  N   UNL     1      -8.688   4.695 -33.416  1.00  0.00    -0.277 N 
HETATM    3  H   UNL     1      -9.418   5.353 -33.662  1.00  0.00     0.189 HD
HETATM    4  N   UNL     1      -7.495   5.184 -33.025  1.00  0.00    -0.178 NA
HETATM    5  C   UNL     1      -6.788   4.084 -32.763  1.00  0.00     0.066 A 
HETATM    6  C   UNL     1      -7.523   2.897 -32.979  1.00  0.00     0.015 A 
HETATM    7  C   UNL     1      -6.972   1.532 -32.770  1.00  0.00     0.169 C 
HETATM    8  N   UNL     1      -5.533   1.597 -32.449  1.00  0.00    -0.343 N 
HETATM    9  C   UNL     1      -4.605   0.626 -32.815  1.00  0.00     0.254 C 
HETATM   10  O   UNL     1      -3.396   0.732 -32.629  1.00  0.00    -0.267 OA
HETATM   11  C   UNL     1      -5.073   2.739 -31.635  1.00  0.00     0.132 C 
HETATM   12  C   UNL     1      -5.377   4.089 -32.306  1.00  0.00     0.081 C 
ENDROOT
BRANCH   9  13
HETATM   13  C   UNL     1      -5.080  -0.608 -33.480  1.00  0.00     0.035 A 
HETATM   14  C   UNL     1      -4.364  -1.805 -33.355  1.00  0.00     0.056 A 
HETATM   15  C   UNL     1      -4.879  -2.913 -33.992  1.00  0.00     0.106 A 
HETATM   16  C   UNL     1      -6.030  -2.853 -34.744  1.00  0.00     0.105 A 
HETATM   17  O   UNL     1      -4.343  -4.164 -33.963  1.00  0.00    -0.323 OA
HETATM   18  O   UNL     1      -6.361  -4.058 -35.281  1.00  0.00    -0.323 OA
HETATM   19  C   UNL     1      -6.733  -1.678 -34.910  1.00  0.00     0.041 A 
HETATM   20  C   UNL     1      -5.292  -4.885 -34.777  1.00  0.00     0.352 A 
HETATM   21  C   UNL     1      -6.246  -0.536 -34.270  1.00  0.00     0.020 A 
ENDBRANCH   9  13
BRANCH   1  22
HETATM   22  C   UNL     1      -9.971   2.590 -33.784  1.00  0.00    -0.007 A 
HETATM   23  C   UNL     1     -10.311   1.396 -33.135  1.00  0.00     0.014 A 
HETATM   24  C   UNL     1     -11.469   0.701 -33.493  1.00  0.00     0.001 A 
HETATM   25  C   UNL     1     -12.295   1.192 -34.502  1.00  0.00     0.000 A 
HETATM   26  C   UNL     1     -11.965   2.378 -35.155  1.00  0.00     0.001 A 
HETATM   27  C   UNL     1     -10.808   3.074 -34.797  1.00  0.00     0.014 A 
ENDBRANCH   1  22
TORSDOF 2
ENDMDL
MODEL 10
REMARK VINA RESULT:      -8.2      3.762      7.423
REMARK  2 active torsions:
REMARK  status: ('A' for Active; 'I' for Inactive)
REMARK    1  A    between atoms: C_4  and  C_5 
REMARK       I    between atoms: N_12  and  C_13 
REMARK    2  A    between atoms: C_13  and  C_14 
ROOT
HETATM    1  C   UNL     1      -8.704   2.329 -32.722  1.00  0.00     0.070 A 
HETATM    2  N   UNL     1      -9.551   1.408 -32.152  1.00  0.00    -0.277 N 
HETATM    3  H   UNL     1     -10.564   1.420 -32.153  1.00  0.00     0.189 HD
HETATM    4  N   UNL     1      -8.926   0.375 -31.554  1.00  0.00    -0.178 NA
HETATM    5  C   UNL     1      -7.636   0.650 -31.745  1.00  0.00     0.066 A 
HETATM    6  C   UNL     1      -7.433   1.848 -32.466  1.00  0.00     0.015 A 
HETATM    7  C   UNL     1      -6.091   2.391 -32.810  1.00  0.00     0.169 C 
HETATM    8  N   UNL     1      -5.028   1.585 -32.177  1.00  0.00    -0.343 N 
HETATM    9  C   UNL     1      -3.812   2.101 -31.740  1.00  0.00     0.254 C 
HETATM   10  O   UNL     1      -2.973   1.446 -31.128  1.00  0.00    -0.267 OA
HETATM   11  C   UNL     1      -5.258   0.132 -32.064  1.00  0.00     0.132 C 
HETATM   12  C   UNL     1      -6.521  -0.194 -31.249  1.00  0.00     0.081 C 
ENDROOT
BRANCH   9  13
HETATM   13  C   UNL     1      -3.497   3.523 -32.004  1.00  0.00     0.035 A 
HETATM   14  C   UNL     1      -2.682   3.883 -33.084  1.00  0.00     0.056 A 
HETATM   15  C   UNL     1      -2.447   5.228 -33.272  1.00  0.00     0.106 A 
HETATM   16  C   UNL     1      -2.963   6.184 -32.426  1.00  0.00     0.105 A 
HETATM   17  O   UNL     1      -1.707   5.770 -34.278  1.00  0.00    -0.323 OA
HETATM   18  O   UNL     1      -2.611   7.445 -32.795  1.00  0.00    -0.323 OA
HETATM   19  C   UNL     1      -3.739   5.851 -31.335  1.00  0.00     0.041 A 
HETATM   20  C   UNL     1      -1.822   7.176 -33.972  1.00  0.00     0.352 A 
HETATM   21  C   UNL     1      -4.006   4.497 -31.121  1.00  0.00     0.020 A 
ENDBRANCH   9  13
BRANCH   1  22
HETATM   22  C   UNL     1      -9.172   3.514 -33.429  1.00  0.00    -0.007 A 
HETATM   23  C   UNL     1      -8.753   4.792 -33.037  1.00  0.00     0.014 A 
HETATM   24  C   UNL     1      -9.199   5.926 -33.722  1.00  0.00     0.001 A 
HETATM   25  C   UNL     1     -10.067   5.791 -34.803  1.00  0.00     0.000 A 
HETATM   26  C   UNL     1     -10.491   4.525 -35.201  1.00  0.00     0.001 A 
HETATM   27  C   UNL     1     -10.046   3.392 -34.517  1.00  0.00     0.014 A 
ENDBRANCH   1  22
TORSDOF 2
ENDMDL
