MODEL 1
REMARK VINA RESULT:      -8.7      0.000      0.000
REMARK  4 active torsions:
REMARK  status: ('A' for Active; 'I' for Inactive)
REMARK    1  A    between atoms: N_2  and  C_3 
REMARK    2  A    between atoms: C_5  and  C_6 
REMARK    3  A    between atoms: C_6  and  C_7 
REMARK    4  A    between atoms: C_14  and  O_15 
ROOT
HETATM    1  C   UNL     1      -2.381   4.875 -33.458  1.00  0.00     0.113 A 
HETATM    2  N   UNL     1      -3.101   3.854 -32.954  1.00  0.00    -0.223 NA
HETATM    3  C   UNL     1      -2.888   3.474 -31.665  1.00  0.00     0.106 A 
HETATM    4  N   UNL     1      -1.986   4.064 -30.865  1.00  0.00    -0.347 N 
HETATM    5  H   UNL     1      -1.848   3.741 -29.912  1.00  0.00     0.167 HD
HETATM    6  C   UNL     1      -1.289   5.087 -31.353  1.00  0.00     0.020 A 
HETATM    7  C   UNL     1      -1.472   5.525 -32.653  1.00  0.00     0.005 A 
HETATM    8  C   UNL     1      -0.567   6.678 -32.948  1.00  0.00     0.044 C 
HETATM    9  C   UNL     1      -0.172   7.122 -31.527  1.00  0.00     0.011 C 
HETATM   10  C   UNL     1      -0.240   5.873 -30.634  1.00  0.00     0.058 C 
ENDROOT
BRANCH   3  11
HETATM   11  C   UNL     1      -3.690   2.318 -31.134  1.00  0.00     0.085 C 
BRANCH  11  12
HETATM   12  C   UNL     1      -3.788   1.155 -32.128  1.00  0.00     0.021 C 
HETATM   13  C   UNL     1      -5.200   0.953 -32.687  1.00  0.00     0.181 C 
HETATM   14  O   UNL     1      -5.202  -0.033 -33.723  1.00  0.00    -0.350 OA
HETATM   15  C   UNL     1      -4.611  -1.220 -33.373  1.00  0.00     0.077 A 
HETATM   16  C   UNL     1      -3.715  -1.339 -32.306  1.00  0.00    -0.024 A 
HETATM   17  C   UNL     1      -4.922  -2.322 -34.175  1.00  0.00     0.074 A 
HETATM   18  C   UNL     1      -3.367  -0.156 -31.451  1.00  0.00     0.048 C 
HETATM   19  C   UNL     1      -3.168  -2.594 -32.020  1.00  0.00     0.012 A 
HETATM   20  C   UNL     1      -3.494  -3.698 -32.810  1.00  0.00     0.037 A 
HETATM   21  C   UNL     1      -4.368  -3.569 -33.892  1.00  0.00     0.070 A 
BRANCH  21  22
HETATM   22  O   UNL     1      -4.595  -4.727 -34.581  1.00  0.00    -0.356 OA
HETATM   23  C   UNL     1      -5.877  -4.884 -35.178  1.00  0.00     0.210 C 
ENDBRANCH  21  22
ENDBRANCH  11  12
ENDBRANCH   3  11
BRANCH   1  24
HETATM   24  N   UNL     1      -2.613   5.335 -34.749  1.00  0.00    -0.281 NA
HETATM   25  C   UNL     1      -3.940   5.086 -35.295  1.00  0.00     0.114 C 
HETATM   26  H   UNL     1      -1.883   5.046 -35.396  1.00  0.00     0.128 HD
ENDBRANCH   1  24
TORSDOF 4
ENDMDL
MODEL 2
REMARK VINA RESULT:      -8.0      1.589      2.777
REMARK  4 active torsions:
REMARK  status: ('A' for Active; 'I' for Inactive)
REMARK    1  A    between atoms: N_2  and  C_3 
REMARK    2  A    between atoms: C_5  and  C_6 
REMARK    3  A    between atoms: C_6  and  C_7 
REMARK    4  A    between atoms: C_14  and  O_15 
ROOT
HETATM    1  C   UNL     1      -2.534   5.331 -31.309  1.00  0.00     0.113 A 
HETATM    2  N   UNL     1      -3.603   4.570 -31.003  1.00  0.00    -0.223 NA
HETATM    3  C   UNL     1      -4.326   4.018 -32.014  1.00  0.00     0.106 A 
HETATM    4  N   UNL     1      -4.031   4.198 -33.311  1.00  0.00    -0.347 N 
HETATM    5  H   UNL     1      -4.605   3.779 -34.037  1.00  0.00     0.167 HD
HETATM    6  C   UNL     1      -2.963   4.931 -33.615  1.00  0.00     0.020 A 
HETATM    7  C   UNL     1      -2.183   5.507 -32.628  1.00  0.00     0.005 A 
HETATM    8  C   UNL     1      -1.055   6.276 -33.236  1.00  0.00     0.044 C 
HETATM    9  C   UNL     1      -1.033   5.700 -34.664  1.00  0.00     0.011 C 
HETATM   10  C   UNL     1      -2.467   5.254 -34.988  1.00  0.00     0.058 C 
ENDROOT
BRANCH   3  11
HETATM   11  C   UNL     1      -5.527   3.191 -31.646  1.00  0.00     0.085 C 
BRANCH  11  12
HETATM   12  C   UNL     1      -5.812   2.074 -32.656  1.00  0.00     0.021 C 
HETATM   13  C   UNL     1      -7.247   1.542 -32.584  1.00  0.00     0.181 C 
HETATM   14  O   UNL     1      -7.504   0.621 -33.646  1.00  0.00    -0.350 OA
HETATM   15  C   UNL     1      -6.585  -0.390 -33.752  1.00  0.00     0.077 A 
HETATM   16  C   UNL     1      -5.304  -0.316 -33.196  1.00  0.00    -0.024 A 
HETATM   17  C   UNL     1      -6.982  -1.508 -34.490  1.00  0.00     0.074 A 
HETATM   18  C   UNL     1      -4.868   0.888 -32.414  1.00  0.00     0.048 C 
HETATM   19  C   UNL     1      -4.436  -1.402 -33.349  1.00  0.00     0.012 A 
HETATM   20  C   UNL     1      -4.841  -2.527 -34.071  1.00  0.00     0.037 A 
HETATM   21  C   UNL     1      -6.112  -2.586 -34.648  1.00  0.00     0.070 A 
BRANCH  21  22
HETATM   22  O   UNL     1      -6.373  -3.741 -35.330  1.00  0.00    -0.356 OA
HETATM   23  C   UNL     1      -5.705  -4.917 -34.892  1.00  0.00     0.210 C 
ENDBRANCH  21  22
ENDBRANCH  11  12
ENDBRANCH   3  11
BRANCH   1  24
HETATM   24  N   UNL     1      -1.732   5.861 -30.304  1.00  0.00    -0.281 NA
HETATM   25  C   UNL     1      -2.278   6.996 -29.573  1.00  0.00     0.114 C 
HETATM   26  H   UNL     1      -0.785   6.044 -30.626  1.00  0.00     0.128 HD
ENDBRANCH   1  24
TORSDOF 4
ENDMDL
MODEL 3
REMARK VINA RESULT:      -7.9      5.852      8.338
REMARK  4 active torsions:
REMARK  status: ('A' for Active; 'I' for Inactive)
REMARK    1  A    between atoms: N_2  and  C_3 
REMARK    2  A    between atoms: C_5  and  C_6 
REMARK    3  A    between atoms: C_6  and  C_7 
REMARK    4  A    between atoms: C_14  and  O_15 
ROOT
HETATM    1  C   UNL     1     -12.463   3.251 -34.266  1.00  0.00     0.113 A 
HETATM    2  N   UNL     1     -11.134   3.432 -34.399  1.00  0.00    -0.223 NA
HETATM    3  C   UNL     1     -10.306   2.367 -34.221  1.00  0.00     0.106 A 
HETATM    4  N   UNL     1     -10.748   1.137 -33.912  1.00  0.00    -0.347 N 
HETATM    5  H   UNL     1     -10.095   0.371 -33.774  1.00  0.00     0.167 HD
HETATM    6  C   UNL     1     -12.061   0.951 -33.803  1.00  0.00     0.020 A 
HETATM    7  C   UNL     1     -12.951   1.995 -33.985  1.00  0.00     0.005 A 
HETATM    8  C   UNL     1     -14.357   1.521 -33.803  1.00  0.00     0.044 C 
HETATM    9  C   UNL     1     -14.179  -0.004 -33.934  1.00  0.00     0.011 C 
HETATM   10  C   UNL     1     -12.753  -0.330 -33.464  1.00  0.00     0.058 C 
ENDROOT
BRANCH   3  11
HETATM   11  C   UNL     1      -8.827   2.600 -34.352  1.00  0.00     0.085 C 
BRANCH  11  12
HETATM   12  C   UNL     1      -7.990   1.461 -33.759  1.00  0.00     0.021 C 
HETATM   13  C   UNL     1      -6.688   1.939 -33.109  1.00  0.00     0.181 C 
HETATM   14  O   UNL     1      -6.029   0.865 -32.435  1.00  0.00    -0.350 OA
HETATM   15  C   UNL     1      -5.839  -0.253 -33.205  1.00  0.00     0.077 A 
HETATM   16  C   UNL     1      -6.576  -0.513 -34.365  1.00  0.00    -0.024 A 
HETATM   17  C   UNL     1      -4.881  -1.161 -32.746  1.00  0.00     0.074 A 
HETATM   18  C   UNL     1      -7.616   0.453 -34.853  1.00  0.00     0.048 C 
HETATM   19  C   UNL     1      -6.307  -1.677 -35.091  1.00  0.00     0.012 A 
HETATM   20  C   UNL     1      -5.336  -2.575 -34.641  1.00  0.00     0.037 A 
HETATM   21  C   UNL     1      -4.621  -2.325 -33.468  1.00  0.00     0.070 A 
BRANCH  21  22
HETATM   22  O   UNL     1      -3.707  -3.288 -33.143  1.00  0.00    -0.356 OA
HETATM   23  C   UNL     1      -3.034  -3.147 -31.897  1.00  0.00     0.210 C 
ENDBRANCH  21  22
ENDBRANCH  11  12
ENDBRANCH   3  11
BRANCH   1  24
HETATM   24  N   UNL     1     -13.345   4.299 -34.502  1.00  0.00    -0.281 NA
HETATM   25  C   UNL     1     -13.522   5.252 -33.416  1.00  0.00     0.114 C 
HETATM   26  H   UNL     1     -14.239   3.973 -34.862  1.00  0.00     0.128 HD
ENDBRANCH   1  24
TORSDOF 4
ENDMDL
MODEL 4
REMARK VINA RESULT:      -7.7      3.212      8.005
REMARK  4 active torsions:
REMARK  status: ('A' for Active; 'I' for Inactive)
REMARK    1  A    between atoms: N_2  and  C_3 
REMARK    2  A    between atoms: C_5  and  C_6 
REMARK    3  A    between atoms: C_6  and  C_7 
REMARK    4  A    between atoms: C_14  and  O_15 
ROOT
HETATM    1  C   UNL     1      -4.398  -1.708 -32.671  1.00  0.00     0.113 A 
HETATM    2  N   UNL     1      -5.105  -0.697 -32.126  1.00  0.00    -0.223 NA
HETATM    3  C   UNL     1      -6.373  -0.473 -32.564  1.00  0.00     0.106 A 
HETATM    4  N   UNL     1      -6.959  -1.208 -33.522  1.00  0.00    -0.347 N 
HETATM    5  H   UNL     1      -7.904  -0.999 -33.832  1.00  0.00     0.167 HD
HETATM    6  C   UNL     1      -6.272  -2.219 -34.046  1.00  0.00     0.020 A 
HETATM    7  C   UNL     1      -4.982  -2.502 -33.631  1.00  0.00     0.005 A 
HETATM    8  C   UNL     1      -4.439  -3.678 -34.377  1.00  0.00     0.044 C 
HETATM    9  C   UNL     1      -5.730  -4.298 -34.943  1.00  0.00     0.011 C 
HETATM   10  C   UNL     1      -6.737  -3.150 -35.120  1.00  0.00     0.058 C 
ENDROOT
BRANCH   3  11
HETATM   11  C   UNL     1      -7.131   0.673 -31.956  1.00  0.00     0.085 C 
BRANCH  11  12
HETATM   12  C   UNL     1      -6.569   2.041 -32.361  1.00  0.00     0.021 C 
HETATM   13  C   UNL     1      -6.819   2.389 -33.831  1.00  0.00     0.181 C 
HETATM   14  O   UNL     1      -6.420   3.733 -34.113  1.00  0.00    -0.350 OA
HETATM   15  C   UNL     1      -5.141   4.035 -33.722  1.00  0.00     0.077 A 
HETATM   16  C   UNL     1      -4.440   3.290 -32.768  1.00  0.00    -0.024 A 
HETATM   17  C   UNL     1      -4.571   5.170 -34.305  1.00  0.00     0.074 A 
HETATM   18  C   UNL     1      -5.052   2.079 -32.129  1.00  0.00     0.048 C 
HETATM   19  C   UNL     1      -3.135   3.671 -32.438  1.00  0.00     0.012 A 
HETATM   20  C   UNL     1      -2.560   4.795 -33.036  1.00  0.00     0.037 A 
HETATM   21  C   UNL     1      -3.274   5.552 -33.968  1.00  0.00     0.070 A 
BRANCH  21  22
HETATM   22  O   UNL     1      -2.593   6.626 -34.469  1.00  0.00    -0.356 OA
HETATM   23  C   UNL     1      -1.862   7.418 -33.540  1.00  0.00     0.210 C 
ENDBRANCH  21  22
ENDBRANCH  11  12
ENDBRANCH   3  11
BRANCH   1  24
HETATM   24  N   UNL     1      -3.123  -2.009 -32.206  1.00  0.00    -0.281 NA
HETATM   25  C   UNL     1      -2.337  -0.891 -31.702  1.00  0.00     0.114 C 
HETATM   26  H   UNL     1      -2.594  -2.566 -32.872  1.00  0.00     0.128 HD
ENDBRANCH   1  24
TORSDOF 4
ENDMDL
MODEL 5
REMARK VINA RESULT:      -7.6      1.851      2.460
REMARK  4 active torsions:
REMARK  status: ('A' for Active; 'I' for Inactive)
REMARK    1  A    between atoms: N_2  and  C_3 
REMARK    2  A    between atoms: C_5  and  C_6 
REMARK    3  A    between atoms: C_6  and  C_7 
REMARK    4  A    between atoms: C_14  and  O_15 
ROOT
HETATM    1  C   UNL     1      -4.910   5.197 -32.749  1.00  0.00     0.113 A 
HETATM    2  N   UNL     1      -5.373   4.250 -31.908  1.00  0.00    -0.223 NA
HETATM    3  C   UNL     1      -4.481   3.524 -31.182  1.00  0.00     0.106 A 
HETATM    4  N   UNL     1      -3.152   3.699 -31.265  1.00  0.00    -0.347 N 
HETATM    5  H   UNL     1      -2.518   3.126 -30.715  1.00  0.00     0.167 HD
HETATM    6  C   UNL     1      -2.693   4.647 -32.078  1.00  0.00     0.020 A 
HETATM    7  C   UNL     1      -3.555   5.425 -32.831  1.00  0.00     0.005 A 
HETATM    8  C   UNL     1      -2.787   6.406 -33.657  1.00  0.00     0.044 C 
HETATM    9  C   UNL     1      -1.419   6.389 -32.949  1.00  0.00     0.011 C 
HETATM   10  C   UNL     1      -1.260   4.997 -32.317  1.00  0.00     0.058 C 
ENDROOT
BRANCH   3  11
HETATM   11  C   UNL     1      -5.022   2.461 -30.268  1.00  0.00     0.085 C 
BRANCH  11  12
HETATM   12  C   UNL     1      -5.072   1.078 -30.929  1.00  0.00     0.021 C 
HETATM   13  C   UNL     1      -3.688   0.519 -31.273  1.00  0.00     0.181 C 
HETATM   14  O   UNL     1      -3.783  -0.831 -31.735  1.00  0.00    -0.350 OA
HETATM   15  C   UNL     1      -4.682  -1.016 -32.753  1.00  0.00     0.077 A 
HETATM   16  C   UNL     1      -5.715  -0.116 -33.032  1.00  0.00    -0.024 A 
HETATM   17  C   UNL     1      -4.539  -2.194 -33.493  1.00  0.00     0.074 A 
HETATM   18  C   UNL     1      -5.881   1.142 -32.231  1.00  0.00     0.048 C 
HETATM   19  C   UNL     1      -6.579  -0.386 -34.097  1.00  0.00     0.012 A 
HETATM   20  C   UNL     1      -6.423  -1.554 -34.848  1.00  0.00     0.037 A 
HETATM   21  C   UNL     1      -5.408  -2.464 -34.549  1.00  0.00     0.070 A 
BRANCH  21  22
HETATM   22  O   UNL     1      -5.374  -3.565 -35.359  1.00  0.00    -0.356 OA
HETATM   23  C   UNL     1      -6.516  -4.414 -35.344  1.00  0.00     0.210 C 
ENDBRANCH  21  22
ENDBRANCH  11  12
ENDBRANCH   3  11
BRANCH   1  24
HETATM   24  N   UNL     1      -5.791   6.003 -33.460  1.00  0.00    -0.281 NA
HETATM   25  C   UNL     1      -7.069   6.285 -32.821  1.00  0.00     0.114 C 
HETATM   26  H   UNL     1      -5.915   5.683 -34.418  1.00  0.00     0.128 HD
ENDBRANCH   1  24
TORSDOF 4
ENDMDL
MODEL 6
REMARK VINA RESULT:      -7.5      5.335      8.920
REMARK  4 active torsions:
REMARK  status: ('A' for Active; 'I' for Inactive)
REMARK    1  A    between atoms: N_2  and  C_3 
REMARK    2  A    between atoms: C_5  and  C_6 
REMARK    3  A    between atoms: C_6  and  C_7 
REMARK    4  A    between atoms: C_14  and  O_15 
ROOT
HETATM    1  C   UNL     1      -4.720  -0.966 -33.239  1.00  0.00     0.113 A 
HETATM    2  N   UNL     1      -5.631  -0.148 -32.675  1.00  0.00    -0.223 NA
HETATM    3  C   UNL     1      -6.952  -0.430 -32.834  1.00  0.00     0.106 A 
HETATM    4  N   UNL     1      -7.399  -1.484 -33.535  1.00  0.00    -0.347 N 
HETATM    5  H   UNL     1      -8.395  -1.652 -33.642  1.00  0.00     0.167 HD
HETATM    6  C   UNL     1      -6.501  -2.305 -34.074  1.00  0.00     0.020 A 
HETATM    7  C   UNL     1      -5.144  -2.075 -33.935  1.00  0.00     0.005 A 
HETATM    8  C   UNL     1      -4.359  -3.137 -34.635  1.00  0.00     0.044 C 
HETATM    9  C   UNL     1      -5.427  -4.234 -34.809  1.00  0.00     0.011 C 
HETATM   10  C   UNL     1      -6.787  -3.525 -34.889  1.00  0.00     0.058 C 
ENDROOT
BRANCH   3  11
HETATM   11  C   UNL     1      -7.948   0.510 -32.214  1.00  0.00     0.085 C 
BRANCH  11  12
HETATM   12  C   UNL     1      -8.610   1.438 -33.239  1.00  0.00     0.021 C 
HETATM   13  C   UNL     1      -8.386   2.924 -32.944  1.00  0.00     0.181 C 
HETATM   14  O   UNL     1      -8.883   3.737 -34.011  1.00  0.00    -0.350 OA
HETATM   15  C   UNL     1     -10.181   3.471 -34.364  1.00  0.00     0.077 A 
HETATM   16  C   UNL     1     -10.825   2.270 -34.051  1.00  0.00    -0.024 A 
HETATM   17  C   UNL     1     -10.832   4.463 -35.103  1.00  0.00     0.074 A 
HETATM   18  C   UNL     1     -10.125   1.197 -33.271  1.00  0.00     0.048 C 
HETATM   19  C   UNL     1     -12.154   2.093 -34.448  1.00  0.00     0.012 A 
HETATM   20  C   UNL     1     -12.810   3.092 -35.169  1.00  0.00     0.037 A 
HETATM   21  C   UNL     1     -12.154   4.279 -35.504  1.00  0.00     0.070 A 
BRANCH  21  22
HETATM   22  O   UNL     1     -12.912   5.167 -36.216  1.00  0.00    -0.356 OA
HETATM   23  C   UNL     1     -13.563   6.196 -35.481  1.00  0.00     0.210 C 
ENDBRANCH  21  22
ENDBRANCH  11  12
ENDBRANCH   3  11
BRANCH   1  24
HETATM   24  N   UNL     1      -3.360  -0.748 -33.047  1.00  0.00    -0.281 NA
HETATM   25  C   UNL     1      -2.895  -0.747 -31.667  1.00  0.00     0.114 C 
HETATM   26  H   UNL     1      -3.027   0.068 -33.554  1.00  0.00     0.128 HD
ENDBRANCH   1  24
TORSDOF 4
ENDMDL
MODEL 7
REMARK VINA RESULT:      -7.5      6.279      8.437
REMARK  4 active torsions:
REMARK  status: ('A' for Active; 'I' for Inactive)
REMARK    1  A    between atoms: N_2  and  C_3 
REMARK    2  A    between atoms: C_5  and  C_6 
REMARK    3  A    between atoms: C_6  and  C_7 
REMARK    4  A    between atoms: C_14  and  O_15 
ROOT
HETATM    1  C   UNL     1     -12.971   1.727 -33.237  1.00  0.00     0.113 A 
HETATM    2  N   UNL     1     -11.805   1.639 -33.907  1.00  0.00    -0.223 NA
HETATM    3  C   UNL     1     -10.943   2.690 -33.866  1.00  0.00     0.106 A 
HETATM    4  N   UNL     1     -11.198   3.822 -33.191  1.00  0.00    -0.347 N 
HETATM    5  H   UNL     1     -10.533   4.591 -33.197  1.00  0.00     0.167 HD
HETATM    6  C   UNL     1     -12.339   3.904 -32.512  1.00  0.00     0.020 A 
HETATM    7  C   UNL     1     -13.248   2.861 -32.508  1.00  0.00     0.005 A 
HETATM    8  C   UNL     1     -14.439   3.210 -31.674  1.00  0.00     0.044 C 
HETATM    9  C   UNL     1     -13.895   4.393 -30.851  1.00  0.00     0.011 C 
HETATM   10  C   UNL     1     -12.812   5.070 -31.705  1.00  0.00     0.058 C 
ENDROOT
BRANCH   3  11
HETATM   11  C   UNL     1      -9.659   2.574 -34.639  1.00  0.00     0.085 C 
BRANCH  11  12
HETATM   12  C   UNL     1      -8.641   1.645 -33.968  1.00  0.00     0.021 C 
HETATM   13  C   UNL     1      -7.325   2.343 -33.612  1.00  0.00     0.181 C 
HETATM   14  O   UNL     1      -6.479   1.480 -32.849  1.00  0.00    -0.350 OA
HETATM   15  C   UNL     1      -6.273   0.248 -33.415  1.00  0.00     0.077 A 
HETATM   16  C   UNL     1      -7.118  -0.295 -34.388  1.00  0.00    -0.024 A 
HETATM   17  C   UNL     1      -5.176  -0.474 -32.935  1.00  0.00     0.074 A 
HETATM   18  C   UNL     1      -8.304   0.470 -34.896  1.00  0.00     0.048 C 
HETATM   19  C   UNL     1      -6.822  -1.556 -34.913  1.00  0.00     0.012 A 
HETATM   20  C   UNL     1      -5.714  -2.268 -34.447  1.00  0.00     0.037 A 
HETATM   21  C   UNL     1      -4.889  -1.735 -33.455  1.00  0.00     0.070 A 
BRANCH  21  22
HETATM   22  O   UNL     1      -3.847  -2.539 -33.088  1.00  0.00    -0.356 OA
HETATM   23  C   UNL     1      -3.125  -2.171 -31.919  1.00  0.00     0.210 C 
ENDBRANCH  21  22
ENDBRANCH  11  12
ENDBRANCH   3  11
BRANCH   1  24
HETATM   24  N   UNL     1     -13.851   0.651 -33.203  1.00  0.00    -0.281 NA
HETATM   25  C   UNL     1     -14.867   0.613 -34.245  1.00  0.00     0.114 C 
HETATM   26  H   UNL     1     -14.257   0.518 -32.280  1.00  0.00     0.128 HD
ENDBRANCH   1  24
TORSDOF 4
ENDMDL
MODEL 8
REMARK VINA RESULT:      -7.4      4.556      8.634
REMARK  4 active torsions:
REMARK  status: ('A' for Active; 'I' for Inactive)
REMARK    1  A    between atoms: N_2  and  C_3 
REMARK    2  A    between atoms: C_5  and  C_6 
REMARK    3  A    between atoms: C_6  and  C_7 
REMARK    4  A    between atoms: C_14  and  O_15 
ROOT
HETATM    1  C   UNL     1      -4.150  -1.723 -33.213  1.00  0.00     0.113 A 
HETATM    2  N   UNL     1      -4.886  -0.613 -33.422  1.00  0.00    -0.223 NA
HETATM    3  C   UNL     1      -5.939  -0.676 -34.280  1.00  0.00     0.106 A 
HETATM    4  N   UNL     1      -6.282  -1.793 -34.940  1.00  0.00    -0.347 N 
HETATM    5  H   UNL     1      -7.068  -1.795 -35.585  1.00  0.00     0.167 HD
HETATM    6  C   UNL     1      -5.572  -2.896 -34.720  1.00  0.00     0.020 A 
HETATM    7  C   UNL     1      -4.497  -2.894 -33.847  1.00  0.00     0.005 A 
HETATM    8  C   UNL     1      -3.873  -4.251 -33.785  1.00  0.00     0.044 C 
HETATM    9  C   UNL     1      -4.992  -5.125 -34.384  1.00  0.00     0.011 C 
HETATM   10  C   UNL     1      -5.784  -4.233 -35.352  1.00  0.00     0.058 C 
ENDROOT
BRANCH   3  11
HETATM   11  C   UNL     1      -6.729   0.582 -34.512  1.00  0.00     0.085 C 
BRANCH  11  12
HETATM   12  C   UNL     1      -7.010   1.356 -33.219  1.00  0.00     0.021 C 
HETATM   13  C   UNL     1      -8.346   0.987 -32.569  1.00  0.00     0.181 C 
HETATM   14  O   UNL     1      -8.483   1.615 -31.292  1.00  0.00    -0.350 OA
HETATM   15  C   UNL     1      -8.272   2.970 -31.303  1.00  0.00     0.077 A 
HETATM   16  C   UNL     1      -7.575   3.623 -32.324  1.00  0.00    -0.024 A 
HETATM   17  C   UNL     1      -8.763   3.678 -30.203  1.00  0.00     0.074 A 
HETATM   18  C   UNL     1      -7.034   2.864 -33.500  1.00  0.00     0.048 C 
HETATM   19  C   UNL     1      -7.415   5.011 -32.254  1.00  0.00     0.012 A 
HETATM   20  C   UNL     1      -7.923   5.720 -31.163  1.00  0.00     0.037 A 
HETATM   21  C   UNL     1      -8.595   5.060 -30.132  1.00  0.00     0.070 A 
BRANCH  21  22
HETATM   22  O   UNL     1      -9.033   5.875 -29.126  1.00  0.00    -0.356 OA
HETATM   23  C   UNL     1      -8.052   6.649 -28.445  1.00  0.00     0.210 C 
ENDBRANCH  21  22
ENDBRANCH  11  12
ENDBRANCH   3  11
BRANCH   1  24
HETATM   24  N   UNL     1      -3.106  -1.717 -32.295  1.00  0.00    -0.281 NA
HETATM   25  C   UNL     1      -2.967  -0.516 -31.482  1.00  0.00     0.114 C 
HETATM   26  H   UNL     1      -2.222  -1.985 -32.720  1.00  0.00     0.128 HD
ENDBRANCH   1  24
TORSDOF 4
ENDMDL
MODEL 9
REMARK VINA RESULT:      -7.3      3.672      7.960
REMARK  4 active torsions:
REMARK  status: ('A' for Active; 'I' for Inactive)
REMARK    1  A    between atoms: N_2  and  C_3 
REMARK    2  A    between atoms: C_5  and  C_6 
REMARK    3  A    between atoms: C_6  and  C_7 
REMARK    4  A    between atoms: C_14  and  O_15 
ROOT
HETATM    1  C   UNL     1      -7.745  -0.032 -33.022  1.00  0.00     0.113 A 
HETATM    2  N   UNL     1      -7.463   0.642 -31.889  1.00  0.00    -0.223 NA
HETATM    3  C   UNL     1      -6.294   0.383 -31.245  1.00  0.00     0.106 A 
HETATM    4  N   UNL     1      -5.401  -0.521 -31.679  1.00  0.00    -0.347 N 
HETATM    5  H   UNL     1      -4.544  -0.695 -31.160  1.00  0.00     0.167 HD
HETATM    6  C   UNL     1      -5.666  -1.172 -32.808  1.00  0.00     0.020 A 
HETATM    7  C   UNL     1      -6.835  -0.941 -33.513  1.00  0.00     0.005 A 
HETATM    8  C   UNL     1      -6.887  -1.800 -34.735  1.00  0.00     0.044 C 
HETATM    9  C   UNL     1      -5.410  -2.219 -34.872  1.00  0.00     0.011 C 
HETATM   10  C   UNL     1      -4.812  -2.214 -33.457  1.00  0.00     0.058 C 
ENDROOT
BRANCH   3  11
HETATM   11  C   UNL     1      -6.014   1.132 -29.972  1.00  0.00     0.085 C 
BRANCH  11  12
HETATM   12  C   UNL     1      -5.295   2.465 -30.212  1.00  0.00     0.021 C 
HETATM   13  C   UNL     1      -6.248   3.617 -30.548  1.00  0.00     0.181 C 
HETATM   14  O   UNL     1      -5.546   4.861 -30.603  1.00  0.00    -0.350 OA
HETATM   15  C   UNL     1      -4.443   4.851 -31.417  1.00  0.00     0.077 A 
HETATM   16  C   UNL     1      -3.797   3.674 -31.810  1.00  0.00    -0.024 A 
HETATM   17  C   UNL     1      -3.958   6.101 -31.812  1.00  0.00     0.074 A 
HETATM   18  C   UNL     1      -4.305   2.331 -31.377  1.00  0.00     0.048 C 
HETATM   19  C   UNL     1      -2.682   3.763 -32.649  1.00  0.00     0.012 A 
HETATM   20  C   UNL     1      -2.211   5.012 -33.059  1.00  0.00     0.037 A 
HETATM   21  C   UNL     1      -2.841   6.186 -32.641  1.00  0.00     0.070 A 
BRANCH  21  22
HETATM   22  O   UNL     1      -2.272   7.336 -33.112  1.00  0.00    -0.356 OA
HETATM   23  C   UNL     1      -1.785   8.260 -32.145  1.00  0.00     0.210 C 
ENDBRANCH  21  22
ENDBRANCH  11  12
ENDBRANCH   3  11
BRANCH   1  24
HETATM   24  N   UNL     1      -8.899   0.249 -33.744  1.00  0.00    -0.281 NA
HETATM   25  C   UNL     1     -10.142   0.290 -32.985  1.00  0.00     0.114 C 
HETATM   26  H   UNL     1      -8.986  -0.337 -34.571  1.00  0.00     0.128 HD
ENDBRANCH   1  24
TORSDOF 4
ENDMDL
MODEL 10
REMARK VINA RESULT:      -7.3      5.750      7.971
REMARK  4 active torsions:
REMARK  status: ('A' for Active; 'I' for Inactive)
REMARK    1  A    between atoms: N_2  and  C_3 
REMARK    2  A    between atoms: C_5  and  C_6 
REMARK    3  A    between atoms: C_6  and  C_7 
REMARK    4  A    between atoms: C_14  and  O_15 
ROOT
HETATM    1  C   UNL     1     -11.217   3.994 -31.531  1.00  0.00     0.113 A 
HETATM    2  N   UNL     1     -10.238   3.668 -32.399  1.00  0.00    -0.223 NA
HETATM    3  C   UNL     1     -10.552   2.920 -33.491  1.00  0.00     0.106 A 
HETATM    4  N   UNL     1     -11.794   2.482 -33.748  1.00  0.00    -0.347 N 
HETATM    5  H   UNL     1     -11.984   1.913 -34.569  1.00  0.00     0.167 HD
HETATM    6  C   UNL     1     -12.766   2.820 -32.905  1.00  0.00     0.020 A 
HETATM    7  C   UNL     1     -12.508   3.589 -31.784  1.00  0.00     0.005 A 
HETATM    8  C   UNL     1     -13.765   3.821 -31.009  1.00  0.00     0.044 C 
HETATM    9  C   UNL     1     -14.836   3.466 -32.058  1.00  0.00     0.011 C 
HETATM   10  C   UNL     1     -14.207   2.434 -33.007  1.00  0.00     0.058 C 
ENDROOT
BRANCH   3  11
HETATM   11  C   UNL     1      -9.438   2.552 -34.431  1.00  0.00     0.085 C 
BRANCH  11  12
HETATM   12  C   UNL     1      -8.461   1.536 -33.828  1.00  0.00     0.021 C 
HETATM   13  C   UNL     1      -7.117   2.150 -33.426  1.00  0.00     0.181 C 
HETATM   14  O   UNL     1      -6.310   1.200 -32.727  1.00  0.00    -0.350 OA
HETATM   15  C   UNL     1      -6.155   0.003 -33.378  1.00  0.00     0.077 A 
HETATM   16  C   UNL     1      -7.021  -0.433 -34.387  1.00  0.00    -0.024 A 
HETATM   17  C   UNL     1      -5.091  -0.796 -32.952  1.00  0.00     0.074 A 
HETATM   18  C   UNL     1      -8.173   0.416 -34.837  1.00  0.00     0.048 C 
HETATM   19  C   UNL     1      -6.779  -1.666 -35.000  1.00  0.00     0.012 A 
HETATM   20  C   UNL     1      -5.703  -2.455 -34.586  1.00  0.00     0.037 A 
HETATM   21  C   UNL     1      -4.857  -2.029 -33.560  1.00  0.00     0.070 A 
BRANCH  21  22
HETATM   22  O   UNL     1      -3.851  -2.901 -33.253  1.00  0.00    -0.356 OA
HETATM   23  C   UNL     1      -3.869  -4.165 -33.905  1.00  0.00     0.210 C 
ENDBRANCH  21  22
ENDBRANCH  11  12
ENDBRANCH   3  11
BRANCH   1  24
HETATM   24  N   UNL     1     -10.950   4.810 -30.438  1.00  0.00    -0.281 NA
HETATM   25  C   UNL     1      -9.613   5.382 -30.369  1.00  0.00     0.114 C 
HETATM   26  H   UNL     1     -11.214   4.371 -29.559  1.00  0.00     0.128 HD
ENDBRANCH   1  24
TORSDOF 4
ENDMDL
