MODEL 1
REMARK VINA RESULT:      -9.0      0.000      0.000
REMARK  3 active torsions:
REMARK  status: ('A' for Active; 'I' for Inactive)
REMARK    1  A    between atoms: C_3  and  O_4 
REMARK    2  A    between atoms: C_6  and  C_7 
REMARK    3  A    between atoms: N_8  and  N_9 
ROOT
HETATM    1  N   UNL     1      -4.884   2.878 -31.213  1.00  0.00    -0.189 N 
HETATM    2  C   UNL     1      -5.932   2.579 -32.095  1.00  0.00     0.298 A 
HETATM    3  O   UNL     1      -6.905   3.289 -32.335  1.00  0.00    -0.264 OA
HETATM    4  C   UNL     1      -5.763   1.284 -32.673  1.00  0.00     0.133 A 
HETATM    5  C   UNL     1      -4.682   0.485 -32.442  1.00  0.00     0.103 A 
HETATM    6  N   UNL     1      -3.607   0.869 -31.639  1.00  0.00    -0.239 NA
HETATM    7  C   UNL     1      -3.773   2.041 -31.096  1.00  0.00     0.239 A 
HETATM    8  N   UNL     1      -6.603   0.614 -33.519  1.00  0.00    -0.349 N 
HETATM    9  H   UNL     1      -7.482   0.976 -33.867  1.00  0.00     0.166 HD
HETATM   10  C   UNL     1      -6.073  -0.630 -33.810  1.00  0.00     0.045 A 
HETATM   11  C   UNL     1      -4.847  -0.731 -33.138  1.00  0.00     0.024 A 
HETATM   12  C   UNL     1      -6.579  -1.660 -34.612  1.00  0.00     0.032 A 
HETATM   13  C   UNL     1      -5.812  -2.825 -34.726  1.00  0.00     0.026 A 
HETATM   14  C   UNL     1      -4.591  -2.946 -34.065  1.00  0.00     0.035 A 
HETATM   15 CL   UNL     1      -3.680  -4.399 -34.230  1.00  0.00    -0.084 Cl
HETATM   16  C   UNL     1      -4.090  -1.911 -33.270  1.00  0.00     0.040 A 
ENDROOT
BRANCH   1  17
HETATM   17  N   UNL     1      -4.878   4.122 -30.619  1.00  0.00    -0.175 NA
HETATM   18  C   UNL     1      -4.295   5.123 -31.211  1.00  0.00     0.150 C 
BRANCH  18  19
HETATM   19  C   UNL     1      -3.452   5.151 -32.425  1.00  0.00    -0.014 A 
HETATM   20  C   UNL     1      -4.100   5.244 -33.659  1.00  0.00     0.049 A 
HETATM   21  C   UNL     1      -3.344   5.287 -34.824  1.00  0.00     0.066 A 
HETATM   22  C   UNL     1      -1.954   5.249 -34.779  1.00  0.00     0.036 A 
HETATM   23  C   UNL     1      -1.310   5.181 -33.544  1.00  0.00     0.004 A 
HETATM   24  C   UNL     1      -2.055   5.146 -32.364  1.00  0.00     0.013 A 
BRANCH  21  25
HETATM   25  O   UNL     1      -4.015   5.369 -36.009  1.00  0.00    -0.361 OA
HETATM   26  H   UNL     1      -3.475   4.959 -36.705  1.00  0.00     0.217 HD
ENDBRANCH  21  25
ENDBRANCH  18  19
ENDBRANCH   1  17
TORSDOF 3
ENDMDL
MODEL 2
REMARK VINA RESULT:      -8.5      1.325      2.027
REMARK  3 active torsions:
REMARK  status: ('A' for Active; 'I' for Inactive)
REMARK    1  A    between atoms: C_3  and  O_4 
REMARK    2  A    between atoms: C_6  and  C_7 
REMARK    3  A    between atoms: N_8  and  N_9 
ROOT
HETATM    1  N   UNL     1      -4.926   2.641 -31.407  1.00  0.00    -0.189 N 
HETATM    2  C   UNL     1      -3.851   1.741 -31.367  1.00  0.00     0.298 A 
HETATM    3  O   UNL     1      -2.760   1.936 -30.837  1.00  0.00    -0.264 OA
HETATM    4  C   UNL     1      -4.157   0.542 -32.079  1.00  0.00     0.133 A 
HETATM    5  C   UNL     1      -5.367   0.290 -32.656  1.00  0.00     0.103 A 
HETATM    6  N   UNL     1      -6.447   1.171 -32.579  1.00  0.00    -0.239 NA
HETATM    7  C   UNL     1      -6.159   2.273 -31.948  1.00  0.00     0.239 A 
HETATM    8  N   UNL     1      -3.348  -0.533 -32.322  1.00  0.00    -0.349 N 
HETATM    9  H   UNL     1      -2.392  -0.622 -32.001  1.00  0.00     0.166 HD
HETATM   10  C   UNL     1      -4.031  -1.465 -33.081  1.00  0.00     0.045 A 
HETATM   11  C   UNL     1      -5.322  -0.963 -33.302  1.00  0.00     0.024 A 
HETATM   12  C   UNL     1      -3.610  -2.703 -33.582  1.00  0.00     0.032 A 
HETATM   13  C   UNL     1      -4.532  -3.445 -34.329  1.00  0.00     0.026 A 
HETATM   14  C   UNL     1      -5.820  -2.963 -34.559  1.00  0.00     0.035 A 
HETATM   15 CL   UNL     1      -6.923  -3.907 -35.488  1.00  0.00    -0.084 Cl
HETATM   16  C   UNL     1      -6.234  -1.728 -34.053  1.00  0.00     0.040 A 
ENDROOT
BRANCH   1  17
HETATM   17  N   UNL     1      -4.801   3.825 -30.712  1.00  0.00    -0.175 NA
HETATM   18  C   UNL     1      -4.178   4.833 -31.251  1.00  0.00     0.150 C 
BRANCH  18  19
HETATM   19  C   UNL     1      -3.397   4.909 -32.503  1.00  0.00    -0.014 A 
HETATM   20  C   UNL     1      -4.104   5.081 -33.695  1.00  0.00     0.049 A 
HETATM   21  C   UNL     1      -3.407   5.172 -34.895  1.00  0.00     0.066 A 
HETATM   22  C   UNL     1      -2.017   5.105 -34.923  1.00  0.00     0.036 A 
HETATM   23  C   UNL     1      -1.313   4.958 -33.728  1.00  0.00     0.004 A 
HETATM   24  C   UNL     1      -2.000   4.874 -32.514  1.00  0.00     0.013 A 
BRANCH  21  25
HETATM   25  O   UNL     1      -4.135   5.331 -36.037  1.00  0.00    -0.361 OA
HETATM   26  H   UNL     1      -4.549   6.209 -36.026  1.00  0.00     0.217 HD
ENDBRANCH  21  25
ENDBRANCH  18  19
ENDBRANCH   1  17
TORSDOF 3
ENDMDL
MODEL 3
REMARK VINA RESULT:      -8.4      3.136      6.659
REMARK  3 active torsions:
REMARK  status: ('A' for Active; 'I' for Inactive)
REMARK    1  A    between atoms: C_3  and  O_4 
REMARK    2  A    between atoms: C_6  and  C_7 
REMARK    3  A    between atoms: N_8  and  N_9 
ROOT
HETATM    1  N   UNL     1      -6.281   2.369 -31.865  1.00  0.00    -0.189 N 
HETATM    2  C   UNL     1      -6.134   3.054 -33.080  1.00  0.00     0.298 A 
HETATM    3  O   UNL     1      -6.875   2.970 -34.056  1.00  0.00    -0.264 OA
HETATM    4  C   UNL     1      -4.954   3.858 -33.078  1.00  0.00     0.133 A 
HETATM    5  C   UNL     1      -4.126   3.988 -32.002  1.00  0.00     0.103 A 
HETATM    6  N   UNL     1      -4.369   3.372 -30.773  1.00  0.00    -0.239 NA
HETATM    7  C   UNL     1      -5.434   2.622 -30.784  1.00  0.00     0.239 A 
HETATM    8  N   UNL     1      -4.436   4.612 -34.095  1.00  0.00    -0.349 N 
HETATM    9  H   UNL     1      -4.851   4.708 -35.012  1.00  0.00     0.166 HD
HETATM   10  C   UNL     1      -3.258   5.205 -33.679  1.00  0.00     0.045 A 
HETATM   11  C   UNL     1      -3.044   4.824 -32.346  1.00  0.00     0.024 A 
HETATM   12  C   UNL     1      -2.377   6.043 -34.373  1.00  0.00     0.032 A 
HETATM   13  C   UNL     1      -1.247   6.501 -33.687  1.00  0.00     0.026 A 
HETATM   14  C   UNL     1      -1.016   6.134 -32.362  1.00  0.00     0.035 A 
HETATM   15 CL   UNL     1       0.391   6.718 -31.555  1.00  0.00    -0.084 Cl
HETATM   16  C   UNL     1      -1.902   5.300 -31.674  1.00  0.00     0.040 A 
ENDROOT
BRANCH   1  17
HETATM   17  N   UNL     1      -7.407   1.593 -31.695  1.00  0.00    -0.175 NA
HETATM   18  C   UNL     1      -7.362   0.317 -31.943  1.00  0.00     0.150 C 
BRANCH  18  19
HETATM   19  C   UNL     1      -6.291  -0.496 -32.554  1.00  0.00    -0.014 A 
HETATM   20  C   UNL     1      -5.154  -0.750 -31.783  1.00  0.00     0.049 A 
HETATM   21  C   UNL     1      -4.128  -1.522 -32.316  1.00  0.00     0.066 A 
HETATM   22  C   UNL     1      -4.221  -2.054 -33.598  1.00  0.00     0.036 A 
HETATM   23  C   UNL     1      -5.369  -1.820 -34.355  1.00  0.00     0.004 A 
HETATM   24  C   UNL     1      -6.412  -1.053 -33.831  1.00  0.00     0.013 A 
BRANCH  21  25
HETATM   25  O   UNL     1      -3.031  -1.738 -31.534  1.00  0.00    -0.361 OA
HETATM   26  H   UNL     1      -2.645  -0.881 -31.291  1.00  0.00     0.217 HD
ENDBRANCH  21  25
ENDBRANCH  18  19
ENDBRANCH   1  17
TORSDOF 3
ENDMDL
MODEL 4
REMARK VINA RESULT:      -7.9      3.416      4.793
REMARK  3 active torsions:
REMARK  status: ('A' for Active; 'I' for Inactive)
REMARK    1  A    between atoms: C_3  and  O_4 
REMARK    2  A    between atoms: C_6  and  C_7 
REMARK    3  A    between atoms: N_8  and  N_9 
ROOT
HETATM    1  N   UNL     1      -2.507   5.965 -32.201  1.00  0.00    -0.189 N 
HETATM    2  C   UNL     1      -3.520   5.728 -31.260  1.00  0.00     0.298 A 
HETATM    3  O   UNL     1      -4.004   6.553 -30.491  1.00  0.00    -0.264 OA
HETATM    4  C   UNL     1      -3.913   4.355 -31.263  1.00  0.00     0.133 A 
HETATM    5  C   UNL     1      -3.409   3.423 -32.122  1.00  0.00     0.103 A 
HETATM    6  N   UNL     1      -2.478   3.727 -33.117  1.00  0.00    -0.239 NA
HETATM    7  C   UNL     1      -2.106   4.975 -33.099  1.00  0.00     0.239 A 
HETATM    8  N   UNL     1      -4.813   3.727 -30.448  1.00  0.00    -0.349 N 
HETATM    9  H   UNL     1      -5.347   4.180 -29.718  1.00  0.00     0.166 HD
HETATM   10  C   UNL     1      -4.867   2.382 -30.767  1.00  0.00     0.045 A 
HETATM   11  C   UNL     1      -3.983   2.167 -31.834  1.00  0.00     0.024 A 
HETATM   12  C   UNL     1      -5.626   1.351 -30.199  1.00  0.00     0.032 A 
HETATM   13  C   UNL     1      -5.473   0.067 -30.735  1.00  0.00     0.026 A 
HETATM   14  C   UNL     1      -4.600  -0.167 -31.796  1.00  0.00     0.035 A 
HETATM   15 CL   UNL     1      -4.441  -1.763 -32.425  1.00  0.00    -0.084 Cl
HETATM   16  C   UNL     1      -3.850   0.869 -32.361  1.00  0.00     0.040 A 
ENDROOT
BRANCH   1  17
HETATM   17  N   UNL     1      -2.063   7.261 -32.356  1.00  0.00    -0.175 NA
HETATM   18  C   UNL     1      -1.126   7.725 -31.582  1.00  0.00     0.150 C 
BRANCH  18  19
HETATM   19  C   UNL     1      -0.499   7.128 -30.384  1.00  0.00    -0.014 A 
HETATM   20  C   UNL     1       0.047   5.848 -30.512  1.00  0.00     0.049 A 
HETATM   21  C   UNL     1       0.658   5.255 -29.413  1.00  0.00     0.066 A 
HETATM   22  C   UNL     1       0.743   5.921 -28.194  1.00  0.00     0.036 A 
HETATM   23  C   UNL     1       0.219   7.208 -28.077  1.00  0.00     0.004 A 
HETATM   24  C   UNL     1      -0.391   7.820 -29.175  1.00  0.00     0.013 A 
BRANCH  21  25
HETATM   25  O   UNL     1       1.171   4.002 -29.577  1.00  0.00    -0.361 OA
HETATM   26  H   UNL     1       0.625   3.372 -29.079  1.00  0.00     0.217 HD
ENDBRANCH  21  25
ENDBRANCH  18  19
ENDBRANCH   1  17
TORSDOF 3
ENDMDL
MODEL 5
REMARK VINA RESULT:      -7.9      1.573      1.893
REMARK  3 active torsions:
REMARK  status: ('A' for Active; 'I' for Inactive)
REMARK    1  A    between atoms: C_3  and  O_4 
REMARK    2  A    between atoms: C_6  and  C_7 
REMARK    3  A    between atoms: N_8  and  N_9 
ROOT
HETATM    1  N   UNL     1      -5.437   4.137 -30.859  1.00  0.00    -0.189 N 
HETATM    2  C   UNL     1      -6.220   4.248 -32.017  1.00  0.00     0.298 A 
HETATM    3  O   UNL     1      -6.810   5.253 -32.401  1.00  0.00    -0.264 OA
HETATM    4  C   UNL     1      -6.297   2.999 -32.707  1.00  0.00     0.133 A 
HETATM    5  C   UNL     1      -5.633   1.874 -32.316  1.00  0.00     0.103 A 
HETATM    6  N   UNL     1      -4.776   1.837 -31.214  1.00  0.00    -0.239 NA
HETATM    7  C   UNL     1      -4.724   2.971 -30.575  1.00  0.00     0.239 A 
HETATM    8  N   UNL     1      -7.015   2.690 -33.828  1.00  0.00    -0.349 N 
HETATM    9  H   UNL     1      -7.597   3.341 -34.339  1.00  0.00     0.166 HD
HETATM   10  C   UNL     1      -6.834   1.355 -34.142  1.00  0.00     0.045 A 
HETATM   11  C   UNL     1      -5.953   0.817 -33.193  1.00  0.00     0.024 A 
HETATM   12  C   UNL     1      -7.375   0.593 -35.184  1.00  0.00     0.032 A 
HETATM   13  C   UNL     1      -7.007  -0.755 -35.256  1.00  0.00     0.026 A 
HETATM   14  C   UNL     1      -6.132  -1.309 -34.322  1.00  0.00     0.035 A 
HETATM   15 CL   UNL     1      -5.708  -2.975 -34.446  1.00  0.00    -0.084 Cl
HETATM   16  C   UNL     1      -5.593  -0.541 -33.287  1.00  0.00     0.040 A 
ENDROOT
BRANCH   1  17
HETATM   17  N   UNL     1      -5.222   5.278 -30.116  1.00  0.00    -0.175 NA
HETATM   18  C   UNL     1      -4.238   6.075 -30.417  1.00  0.00     0.150 C 
BRANCH  18  19
HETATM   19  C   UNL     1      -3.140   5.904 -31.390  1.00  0.00    -0.014 A 
HETATM   20  C   UNL     1      -3.275   6.529 -32.632  1.00  0.00     0.049 A 
HETATM   21  C   UNL     1      -2.258   6.405 -33.572  1.00  0.00     0.066 A 
HETATM   22  C   UNL     1      -1.105   5.678 -33.289  1.00  0.00     0.036 A 
HETATM   23  C   UNL     1      -0.962   5.078 -32.039  1.00  0.00     0.004 A 
HETATM   24  C   UNL     1      -1.972   5.200 -31.082  1.00  0.00     0.013 A 
BRANCH  21  25
HETATM   25  O   UNL     1      -2.432   7.022 -34.775  1.00  0.00    -0.361 OA
HETATM   26  H   UNL     1      -2.755   6.370 -35.419  1.00  0.00     0.217 HD
ENDBRANCH  21  25
ENDBRANCH  18  19
ENDBRANCH   1  17
TORSDOF 3
ENDMDL
MODEL 6
REMARK VINA RESULT:      -7.8      3.183      4.566
REMARK  3 active torsions:
REMARK  status: ('A' for Active; 'I' for Inactive)
REMARK    1  A    between atoms: C_3  and  O_4 
REMARK    2  A    between atoms: C_6  and  C_7 
REMARK    3  A    between atoms: N_8  and  N_9 
ROOT
HETATM    1  N   UNL     1      -4.585   6.506 -31.050  1.00  0.00    -0.189 N 
HETATM    2  C   UNL     1      -4.924   5.743 -29.922  1.00  0.00     0.298 A 
HETATM    3  O   UNL     1      -4.960   6.140 -28.761  1.00  0.00    -0.264 OA
HETATM    4  C   UNL     1      -5.187   4.386 -30.280  1.00  0.00     0.133 A 
HETATM    5  C   UNL     1      -5.177   3.924 -31.563  1.00  0.00     0.103 A 
HETATM    6  N   UNL     1      -4.940   4.744 -32.668  1.00  0.00    -0.239 NA
HETATM    7  C   UNL     1      -4.679   5.976 -32.338  1.00  0.00     0.239 A 
HETATM    8  N   UNL     1      -5.478   3.331 -29.460  1.00  0.00    -0.349 N 
HETATM    9  H   UNL     1      -5.560   3.387 -28.453  1.00  0.00     0.166 HD
HETATM   10  C   UNL     1      -5.627   2.183 -30.217  1.00  0.00     0.045 A 
HETATM   11  C   UNL     1      -5.443   2.538 -31.560  1.00  0.00     0.024 A 
HETATM   12  C   UNL     1      -5.910   0.871 -29.817  1.00  0.00     0.032 A 
HETATM   13  C   UNL     1      -6.006  -0.102 -30.818  1.00  0.00     0.026 A 
HETATM   14  C   UNL     1      -5.827   0.231 -32.160  1.00  0.00     0.035 A 
HETATM   15 CL   UNL     1      -5.949  -0.998 -33.361  1.00  0.00    -0.084 Cl
HETATM   16  C   UNL     1      -5.548   1.544 -32.551  1.00  0.00     0.040 A 
ENDROOT
BRANCH   1  17
HETATM   17  N   UNL     1      -4.359   7.854 -30.871  1.00  0.00    -0.175 NA
HETATM   18  C   UNL     1      -3.141   8.302 -30.779  1.00  0.00     0.150 C 
BRANCH  18  19
HETATM   19  C   UNL     1      -1.862   7.569 -30.679  1.00  0.00    -0.014 A 
HETATM   20  C   UNL     1      -1.561   6.960 -29.459  1.00  0.00     0.049 A 
HETATM   21  C   UNL     1      -0.374   6.248 -29.327  1.00  0.00     0.066 A 
HETATM   22  C   UNL     1       0.510   6.124 -30.394  1.00  0.00     0.036 A 
HETATM   23  C   UNL     1       0.194   6.712 -31.619  1.00  0.00     0.004 A 
HETATM   24  C   UNL     1      -0.998   7.424 -31.769  1.00  0.00     0.013 A 
BRANCH  21  25
HETATM   25  O   UNL     1      -0.113   5.676 -28.117  1.00  0.00    -0.361 OA
HETATM   26  H   UNL     1      -0.757   6.004 -27.468  1.00  0.00     0.217 HD
ENDBRANCH  21  25
ENDBRANCH  18  19
ENDBRANCH   1  17
TORSDOF 3
ENDMDL
MODEL 7
REMARK VINA RESULT:      -7.5      2.547      4.179
REMARK  3 active torsions:
REMARK  status: ('A' for Active; 'I' for Inactive)
REMARK    1  A    between atoms: C_3  and  O_4 
REMARK    2  A    between atoms: C_6  and  C_7 
REMARK    3  A    between atoms: N_8  and  N_9 
ROOT
HETATM    1  N   UNL     1      -4.068   4.913 -32.137  1.00  0.00    -0.189 N 
HETATM    2  C   UNL     1      -5.071   4.292 -32.896  1.00  0.00     0.298 A 
HETATM    3  O   UNL     1      -5.993   4.854 -33.480  1.00  0.00    -0.264 OA
HETATM    4  C   UNL     1      -4.924   2.871 -32.876  1.00  0.00     0.133 A 
HETATM    5  C   UNL     1      -3.898   2.222 -32.256  1.00  0.00     0.103 A 
HETATM    6  N   UNL     1      -2.859   2.887 -31.602  1.00  0.00    -0.239 NA
HETATM    7  C   UNL     1      -3.005   4.181 -31.603  1.00  0.00     0.239 A 
HETATM    8  N   UNL     1      -5.739   1.925 -33.434  1.00  0.00    -0.349 N 
HETATM    9  H   UNL     1      -6.577   2.124 -33.965  1.00  0.00     0.166 HD
HETATM   10  C   UNL     1      -5.248   0.664 -33.147  1.00  0.00     0.045 A 
HETATM   11  C   UNL     1      -4.073   0.830 -32.401  1.00  0.00     0.024 A 
HETATM   12  C   UNL     1      -5.749  -0.598 -33.491  1.00  0.00     0.032 A 
HETATM   13  C   UNL     1      -5.030  -1.717 -33.057  1.00  0.00     0.026 A 
HETATM   14  C   UNL     1      -3.859  -1.573 -32.315  1.00  0.00     0.035 A 
HETATM   15 CL   UNL     1      -3.007  -2.979 -31.798  1.00  0.00    -0.084 Cl
HETATM   16  C   UNL     1      -3.363  -0.310 -31.979  1.00  0.00     0.040 A 
ENDROOT
BRANCH   1  17
HETATM   17  N   UNL     1      -4.042   6.291 -32.108  1.00  0.00    -0.175 NA
HETATM   18  C   UNL     1      -4.633   6.932 -31.142  1.00  0.00     0.150 C 
BRANCH  18  19
HETATM   19  C   UNL     1      -5.512   6.430 -30.066  1.00  0.00    -0.014 A 
HETATM   20  C   UNL     1      -4.906   6.011 -28.879  1.00  0.00     0.049 A 
HETATM   21  C   UNL     1      -5.698   5.545 -27.836  1.00  0.00     0.066 A 
HETATM   22  C   UNL     1      -7.084   5.501 -27.953  1.00  0.00     0.036 A 
HETATM   23  C   UNL     1      -7.688   5.945 -29.129  1.00  0.00     0.004 A 
HETATM   24  C   UNL     1      -6.906   6.423 -30.183  1.00  0.00     0.013 A 
BRANCH  21  25
HETATM   25  O   UNL     1      -5.067   5.136 -26.699  1.00  0.00    -0.361 OA
HETATM   26  H   UNL     1      -4.461   4.409 -26.920  1.00  0.00     0.217 HD
ENDBRANCH  21  25
ENDBRANCH  18  19
ENDBRANCH   1  17
TORSDOF 3
ENDMDL
MODEL 8
REMARK VINA RESULT:      -7.4      5.295      8.614
REMARK  3 active torsions:
REMARK  status: ('A' for Active; 'I' for Inactive)
REMARK    1  A    between atoms: C_3  and  O_4 
REMARK    2  A    between atoms: C_6  and  C_7 
REMARK    3  A    between atoms: N_8  and  N_9 
ROOT
HETATM    1  N   UNL     1      -1.221   6.623 -32.604  1.00  0.00    -0.189 N 
HETATM    2  C   UNL     1      -0.635   5.905 -31.551  1.00  0.00     0.298 A 
HETATM    3  O   UNL     1      -0.012   4.852 -31.648  1.00  0.00    -0.264 OA
HETATM    4  C   UNL     1      -0.892   6.534 -30.295  1.00  0.00     0.133 A 
HETATM    5  C   UNL     1      -1.561   7.715 -30.160  1.00  0.00     0.103 A 
HETATM    6  N   UNL     1      -2.034   8.453 -31.247  1.00  0.00    -0.239 NA
HETATM    7  C   UNL     1      -1.817   7.867 -32.390  1.00  0.00     0.239 A 
HETATM    8  N   UNL     1      -0.550   6.104 -29.043  1.00  0.00    -0.349 N 
HETATM    9  H   UNL     1      -0.037   5.255 -28.843  1.00  0.00     0.166 HD
HETATM   10  C   UNL     1      -1.024   6.998 -28.100  1.00  0.00     0.045 A 
HETATM   11  C   UNL     1      -1.668   8.035 -28.790  1.00  0.00     0.024 A 
HETATM   12  C   UNL     1      -0.931   6.968 -26.703  1.00  0.00     0.032 A 
HETATM   13  C   UNL     1      -1.513   8.026 -25.995  1.00  0.00     0.026 A 
HETATM   14  C   UNL     1      -2.158   9.066 -26.663  1.00  0.00     0.035 A 
HETATM   15 CL   UNL     1      -2.864  10.347 -25.752  1.00  0.00    -0.084 Cl
HETATM   16  C   UNL     1      -2.243   9.090 -28.058  1.00  0.00     0.040 A 
ENDROOT
BRANCH   1  17
HETATM   17  N   UNL     1      -1.010   6.169 -33.888  1.00  0.00    -0.175 NA
HETATM   18  C   UNL     1      -1.882   5.386 -34.453  1.00  0.00     0.150 C 
BRANCH  18  19
HETATM   19  C   UNL     1      -3.077   4.728 -33.886  1.00  0.00    -0.014 A 
HETATM   20  C   UNL     1      -4.328   5.189 -34.303  1.00  0.00     0.049 A 
HETATM   21  C   UNL     1      -5.478   4.588 -33.804  1.00  0.00     0.066 A 
HETATM   22  C   UNL     1      -5.400   3.527 -32.906  1.00  0.00     0.036 A 
HETATM   23  C   UNL     1      -4.150   3.053 -32.512  1.00  0.00     0.004 A 
HETATM   24  C   UNL     1      -2.985   3.642 -33.010  1.00  0.00     0.013 A 
BRANCH  21  25
HETATM   25  O   UNL     1      -6.679   5.074 -34.229  1.00  0.00    -0.361 OA
HETATM   26  H   UNL     1      -6.946   5.803 -33.647  1.00  0.00     0.217 HD
ENDBRANCH  21  25
ENDBRANCH  18  19
ENDBRANCH   1  17
TORSDOF 3
ENDMDL
MODEL 9
REMARK VINA RESULT:      -7.3     15.680     17.692
REMARK  3 active torsions:
REMARK  status: ('A' for Active; 'I' for Inactive)
REMARK    1  A    between atoms: C_3  and  O_4 
REMARK    2  A    between atoms: C_6  and  C_7 
REMARK    3  A    between atoms: N_8  and  N_9 
ROOT
HETATM    1  N   UNL     1      -5.626 -14.371 -39.121  1.00  0.00    -0.189 N 
HETATM    2  C   UNL     1      -5.332 -13.290 -38.277  1.00  0.00     0.298 A 
HETATM    3  O   UNL     1      -4.911 -12.191 -38.626  1.00  0.00    -0.264 OA
HETATM    4  C   UNL     1      -5.542 -13.635 -36.907  1.00  0.00     0.133 A 
HETATM    5  C   UNL     1      -6.031 -14.839 -36.494  1.00  0.00     0.103 A 
HETATM    6  N   UNL     1      -6.413 -15.851 -37.376  1.00  0.00    -0.239 NA
HETATM    7  C   UNL     1      -6.201 -15.542 -38.624  1.00  0.00     0.239 A 
HETATM    8  N   UNL     1      -5.301 -12.879 -35.794  1.00  0.00    -0.349 N 
HETATM    9  H   UNL     1      -4.942 -11.933 -35.804  1.00  0.00     0.166 HD
HETATM   10  C   UNL     1      -5.611 -13.610 -34.661  1.00  0.00     0.045 A 
HETATM   11  C   UNL     1      -6.082 -14.861 -35.084  1.00  0.00     0.024 A 
HETATM   12  C   UNL     1      -5.513 -13.260 -33.309  1.00  0.00     0.032 A 
HETATM   13  C   UNL     1      -5.905 -14.217 -32.366  1.00  0.00     0.026 A 
HETATM   14  C   UNL     1      -6.376 -15.467 -32.766  1.00  0.00     0.035 A 
HETATM   15 CL   UNL     1      -6.845 -16.616 -31.571  1.00  0.00    -0.084 Cl
HETATM   16  C   UNL     1      -6.475 -15.806 -34.118  1.00  0.00     0.040 A 
ENDROOT
BRANCH   1  17
HETATM   17  N   UNL     1      -5.526 -14.173 -40.481  1.00  0.00    -0.175 NA
HETATM   18  C   UNL     1      -6.551 -13.730 -41.150  1.00  0.00     0.150 C 
BRANCH  18  19
HETATM   19  C   UNL     1      -7.948 -13.519 -40.721  1.00  0.00    -0.014 A 
HETATM   20  C   UNL     1      -8.821 -14.607 -40.804  1.00  0.00     0.049 A 
HETATM   21  C   UNL     1     -10.141 -14.455 -40.396  1.00  0.00     0.066 A 
HETATM   22  C   UNL     1     -10.603 -13.240 -39.898  1.00  0.00     0.036 A 
HETATM   23  C   UNL     1      -9.722 -12.164 -39.792  1.00  0.00     0.004 A 
HETATM   24  C   UNL     1      -8.391 -12.303 -40.190  1.00  0.00     0.013 A 
BRANCH  21  25
HETATM   25  O   UNL     1     -10.962 -15.538 -40.502  1.00  0.00    -0.361 OA
HETATM   26  H   UNL     1     -11.885 -15.240 -40.445  1.00  0.00     0.217 HD
ENDBRANCH  21  25
ENDBRANCH  18  19
ENDBRANCH   1  17
TORSDOF 3
ENDMDL
MODEL 10
REMARK VINA RESULT:      -7.3     15.659     17.771
REMARK  3 active torsions:
REMARK  status: ('A' for Active; 'I' for Inactive)
REMARK    1  A    between atoms: C_3  and  O_4 
REMARK    2  A    between atoms: C_6  and  C_7 
REMARK    3  A    between atoms: N_8  and  N_9 
ROOT
HETATM    1  N   UNL     1      -5.601 -12.829 -38.873  1.00  0.00    -0.189 N 
HETATM    2  C   UNL     1      -5.288 -13.804 -39.832  1.00  0.00     0.298 A 
HETATM    3  O   UNL     1      -6.083 -14.376 -40.572  1.00  0.00    -0.264 OA
HETATM    4  C   UNL     1      -3.892 -14.106 -39.822  1.00  0.00     0.133 A 
HETATM    5  C   UNL     1      -2.984 -13.470 -39.027  1.00  0.00     0.103 A 
HETATM    6  N   UNL     1      -3.324 -12.428 -38.163  1.00  0.00    -0.239 NA
HETATM    7  C   UNL     1      -4.600 -12.169 -38.158  1.00  0.00     0.239 A 
HETATM    8  N   UNL     1      -3.220 -15.044 -40.555  1.00  0.00    -0.349 N 
HETATM    9  H   UNL     1      -3.645 -15.659 -41.236  1.00  0.00     0.166 HD
HETATM   10  C   UNL     1      -1.880 -15.029 -40.210  1.00  0.00     0.045 A 
HETATM   11  C   UNL     1      -1.707 -14.030 -39.241  1.00  0.00     0.024 A 
HETATM   12  C   UNL     1      -0.820 -15.814 -40.679  1.00  0.00     0.032 A 
HETATM   13  C   UNL     1       0.449 -15.572 -40.142  1.00  0.00     0.026 A 
HETATM   14  C   UNL     1       0.642 -14.583 -39.178  1.00  0.00     0.035 A 
HETATM   15 CL   UNL     1       2.221 -14.321 -38.540  1.00  0.00    -0.084 Cl
HETATM   16  C   UNL     1      -0.421 -13.801 -38.717  1.00  0.00     0.040 A 
ENDROOT
BRANCH   1  17
HETATM   17  N   UNL     1      -6.906 -12.390 -38.803  1.00  0.00    -0.175 NA
HETATM   18  C   UNL     1      -7.694 -12.841 -37.871  1.00  0.00     0.150 C 
BRANCH  18  19
HETATM   19  C   UNL     1      -7.482 -13.921 -36.886  1.00  0.00    -0.014 A 
HETATM   20  C   UNL     1      -7.158 -13.548 -35.579  1.00  0.00     0.049 A 
HETATM   21  C   UNL     1      -6.964 -14.533 -34.618  1.00  0.00     0.066 A 
HETATM   22  C   UNL     1      -7.098 -15.882 -34.935  1.00  0.00     0.036 A 
HETATM   23  C   UNL     1      -7.448 -16.249 -36.234  1.00  0.00     0.004 A 
HETATM   24  C   UNL     1      -7.654 -15.270 -37.209  1.00  0.00     0.013 A 
BRANCH  21  25
HETATM   25  O   UNL     1      -6.640 -14.128 -33.357  1.00  0.00    -0.361 OA
HETATM   26  H   UNL     1      -5.783 -14.516 -33.112  1.00  0.00     0.217 HD
ENDBRANCH  21  25
ENDBRANCH  18  19
ENDBRANCH   1  17
TORSDOF 3
ENDMDL
