MODEL 1
REMARK VINA RESULT:      -8.5      0.000      0.000
REMARK  6 active torsions:
REMARK  status: ('A' for Active; 'I' for Inactive)
REMARK    1  A    between atoms: N_1  and  C_2 
REMARK    2  A    between atoms: C_2  and  C_3 
REMARK    3  A    between atoms: C_2  and  C_11 
REMARK    4  A    between atoms: C_3  and  C_4 
REMARK       I    between atoms: C_11  and  N_13 
REMARK    5  A    between atoms: N_13  and  C_14 
REMARK    6  A    between atoms: C_17  and  C_20 
ROOT
HETATM    1  C   UNL     1      -7.352   1.069 -32.561  1.00  0.00     0.255 C 
HETATM    2  O   UNL     1      -7.431   1.385 -31.377  1.00  0.00    -0.271 OA
HETATM    3  N   UNL     1      -6.633   1.729 -33.540  1.00  0.00    -0.325 N 
HETATM    4  H   UNL     1      -6.703   1.283 -34.455  1.00  0.00     0.169 HD
ENDROOT
BRANCH   1   5
HETATM    5  C   UNL     1      -8.113  -0.157 -33.124  1.00  0.00     0.313 C 
BRANCH   5   6
HETATM    6  N   UNL     1      -9.572   0.147 -33.229  1.00  0.00     0.092 N 
HETATM    7  H   UNL     1      -9.664   1.164 -33.307  1.00  0.00     0.313 HD
HETATM    8  H   UNL     1     -10.008  -0.081 -32.332  1.00  0.00     0.313 HD
ENDBRANCH   5   6
BRANCH   5   9
HETATM    9  C   UNL     1      -7.488  -0.557 -34.474  1.00  0.00     0.083 C 
BRANCH   9  10
HETATM   10  C   UNL     1      -6.439  -1.641 -34.373  1.00  0.00    -0.056 A 
HETATM   11  C   UNL     1      -5.168  -1.358 -33.854  1.00  0.00     0.009 A 
HETATM   12  C   UNL     1      -4.208  -2.368 -33.750  1.00  0.00     0.024 A 
HETATM   13  C   UNL     1      -4.515  -3.662 -34.163  1.00  0.00     0.034 A 
HETATM   14 CL   UNL     1      -3.336  -4.907 -34.023  1.00  0.00    -0.084 Cl
HETATM   15  C   UNL     1      -5.775  -3.956 -34.682  1.00  0.00     0.024 A 
HETATM   16  C   UNL     1      -6.733  -2.947 -34.790  1.00  0.00     0.009 A 
ENDBRANCH   9  10
ENDBRANCH   5   9
ENDBRANCH   1   5
BRANCH   3  17
HETATM   17  C   UNL     1      -5.757   2.817 -33.393  1.00  0.00     0.034 A 
HETATM   18  C   UNL     1      -6.074   3.997 -34.072  1.00  0.00     0.030 A 
HETATM   19  C   UNL     1      -5.218   5.106 -34.020  1.00  0.00     0.014 A 
HETATM   20  C   UNL     1      -4.031   5.059 -33.279  1.00  0.00    -0.023 A 
HETATM   21  C   UNL     1      -3.737   3.884 -32.575  1.00  0.00     0.014 A 
HETATM   22  C   UNL     1      -4.590   2.775 -32.633  1.00  0.00     0.030 A 
BRANCH  20  23
HETATM   23  C   UNL     1      -3.131   6.202 -33.254  1.00  0.00     0.010 A 
HETATM   24  C   UNL     1      -2.163   6.643 -34.188  1.00  0.00     0.152 A 
HETATM   25  N   UNL     1      -1.510   7.736 -33.784  1.00  0.00    -0.187 NA
HETATM   26  N   UNL     1      -2.053   8.001 -32.587  1.00  0.00    -0.289 N 
HETATM   27  H   UNL     1      -1.710   8.802 -32.068  1.00  0.00     0.188 HD
HETATM   28  C   UNL     1      -3.023   7.112 -32.222  1.00  0.00     0.123 A 
ENDBRANCH  20  23
ENDBRANCH   3  17
TORSDOF 6
ENDMDL
MODEL 2
REMARK VINA RESULT:      -8.1      4.218      9.099
REMARK  6 active torsions:
REMARK  status: ('A' for Active; 'I' for Inactive)
REMARK    1  A    between atoms: N_1  and  C_2 
REMARK    2  A    between atoms: C_2  and  C_3 
REMARK    3  A    between atoms: C_2  and  C_11 
REMARK    4  A    between atoms: C_3  and  C_4 
REMARK       I    between atoms: C_11  and  N_13 
REMARK    5  A    between atoms: N_13  and  C_14 
REMARK    6  A    between atoms: C_17  and  C_20 
ROOT
HETATM    1  C   UNL     1      -4.529   3.374 -32.727  1.00  0.00     0.255 C 
HETATM    2  O   UNL     1      -5.254   3.614 -33.689  1.00  0.00    -0.271 OA
HETATM    3  N   UNL     1      -4.280   2.129 -32.178  1.00  0.00    -0.325 N 
HETATM    4  H   UNL     1      -3.638   2.164 -31.387  1.00  0.00     0.169 HD
ENDROOT
BRANCH   1   5
HETATM    5  C   UNL     1      -3.797   4.505 -31.962  1.00  0.00     0.313 C 
BRANCH   5   6
HETATM    6  N   UNL     1      -4.166   4.470 -30.516  1.00  0.00     0.092 N 
HETATM    7  H   UNL     1      -4.532   3.535 -30.318  1.00  0.00     0.313 HD
HETATM    8  H   UNL     1      -4.967   5.092 -30.378  1.00  0.00     0.313 HD
ENDBRANCH   5   6
BRANCH   5   9
HETATM    9  C   UNL     1      -2.280   4.364 -32.195  1.00  0.00     0.083 C 
BRANCH   9  10
HETATM   10  C   UNL     1      -1.437   5.285 -31.342  1.00  0.00    -0.056 A 
HETATM   11  C   UNL     1      -1.645   6.671 -31.367  1.00  0.00     0.009 A 
HETATM   12  C   UNL     1      -0.871   7.514 -30.566  1.00  0.00     0.024 A 
HETATM   13  C   UNL     1       0.111   6.976 -29.737  1.00  0.00     0.034 A 
HETATM   14 CL   UNL     1       1.054   8.015 -28.743  1.00  0.00    -0.084 Cl
HETATM   15  C   UNL     1       0.328   5.600 -29.705  1.00  0.00     0.024 A 
HETATM   16  C   UNL     1      -0.441   4.756 -30.508  1.00  0.00     0.009 A 
ENDBRANCH   9  10
ENDBRANCH   5   9
ENDBRANCH   1   5
BRANCH   3  17
HETATM   17  C   UNL     1      -4.691   0.872 -32.649  1.00  0.00     0.034 A 
HETATM   18  C   UNL     1      -3.714  -0.119 -32.784  1.00  0.00     0.030 A 
HETATM   19  C   UNL     1      -4.038  -1.380 -33.302  1.00  0.00     0.014 A 
HETATM   20  C   UNL     1      -5.350  -1.678 -33.690  1.00  0.00    -0.023 A 
HETATM   21  C   UNL     1      -6.330  -0.691 -33.521  1.00  0.00     0.014 A 
HETATM   22  C   UNL     1      -6.004   0.570 -33.009  1.00  0.00     0.030 A 
BRANCH  20  23
HETATM   23  C   UNL     1      -5.676  -2.978 -34.256  1.00  0.00     0.010 A 
HETATM   24  C   UNL     1      -4.871  -4.122 -34.476  1.00  0.00     0.152 A 
HETATM   25  N   UNL     1      -5.540  -5.126 -35.052  1.00  0.00    -0.187 NA
HETATM   26  N   UNL     1      -6.776  -4.630 -35.207  1.00  0.00    -0.289 N 
HETATM   27  H   UNL     1      -7.481  -5.219 -35.637  1.00  0.00     0.188 HD
HETATM   28  C   UNL     1      -6.909  -3.349 -34.752  1.00  0.00     0.123 A 
ENDBRANCH  20  23
ENDBRANCH   3  17
TORSDOF 6
ENDMDL
MODEL 3
REMARK VINA RESULT:      -8.0      0.353      1.258
REMARK  6 active torsions:
REMARK  status: ('A' for Active; 'I' for Inactive)
REMARK    1  A    between atoms: N_1  and  C_2 
REMARK    2  A    between atoms: C_2  and  C_3 
REMARK    3  A    between atoms: C_2  and  C_11 
REMARK    4  A    between atoms: C_3  and  C_4 
REMARK       I    between atoms: C_11  and  N_13 
REMARK    5  A    between atoms: N_13  and  C_14 
REMARK    6  A    between atoms: C_17  and  C_20 
ROOT
HETATM    1  C   UNL     1      -7.311   1.390 -32.462  1.00  0.00     0.255 C 
HETATM    2  O   UNL     1      -7.631   2.003 -31.447  1.00  0.00    -0.271 OA
HETATM    3  N   UNL     1      -6.401   1.804 -33.418  1.00  0.00    -0.325 N 
HETATM    4  H   UNL     1      -6.285   1.130 -34.175  1.00  0.00     0.169 HD
ENDROOT
BRANCH   1   5
HETATM    5  C   UNL     1      -7.948   0.023 -32.817  1.00  0.00     0.313 C 
BRANCH   5   6
HETATM    6  N   UNL     1      -9.436   0.111 -32.730  1.00  0.00     0.092 N 
HETATM    7  H   UNL     1      -9.679   0.155 -31.736  1.00  0.00     0.313 HD
HETATM    8  H   UNL     1      -9.825  -0.780 -33.048  1.00  0.00     0.313 HD
ENDBRANCH   5   6
BRANCH   5   9
HETATM    9  C   UNL     1      -7.457  -0.410 -34.212  1.00  0.00     0.083 C 
BRANCH   9  10
HETATM   10  C   UNL     1      -6.439  -1.528 -34.188  1.00  0.00    -0.056 A 
HETATM   11  C   UNL     1      -5.188  -1.342 -33.582  1.00  0.00     0.009 A 
HETATM   12  C   UNL     1      -4.258  -2.384 -33.552  1.00  0.00     0.024 A 
HETATM   13  C   UNL     1      -4.574  -3.613 -34.126  1.00  0.00     0.034 A 
HETATM   14 CL   UNL     1      -3.431  -4.898 -34.077  1.00  0.00    -0.084 Cl
HETATM   15  C   UNL     1      -5.812  -3.809 -34.733  1.00  0.00     0.024 A 
HETATM   16  C   UNL     1      -6.742  -2.768 -34.768  1.00  0.00     0.009 A 
ENDBRANCH   9  10
ENDBRANCH   5   9
ENDBRANCH   1   5
BRANCH   3  17
HETATM   17  C   UNL     1      -5.568   2.934 -33.395  1.00  0.00     0.034 A 
HETATM   18  C   UNL     1      -4.374   2.841 -32.675  1.00  0.00     0.030 A 
HETATM   19  C   UNL     1      -3.519   3.945 -32.559  1.00  0.00     0.014 A 
HETATM   20  C   UNL     1      -3.839   5.164 -33.168  1.00  0.00    -0.023 A 
HETATM   21  C   UNL     1      -5.021   5.241 -33.915  1.00  0.00     0.014 A 
HETATM   22  C   UNL     1      -5.877   4.138 -34.026  1.00  0.00     0.030 A 
BRANCH  20  23
HETATM   23  C   UNL     1      -2.963   6.317 -33.018  1.00  0.00     0.010 A 
HETATM   24  C   UNL     1      -3.125   7.517 -32.284  1.00  0.00     0.152 A 
HETATM   25  N   UNL     1      -2.094   8.356 -32.423  1.00  0.00    -0.187 NA
HETATM   26  N   UNL     1      -1.266   7.699 -33.250  1.00  0.00    -0.289 N 
HETATM   27  H   UNL     1      -0.395   8.146 -33.514  1.00  0.00     0.188 HD
HETATM   28  C   UNL     1      -1.741   6.479 -33.638  1.00  0.00     0.123 A 
ENDBRANCH  20  23
ENDBRANCH   3  17
TORSDOF 6
ENDMDL
MODEL 4
REMARK VINA RESULT:      -7.9      4.636      8.152
REMARK  6 active torsions:
REMARK  status: ('A' for Active; 'I' for Inactive)
REMARK    1  A    between atoms: N_1  and  C_2 
REMARK    2  A    between atoms: C_2  and  C_3 
REMARK    3  A    between atoms: C_2  and  C_11 
REMARK    4  A    between atoms: C_3  and  C_4 
REMARK       I    between atoms: C_11  and  N_13 
REMARK    5  A    between atoms: N_13  and  C_14 
REMARK    6  A    between atoms: C_17  and  C_20 
ROOT
HETATM    1  C   UNL     1      -8.609   2.628 -33.036  1.00  0.00     0.255 C 
HETATM    2  O   UNL     1      -8.974   2.012 -32.038  1.00  0.00    -0.271 OA
HETATM    3  N   UNL     1      -7.704   2.190 -33.985  1.00  0.00    -0.325 N 
HETATM    4  H   UNL     1      -7.556   2.864 -34.735  1.00  0.00     0.169 HD
ENDROOT
BRANCH   1   5
HETATM    5  C   UNL     1      -9.132   4.053 -33.344  1.00  0.00     0.313 C 
BRANCH   5   6
HETATM    6  N   UNL     1      -7.986   4.999 -33.496  1.00  0.00     0.092 N 
HETATM    7  H   UNL     1      -7.148   4.436 -33.665  1.00  0.00     0.313 HD
HETATM    8  H   UNL     1      -7.818   5.442 -32.590  1.00  0.00     0.313 HD
ENDBRANCH   5   6
BRANCH   5   9
HETATM    9  C   UNL     1     -10.030   3.998 -34.594  1.00  0.00     0.083 C 
BRANCH   9  10
HETATM   10  C   UNL     1     -11.328   3.249 -34.389  1.00  0.00    -0.056 A 
HETATM   11  C   UNL     1     -12.277   3.705 -33.464  1.00  0.00     0.009 A 
HETATM   12  C   UNL     1     -13.480   3.016 -33.290  1.00  0.00     0.024 A 
HETATM   13  C   UNL     1     -13.738   1.870 -34.040  1.00  0.00     0.034 A 
HETATM   14 CL   UNL     1     -15.224   1.030 -33.832  1.00  0.00    -0.084 Cl
HETATM   15  C   UNL     1     -12.801   1.406 -34.961  1.00  0.00     0.024 A 
HETATM   16  C   UNL     1     -11.597   2.091 -35.133  1.00  0.00     0.009 A 
ENDBRANCH   9  10
ENDBRANCH   5   9
ENDBRANCH   1   5
BRANCH   3  17
HETATM   17  C   UNL     1      -7.094   0.930 -34.090  1.00  0.00     0.034 A 
HETATM   18  C   UNL     1      -7.643   0.021 -34.999  1.00  0.00     0.030 A 
HETATM   19  C   UNL     1      -7.125  -1.276 -35.118  1.00  0.00     0.014 A 
HETATM   20  C   UNL     1      -6.041  -1.687 -34.334  1.00  0.00    -0.023 A 
HETATM   21  C   UNL     1      -5.475  -0.761 -33.448  1.00  0.00     0.014 A 
HETATM   22  C   UNL     1      -5.998   0.532 -33.326  1.00  0.00     0.030 A 
BRANCH  20  23
HETATM   23  C   UNL     1      -5.527  -3.044 -34.439  1.00  0.00     0.010 A 
HETATM   24  C   UNL     1      -6.143  -4.239 -34.884  1.00  0.00     0.152 A 
HETATM   25  N   UNL     1      -5.337  -5.302 -34.802  1.00  0.00    -0.187 NA
HETATM   26  N   UNL     1      -4.201  -4.796 -34.301  1.00  0.00    -0.289 N 
HETATM   27  H   UNL     1      -3.422  -5.426 -34.140  1.00  0.00     0.188 HD
HETATM   28  C   UNL     1      -4.263  -3.453 -34.062  1.00  0.00     0.123 A 
ENDBRANCH  20  23
ENDBRANCH   3  17
TORSDOF 6
ENDMDL
MODEL 5
REMARK VINA RESULT:      -7.9      3.780      8.478
REMARK  6 active torsions:
REMARK  status: ('A' for Active; 'I' for Inactive)
REMARK    1  A    between atoms: N_1  and  C_2 
REMARK    2  A    between atoms: C_2  and  C_3 
REMARK    3  A    between atoms: C_2  and  C_11 
REMARK    4  A    between atoms: C_3  and  C_4 
REMARK       I    between atoms: C_11  and  N_13 
REMARK    5  A    between atoms: N_13  and  C_14 
REMARK    6  A    between atoms: C_17  and  C_20 
ROOT
HETATM    1  C   UNL     1      -5.581   2.608 -31.377  1.00  0.00     0.255 C 
HETATM    2  O   UNL     1      -6.152   1.950 -30.512  1.00  0.00    -0.271 OA
HETATM    3  N   UNL     1      -4.945   2.109 -32.500  1.00  0.00    -0.325 N 
HETATM    4  H   UNL     1      -4.545   2.840 -33.088  1.00  0.00     0.169 HD
ENDROOT
BRANCH   1   5
HETATM    5  C   UNL     1      -5.480   4.151 -31.288  1.00  0.00     0.313 C 
BRANCH   5   6
HETATM    6  N   UNL     1      -4.822   4.550 -30.008  1.00  0.00     0.092 N 
HETATM    7  H   UNL     1      -5.565   4.808 -29.353  1.00  0.00     0.313 HD
HETATM    8  H   UNL     1      -4.312   5.421 -30.172  1.00  0.00     0.313 HD
ENDBRANCH   5   6
BRANCH   5   9
HETATM    9  C   UNL     1      -4.736   4.676 -32.530  1.00  0.00     0.083 C 
BRANCH   9  10
HETATM   10  C   UNL     1      -3.376   5.265 -32.233  1.00  0.00    -0.056 A 
HETATM   11  C   UNL     1      -3.242   6.621 -31.902  1.00  0.00     0.009 A 
HETATM   12  C   UNL     1      -1.984   7.156 -31.614  1.00  0.00     0.024 A 
HETATM   13  C   UNL     1      -0.857   6.338 -31.655  1.00  0.00     0.034 A 
HETATM   14 CL   UNL     1       0.690   6.996 -31.289  1.00  0.00    -0.084 Cl
HETATM   15  C   UNL     1      -0.977   4.990 -31.985  1.00  0.00     0.024 A 
HETATM   16  C   UNL     1      -2.233   4.455 -32.276  1.00  0.00     0.009 A 
ENDBRANCH   9  10
ENDBRANCH   5   9
ENDBRANCH   1   5
BRANCH   3  17
HETATM   17  C   UNL     1      -4.905   0.784 -32.961  1.00  0.00     0.034 A 
HETATM   18  C   UNL     1      -5.992   0.328 -33.712  1.00  0.00     0.030 A 
HETATM   19  C   UNL     1      -6.049  -1.000 -34.157  1.00  0.00     0.014 A 
HETATM   20  C   UNL     1      -5.015  -1.897 -33.866  1.00  0.00    -0.023 A 
HETATM   21  C   UNL     1      -3.914  -1.425 -33.140  1.00  0.00     0.014 A 
HETATM   22  C   UNL     1      -3.861  -0.099 -32.691  1.00  0.00     0.030 A 
BRANCH  20  23
HETATM   23  C   UNL     1      -5.094  -3.283 -34.303  1.00  0.00     0.010 A 
HETATM   24  C   UNL     1      -6.103  -3.975 -35.017  1.00  0.00     0.152 A 
HETATM   25  N   UNL     1      -5.814  -5.266 -35.206  1.00  0.00    -0.187 NA
HETATM   26  N   UNL     1      -4.620  -5.409 -34.613  1.00  0.00    -0.289 N 
HETATM   27  H   UNL     1      -4.185  -6.326 -34.620  1.00  0.00     0.188 HD
HETATM   28  C   UNL     1      -4.148  -4.256 -34.054  1.00  0.00     0.123 A 
ENDBRANCH  20  23
ENDBRANCH   3  17
TORSDOF 6
ENDMDL
MODEL 6
REMARK VINA RESULT:      -7.9     15.993     17.850
REMARK  6 active torsions:
REMARK  status: ('A' for Active; 'I' for Inactive)
REMARK    1  A    between atoms: N_1  and  C_2 
REMARK    2  A    between atoms: C_2  and  C_3 
REMARK    3  A    between atoms: C_2  and  C_11 
REMARK    4  A    between atoms: C_3  and  C_4 
REMARK       I    between atoms: C_11  and  N_13 
REMARK    5  A    between atoms: N_13  and  C_14 
REMARK    6  A    between atoms: C_17  and  C_20 
ROOT
HETATM    1  C   UNL     1      -2.997 -13.390 -39.177  1.00  0.00     0.255 C 
HETATM    2  O   UNL     1      -3.166 -14.563 -39.499  1.00  0.00    -0.271 OA
HETATM    3  N   UNL     1      -3.967 -12.406 -39.125  1.00  0.00    -0.325 N 
HETATM    4  H   UNL     1      -3.603 -11.503 -38.822  1.00  0.00     0.169 HD
ENDROOT
BRANCH   1   5
HETATM    5  C   UNL     1      -1.596 -12.848 -38.799  1.00  0.00     0.313 C 
BRANCH   5   6
HETATM    6  N   UNL     1      -1.658 -11.371 -38.582  1.00  0.00     0.092 N 
HETATM    7  H   UNL     1      -0.920 -10.950 -39.154  1.00  0.00     0.313 HD
HETATM    8  H   UNL     1      -1.373 -11.181 -37.618  1.00  0.00     0.313 HD
ENDBRANCH   5   6
BRANCH   5   9
HETATM    9  C   UNL     1      -1.081 -13.611 -37.565  1.00  0.00     0.083 C 
BRANCH   9  10
HETATM   10  C   UNL     1      -0.035 -14.658 -37.878  1.00  0.00    -0.056 A 
HETATM   11  C   UNL     1       0.186 -15.731 -37.004  1.00  0.00     0.009 A 
HETATM   12  C   UNL     1       1.144 -16.702 -37.306  1.00  0.00     0.024 A 
HETATM   13  C   UNL     1       1.883 -16.604 -38.483  1.00  0.00     0.034 A 
HETATM   14 CL   UNL     1       3.054 -17.807 -38.859  1.00  0.00    -0.084 Cl
HETATM   15  C   UNL     1       1.674 -15.541 -39.359  1.00  0.00     0.024 A 
HETATM   16  C   UNL     1       0.720 -14.568 -39.056  1.00  0.00     0.009 A 
ENDBRANCH   9  10
ENDBRANCH   5   9
ENDBRANCH   1   5
BRANCH   3  17
HETATM   17  C   UNL     1      -5.353 -12.538 -39.311  1.00  0.00     0.034 A 
HETATM   18  C   UNL     1      -5.834 -12.513 -40.623  1.00  0.00     0.030 A 
HETATM   19  C   UNL     1      -7.209 -12.583 -40.884  1.00  0.00     0.014 A 
HETATM   20  C   UNL     1      -8.131 -12.686 -39.836  1.00  0.00    -0.023 A 
HETATM   21  C   UNL     1      -7.640 -12.743 -38.525  1.00  0.00     0.014 A 
HETATM   22  C   UNL     1      -6.266 -12.668 -38.266  1.00  0.00     0.030 A 
BRANCH  20  23
HETATM   23  C   UNL     1      -9.560 -12.726 -40.110  1.00  0.00     0.010 A 
HETATM   24  C   UNL     1     -10.459 -13.817 -40.195  1.00  0.00     0.152 A 
HETATM   25  N   UNL     1     -11.705 -13.442 -40.498  1.00  0.00    -0.187 NA
HETATM   26  N   UNL     1     -11.612 -12.109 -40.613  1.00  0.00    -0.289 N 
HETATM   27  H   UNL     1     -12.448 -11.586 -40.849  1.00  0.00     0.188 HD
HETATM   28  C   UNL     1     -10.351 -11.632 -40.396  1.00  0.00     0.123 A 
ENDBRANCH  20  23
ENDBRANCH   3  17
TORSDOF 6
ENDMDL
MODEL 7
REMARK VINA RESULT:      -7.9      3.356      7.202
REMARK  6 active torsions:
REMARK  status: ('A' for Active; 'I' for Inactive)
REMARK    1  A    between atoms: N_1  and  C_2 
REMARK    2  A    between atoms: C_2  and  C_3 
REMARK    3  A    between atoms: C_2  and  C_11 
REMARK    4  A    between atoms: C_3  and  C_4 
REMARK       I    between atoms: C_11  and  N_13 
REMARK    5  A    between atoms: N_13  and  C_14 
REMARK    6  A    between atoms: C_17  and  C_20 
ROOT
HETATM    1  C   UNL     1      -6.528   1.604 -33.496  1.00  0.00     0.255 C 
HETATM    2  O   UNL     1      -6.661   1.875 -34.686  1.00  0.00    -0.271 OA
HETATM    3  N   UNL     1      -7.544   1.466 -32.567  1.00  0.00    -0.325 N 
HETATM    4  H   UNL     1      -7.202   1.229 -31.636  1.00  0.00     0.169 HD
ENDROOT
BRANCH   1   5
HETATM    5  C   UNL     1      -5.129   1.403 -32.863  1.00  0.00     0.313 C 
BRANCH   5   6
HETATM    6  N   UNL     1      -4.816   2.532 -31.937  1.00  0.00     0.092 N 
HETATM    7  H   UNL     1      -5.511   3.264 -32.106  1.00  0.00     0.313 HD
HETATM    8  H   UNL     1      -3.930   2.949 -32.234  1.00  0.00     0.313 HD
ENDBRANCH   5   6
BRANCH   5   9
HETATM    9  C   UNL     1      -5.089   0.030 -32.164  1.00  0.00     0.083 C 
BRANCH   9  10
HETATM   10  C   UNL     1      -5.323  -1.142 -33.090  1.00  0.00    -0.056 A 
HETATM   11  C   UNL     1      -4.246  -1.899 -33.570  1.00  0.00     0.009 A 
HETATM   12  C   UNL     1      -4.470  -2.989 -34.414  1.00  0.00     0.024 A 
HETATM   13  C   UNL     1      -5.771  -3.326 -34.781  1.00  0.00     0.034 A 
HETATM   14 CL   UNL     1      -6.047  -4.675 -35.812  1.00  0.00    -0.084 Cl
HETATM   15  C   UNL     1      -6.851  -2.580 -34.312  1.00  0.00     0.024 A 
HETATM   16  C   UNL     1      -6.627  -1.488 -33.472  1.00  0.00     0.009 A 
ENDBRANCH   9  10
ENDBRANCH   5   9
ENDBRANCH   1   5
BRANCH   3  17
HETATM   17  C   UNL     1      -8.931   1.488 -32.784  1.00  0.00     0.034 A 
HETATM   18  C   UNL     1      -9.601   0.261 -32.804  1.00  0.00     0.030 A 
HETATM   19  C   UNL     1     -10.975   0.200 -33.072  1.00  0.00     0.014 A 
HETATM   20  C   UNL     1     -11.709   1.366 -33.319  1.00  0.00    -0.023 A 
HETATM   21  C   UNL     1     -11.037   2.594 -33.265  1.00  0.00     0.014 A 
HETATM   22  C   UNL     1      -9.663   2.654 -33.003  1.00  0.00     0.030 A 
BRANCH  20  23
HETATM   23  C   UNL     1     -13.129   1.294 -33.627  1.00  0.00     0.010 A 
HETATM   24  C   UNL     1     -13.844   0.459 -34.520  1.00  0.00     0.152 A 
HETATM   25  N   UNL     1     -15.154   0.720 -34.542  1.00  0.00    -0.187 NA
HETATM   26  N   UNL     1     -15.286   1.727 -33.665  1.00  0.00    -0.289 N 
HETATM   27  H   UNL     1     -16.212   2.111 -33.508  1.00  0.00     0.188 HD
HETATM   28  C   UNL     1     -14.106   2.110 -33.095  1.00  0.00     0.123 A 
ENDBRANCH  20  23
ENDBRANCH   3  17
TORSDOF 6
ENDMDL
MODEL 8
REMARK VINA RESULT:      -7.7      3.549      8.467
REMARK  6 active torsions:
REMARK  status: ('A' for Active; 'I' for Inactive)
REMARK    1  A    between atoms: N_1  and  C_2 
REMARK    2  A    between atoms: C_2  and  C_3 
REMARK    3  A    between atoms: C_2  and  C_11 
REMARK    4  A    between atoms: C_3  and  C_4 
REMARK       I    between atoms: C_11  and  N_13 
REMARK    5  A    between atoms: N_13  and  C_14 
REMARK    6  A    between atoms: C_17  and  C_20 
ROOT
HETATM    1  C   UNL     1      -5.890   3.338 -32.468  1.00  0.00     0.255 C 
HETATM    2  O   UNL     1      -5.855   2.832 -31.349  1.00  0.00    -0.271 OA
HETATM    3  N   UNL     1      -5.899   2.662 -33.674  1.00  0.00    -0.325 N 
HETATM    4  H   UNL     1      -5.938   3.286 -34.480  1.00  0.00     0.169 HD
ENDROOT
BRANCH   1   5
HETATM    5  C   UNL     1      -5.901   4.875 -32.661  1.00  0.00     0.313 C 
BRANCH   5   6
HETATM    6  N   UNL     1      -5.712   5.560 -31.347  1.00  0.00     0.092 N 
HETATM    7  H   UNL     1      -6.582   6.056 -31.136  1.00  0.00     0.313 HD
HETATM    8  H   UNL     1      -5.019   6.302 -31.473  1.00  0.00     0.313 HD
ENDBRANCH   5   6
BRANCH   5   9
HETATM    9  C   UNL     1      -4.822   5.256 -33.692  1.00  0.00     0.083 C 
BRANCH   9  10
HETATM   10  C   UNL     1      -3.486   5.617 -33.084  1.00  0.00    -0.056 A 
HETATM   11  C   UNL     1      -2.571   4.617 -32.725  1.00  0.00     0.009 A 
HETATM   12  C   UNL     1      -1.332   4.958 -32.176  1.00  0.00     0.024 A 
HETATM   13  C   UNL     1      -1.004   6.298 -31.985  1.00  0.00     0.034 A 
HETATM   14 CL   UNL     1       0.527   6.716 -31.320  1.00  0.00    -0.084 Cl
HETATM   15  C   UNL     1      -1.905   7.301 -32.336  1.00  0.00     0.024 A 
HETATM   16  C   UNL     1      -3.144   6.962 -32.881  1.00  0.00     0.009 A 
ENDBRANCH   9  10
ENDBRANCH   5   9
ENDBRANCH   1   5
BRANCH   3  17
HETATM   17  C   UNL     1      -5.984   1.278 -33.896  1.00  0.00     0.034 A 
HETATM   18  C   UNL     1      -5.102   0.455 -33.190  1.00  0.00     0.030 A 
HETATM   19  C   UNL     1      -5.089  -0.930 -33.401  1.00  0.00     0.014 A 
HETATM   20  C   UNL     1      -5.965  -1.522 -34.319  1.00  0.00    -0.023 A 
HETATM   21  C   UNL     1      -6.869  -0.695 -34.999  1.00  0.00     0.014 A 
HETATM   22  C   UNL     1      -6.877   0.690 -34.791  1.00  0.00     0.030 A 
BRANCH  20  23
HETATM   23  C   UNL     1      -5.926  -2.956 -34.558  1.00  0.00     0.010 A 
HETATM   24  C   UNL     1      -4.864  -3.887 -34.451  1.00  0.00     0.152 A 
HETATM   25  N   UNL     1      -5.224  -5.129 -34.787  1.00  0.00    -0.187 NA
HETATM   26  N   UNL     1      -6.519  -5.001 -35.114  1.00  0.00    -0.289 N 
HETATM   27  H   UNL     1      -7.024  -5.828 -35.415  1.00  0.00     0.188 HD
HETATM   28  C   UNL     1      -6.985  -3.723 -34.999  1.00  0.00     0.123 A 
ENDBRANCH  20  23
ENDBRANCH   3  17
TORSDOF 6
ENDMDL
MODEL 9
REMARK VINA RESULT:      -7.6      5.289      9.871
REMARK  6 active torsions:
REMARK  status: ('A' for Active; 'I' for Inactive)
REMARK    1  A    between atoms: N_1  and  C_2 
REMARK    2  A    between atoms: C_2  and  C_3 
REMARK    3  A    between atoms: C_2  and  C_11 
REMARK    4  A    between atoms: C_3  and  C_4 
REMARK       I    between atoms: C_11  and  N_13 
REMARK    5  A    between atoms: N_13  and  C_14 
REMARK    6  A    between atoms: C_17  and  C_20 
ROOT
HETATM    1  C   UNL     1      -1.994   5.000 -31.518  1.00  0.00     0.255 C 
HETATM    2  O   UNL     1      -1.424   4.826 -32.592  1.00  0.00    -0.271 OA
HETATM    3  N   UNL     1      -3.114   4.327 -31.065  1.00  0.00    -0.325 N 
HETATM    4  H   UNL     1      -3.412   4.630 -30.138  1.00  0.00     0.169 HD
ENDROOT
BRANCH   1   5
HETATM    5  C   UNL     1      -1.510   6.072 -30.510  1.00  0.00     0.313 C 
BRANCH   5   6
HETATM    6  N   UNL     1      -2.605   6.406 -29.550  1.00  0.00     0.092 N 
HETATM    7  H   UNL     1      -2.186   6.451 -28.617  1.00  0.00     0.313 HD
HETATM    8  H   UNL     1      -3.242   5.606 -29.505  1.00  0.00     0.313 HD
ENDBRANCH   5   6
BRANCH   5   9
HETATM    9  C   UNL     1      -0.237   5.560 -29.808  1.00  0.00     0.083 C 
BRANCH   9  10
HETATM   10  C   UNL     1       0.284   6.479 -28.727  1.00  0.00    -0.056 A 
HETATM   11  C   UNL     1       0.906   7.691 -29.058  1.00  0.00     0.009 A 
HETATM   12  C   UNL     1       1.373   8.541 -28.053  1.00  0.00     0.024 A 
HETATM   13  C   UNL     1       1.218   8.185 -26.715  1.00  0.00     0.034 A 
HETATM   14 CL   UNL     1       1.783   9.239 -25.479  1.00  0.00    -0.084 Cl
HETATM   15  C   UNL     1       0.603   6.982 -26.373  1.00  0.00     0.024 A 
HETATM   16  C   UNL     1       0.140   6.129 -27.377  1.00  0.00     0.009 A 
ENDBRANCH   9  10
ENDBRANCH   5   9
ENDBRANCH   1   5
BRANCH   3  17
HETATM   17  C   UNL     1      -3.774   3.239 -31.657  1.00  0.00     0.034 A 
HETATM   18  C   UNL     1      -3.247   1.964 -31.433  1.00  0.00     0.030 A 
HETATM   19  C   UNL     1      -3.818   0.835 -32.037  1.00  0.00     0.014 A 
HETATM   20  C   UNL     1      -4.933   0.960 -32.874  1.00  0.00    -0.023 A 
HETATM   21  C   UNL     1      -5.476   2.237 -33.069  1.00  0.00     0.014 A 
HETATM   22  C   UNL     1      -4.901   3.364 -32.468  1.00  0.00     0.030 A 
BRANCH  20  23
HETATM   23  C   UNL     1      -5.503  -0.211 -33.524  1.00  0.00     0.010 A 
HETATM   24  C   UNL     1      -5.085  -1.564 -33.532  1.00  0.00     0.152 A 
HETATM   25  N   UNL     1      -5.868  -2.346 -34.280  1.00  0.00    -0.187 NA
HETATM   26  N   UNL     1      -6.791  -1.499 -34.759  1.00  0.00    -0.289 N 
HETATM   27  H   UNL     1      -7.511  -1.866 -35.372  1.00  0.00     0.188 HD
HETATM   28  C   UNL     1      -6.615  -0.211 -34.341  1.00  0.00     0.123 A 
ENDBRANCH  20  23
ENDBRANCH   3  17
TORSDOF 6
ENDMDL
MODEL 10
REMARK VINA RESULT:      -7.2     16.215     17.987
REMARK  6 active torsions:
REMARK  status: ('A' for Active; 'I' for Inactive)
REMARK    1  A    between atoms: N_1  and  C_2 
REMARK    2  A    between atoms: C_2  and  C_3 
REMARK    3  A    between atoms: C_2  and  C_11 
REMARK    4  A    between atoms: C_3  and  C_4 
REMARK       I    between atoms: C_11  and  N_13 
REMARK    5  A    between atoms: N_13  and  C_14 
REMARK    6  A    between atoms: C_17  and  C_20 
ROOT
HETATM    1  C   UNL     1      -3.155 -12.817 -37.939  1.00  0.00     0.255 C 
HETATM    2  O   UNL     1      -3.279 -11.664 -38.341  1.00  0.00    -0.271 OA
HETATM    3  N   UNL     1      -4.161 -13.759 -37.827  1.00  0.00    -0.325 N 
HETATM    4  H   UNL     1      -3.829 -14.658 -37.477  1.00  0.00     0.169 HD
ENDROOT
BRANCH   1   5
HETATM    5  C   UNL     1      -1.788 -13.366 -37.461  1.00  0.00     0.313 C 
BRANCH   5   6
HETATM    6  N   UNL     1      -1.953 -14.739 -36.897  1.00  0.00     0.092 N 
HETATM    7  H   UNL     1      -2.828 -14.745 -36.365  1.00  0.00     0.313 HD
HETATM    8  H   UNL     1      -1.226 -14.882 -36.192  1.00  0.00     0.313 HD
ENDBRANCH   5   6
BRANCH   5   9
HETATM    9  C   UNL     1      -0.792 -13.320 -38.636  1.00  0.00     0.083 C 
BRANCH   9  10
HETATM   10  C   UNL     1      -1.055 -14.353 -39.709  1.00  0.00    -0.056 A 
HETATM   11  C   UNL     1      -0.406 -15.595 -39.679  1.00  0.00     0.009 A 
HETATM   12  C   UNL     1      -0.664 -16.550 -40.666  1.00  0.00     0.024 A 
HETATM   13  C   UNL     1      -1.571 -16.267 -41.684  1.00  0.00     0.034 A 
HETATM   14 CL   UNL     1      -1.896 -17.448 -42.892  1.00  0.00    -0.084 Cl
HETATM   15  C   UNL     1      -2.221 -15.035 -41.726  1.00  0.00     0.024 A 
HETATM   16  C   UNL     1      -1.961 -14.078 -40.743  1.00  0.00     0.009 A 
ENDBRANCH   9  10
ENDBRANCH   5   9
ENDBRANCH   1   5
BRANCH   3  17
HETATM   17  C   UNL     1      -5.499 -13.658 -38.242  1.00  0.00     0.034 A 
HETATM   18  C   UNL     1      -5.790 -13.994 -39.568  1.00  0.00     0.030 A 
HETATM   19  C   UNL     1      -7.092 -13.863 -40.071  1.00  0.00     0.014 A 
HETATM   20  C   UNL     1      -8.131 -13.400 -39.255  1.00  0.00    -0.023 A 
HETATM   21  C   UNL     1      -7.838 -13.097 -37.920  1.00  0.00     0.014 A 
HETATM   22  C   UNL     1      -6.536 -13.222 -37.420  1.00  0.00     0.030 A 
BRANCH  20  23
HETATM   23  C   UNL     1      -9.473 -13.236 -39.791  1.00  0.00     0.010 A 
HETATM   24  C   UNL     1     -10.471 -14.191 -40.104  1.00  0.00     0.152 A 
HETATM   25  N   UNL     1     -11.579 -13.640 -40.610  1.00  0.00    -0.187 NA
HETATM   26  N   UNL     1     -11.296 -12.329 -40.628  1.00  0.00    -0.289 N 
HETATM   27  H   UNL     1     -11.998 -11.690 -40.983  1.00  0.00     0.188 HD
HETATM   28  C   UNL     1     -10.049 -12.036 -40.154  1.00  0.00     0.123 A 
ENDBRANCH  20  23
ENDBRANCH   3  17
TORSDOF 6
ENDMDL
