MODEL 1
REMARK VINA RESULT:      -7.5      0.000      0.000
REMARK  3 active torsions:
REMARK  status: ('A' for Active; 'I' for Inactive)
REMARK    1  A    between atoms: C_7  and  C_8 
REMARK       I    between atoms: C_8  and  N_9 
REMARK    2  A    between atoms: N_9  and  C_10 
REMARK    3  A    between atoms: C_13  and  C_14 
REMARK       I    between atoms: C_14  and  N_15 
ROOT
HETATM    1  C   UNL     1      -7.849  -0.014 -34.346  1.00  0.00     0.256 C 
HETATM    2  N   UNL     1      -8.789   0.065 -33.333  1.00  0.00    -0.322 N 
HETATM    3  O   UNL     1      -7.879   0.627 -35.391  1.00  0.00    -0.267 OA
HETATM    4  H   UNL     1      -8.716  -0.585 -32.564  1.00  0.00     0.169 HD
ENDROOT
BRANCH   2   5
HETATM    5  C   UNL     1      -9.885   0.955 -33.277  1.00  0.00     0.052 A 
HETATM    6  C   UNL     1      -9.815   2.298 -32.910  1.00  0.00     0.147 A 
HETATM    7  N   UNL     1     -10.885   3.133 -32.844  1.00  0.00    -0.253 NA
HETATM    8  C   UNL     1     -12.093   2.594 -33.160  1.00  0.00     0.124 A 
HETATM    9  C   UNL     1     -12.271   1.271 -33.539  1.00  0.00     0.039 A 
HETATM   10  C   UNL     1     -11.148   0.446 -33.599  1.00  0.00     0.033 A 
BRANCH   8  11
HETATM   11  C   UNL     1     -13.273   3.510 -33.075  1.00  0.00     0.268 C 
HETATM   12  N   UNL     1     -13.479   4.299 -34.175  1.00  0.00    -0.365 N 
HETATM   13  H   UNL     1     -12.842   4.229 -34.961  1.00  0.00     0.159 HD
HETATM   14  H   UNL     1     -14.252   4.947 -34.193  1.00  0.00     0.159 HD
HETATM   15  O   UNL     1     -14.007   3.555 -32.096  1.00  0.00    -0.266 OA
ENDBRANCH   8  11
ENDBRANCH   2   5
BRANCH   1  16
HETATM   16  C   UNL     1      -6.720  -0.975 -34.138  1.00  0.00     0.034 A 
HETATM   17  C   UNL     1      -5.556  -0.640 -33.439  1.00  0.00     0.041 A 
HETATM   18  C   UNL     1      -4.539  -1.585 -33.299  1.00  0.00     0.035 A 
HETATM   19  C   UNL     1      -4.655  -2.855 -33.864  1.00  0.00     0.030 A 
HETATM   20 CL   UNL     1      -3.117  -1.173 -32.421  1.00  0.00    -0.084 Cl
HETATM   21  C   UNL     1      -5.796  -3.191 -34.598  1.00  0.00    -0.059 A 
HETATM   22  C   UNL     1      -5.939  -4.551 -35.218  1.00  0.00     0.048 C 
HETATM   23  C   UNL     1      -6.830  -2.251 -34.718  1.00  0.00     0.024 A 
ENDBRANCH   1  16
TORSDOF 3
ENDMDL
MODEL 2
REMARK VINA RESULT:      -7.4      3.595      7.821
REMARK  3 active torsions:
REMARK  status: ('A' for Active; 'I' for Inactive)
REMARK    1  A    between atoms: C_7  and  C_8 
REMARK       I    between atoms: C_8  and  N_9 
REMARK    2  A    between atoms: N_9  and  C_10 
REMARK    3  A    between atoms: C_13  and  C_14 
REMARK       I    between atoms: C_14  and  N_15 
ROOT
HETATM    1  C   UNL     1      -9.797   0.329 -33.240  1.00  0.00     0.256 C 
HETATM    2  N   UNL     1      -8.525   0.630 -33.695  1.00  0.00    -0.322 N 
HETATM    3  O   UNL     1     -10.069  -0.547 -32.426  1.00  0.00    -0.267 OA
HETATM    4  H   UNL     1      -8.432   1.303 -34.441  1.00  0.00     0.169 HD
ENDROOT
BRANCH   2   5
HETATM    5  C   UNL     1      -7.316   0.057 -33.238  1.00  0.00     0.052 A 
HETATM    6  C   UNL     1      -6.741   0.279 -31.987  1.00  0.00     0.147 A 
HETATM    7  N   UNL     1      -5.568  -0.268 -31.574  1.00  0.00    -0.253 NA
HETATM    8  C   UNL     1      -4.932  -1.079 -32.462  1.00  0.00     0.124 A 
HETATM    9  C   UNL     1      -5.420  -1.365 -33.729  1.00  0.00     0.039 A 
HETATM   10  C   UNL     1      -6.630  -0.789 -34.115  1.00  0.00     0.033 A 
BRANCH   8  11
HETATM   11  C   UNL     1      -3.634  -1.670 -32.011  1.00  0.00     0.268 C 
HETATM   12  N   UNL     1      -2.783  -0.801 -31.384  1.00  0.00    -0.365 N 
HETATM   13  H   UNL     1      -3.063   0.167 -31.265  1.00  0.00     0.159 HD
HETATM   14  H   UNL     1      -1.886  -1.123 -31.054  1.00  0.00     0.159 HD
HETATM   15  O   UNL     1      -3.347  -2.848 -32.186  1.00  0.00    -0.266 OA
ENDBRANCH   8  11
ENDBRANCH   2   5
BRANCH   1  16
HETATM   16  C   UNL     1     -10.920   1.137 -33.811  1.00  0.00     0.034 A 
HETATM   17  C   UNL     1     -10.746   2.432 -34.311  1.00  0.00     0.041 A 
HETATM   18  C   UNL     1     -11.844   3.131 -34.814  1.00  0.00     0.035 A 
HETATM   19  C   UNL     1     -13.120   2.566 -34.808  1.00  0.00     0.030 A 
HETATM   20 CL   UNL     1     -11.620   4.717 -35.445  1.00  0.00    -0.084 Cl
HETATM   21  C   UNL     1     -13.316   1.288 -34.278  1.00  0.00    -0.059 A 
HETATM   22  C   UNL     1     -14.680   0.663 -34.259  1.00  0.00     0.048 C 
HETATM   23  C   UNL     1     -12.209   0.574 -33.796  1.00  0.00     0.024 A 
ENDBRANCH   1  16
TORSDOF 3
ENDMDL
MODEL 3
REMARK VINA RESULT:      -7.3      3.816      7.975
REMARK  3 active torsions:
REMARK  status: ('A' for Active; 'I' for Inactive)
REMARK    1  A    between atoms: C_7  and  C_8 
REMARK       I    between atoms: C_8  and  N_9 
REMARK    2  A    between atoms: N_9  and  C_10 
REMARK    3  A    between atoms: C_13  and  C_14 
REMARK       I    between atoms: C_14  and  N_15 
ROOT
HETATM    1  C   UNL     1      -9.882   0.259 -33.213  1.00  0.00     0.256 C 
HETATM    2  N   UNL     1      -8.625   0.549 -33.712  1.00  0.00    -0.322 N 
HETATM    3  O   UNL     1     -10.128  -0.590 -32.362  1.00  0.00    -0.267 OA
HETATM    4  H   UNL     1      -8.555   1.196 -34.484  1.00  0.00     0.169 HD
ENDROOT
BRANCH   2   5
HETATM    5  C   UNL     1      -7.401  -0.004 -33.270  1.00  0.00     0.052 A 
HETATM    6  C   UNL     1      -6.778   0.286 -32.056  1.00  0.00     0.147 A 
HETATM    7  N   UNL     1      -5.592  -0.243 -31.657  1.00  0.00    -0.253 NA
HETATM    8  C   UNL     1      -4.993  -1.106 -32.521  1.00  0.00     0.124 A 
HETATM    9  C   UNL     1      -5.529  -1.462 -33.751  1.00  0.00     0.039 A 
HETATM   10  C   UNL     1      -6.752  -0.902 -34.123  1.00  0.00     0.033 A 
BRANCH   8  11
HETATM   11  C   UNL     1      -3.680  -1.678 -32.087  1.00  0.00     0.268 C 
HETATM   12  N   UNL     1      -2.879  -0.826 -31.376  1.00  0.00    -0.365 N 
HETATM   13  H   UNL     1      -3.202   0.118 -31.190  1.00  0.00     0.159 HD
HETATM   14  H   UNL     1      -1.976  -1.136 -31.051  1.00  0.00     0.159 HD
HETATM   15  O   UNL     1      -3.341  -2.827 -32.344  1.00  0.00    -0.266 OA
ENDBRANCH   8  11
ENDBRANCH   2   5
BRANCH   1  16
HETATM   16  C   UNL     1     -11.024   1.043 -33.780  1.00  0.00     0.034 A 
HETATM   17  C   UNL     1     -12.336   0.557 -33.815  1.00  0.00     0.041 A 
HETATM   18  C   UNL     1     -13.347   1.340 -34.375  1.00  0.00     0.035 A 
HETATM   19  C   UNL     1     -13.067   2.593 -34.920  1.00  0.00     0.030 A 
HETATM   20 CL   UNL     1     -14.962   0.745 -34.398  1.00  0.00    -0.084 Cl
HETATM   21  C   UNL     1     -11.755   3.075 -34.927  1.00  0.00    -0.059 A 
HETATM   22  C   UNL     1     -11.432   4.419 -35.512  1.00  0.00     0.048 C 
HETATM   23  C   UNL     1     -10.743   2.301 -34.341  1.00  0.00     0.024 A 
ENDBRANCH   1  16
TORSDOF 3
ENDMDL
MODEL 4
REMARK VINA RESULT:      -7.3      5.940      7.621
REMARK  3 active torsions:
REMARK  status: ('A' for Active; 'I' for Inactive)
REMARK    1  A    between atoms: C_7  and  C_8 
REMARK       I    between atoms: C_8  and  N_9 
REMARK    2  A    between atoms: N_9  and  C_10 
REMARK    3  A    between atoms: C_13  and  C_14 
REMARK       I    between atoms: C_14  and  N_15 
ROOT
HETATM    1  C   UNL     1      -3.518   1.479 -32.180  1.00  0.00     0.256 C 
HETATM    2  N   UNL     1      -3.684   2.641 -32.914  1.00  0.00    -0.322 N 
HETATM    3  O   UNL     1      -2.893   1.389 -31.129  1.00  0.00    -0.267 OA
HETATM    4  H   UNL     1      -4.132   2.575 -33.816  1.00  0.00     0.169 HD
ENDROOT
BRANCH   2   5
HETATM    5  C   UNL     1      -3.253   3.935 -32.541  1.00  0.00     0.052 A 
HETATM    6  C   UNL     1      -3.873   4.748 -31.592  1.00  0.00     0.147 A 
HETATM    7  N   UNL     1      -3.453   5.997 -31.261  1.00  0.00    -0.253 NA
HETATM    8  C   UNL     1      -2.355   6.460 -31.917  1.00  0.00     0.124 A 
HETATM    9  C   UNL     1      -1.665   5.731 -32.875  1.00  0.00     0.039 A 
HETATM   10  C   UNL     1      -2.123   4.450 -33.184  1.00  0.00     0.033 A 
BRANCH   8  11
HETATM   11  C   UNL     1      -1.900   7.841 -31.560  1.00  0.00     0.268 C 
HETATM   12  N   UNL     1      -1.561   8.022 -30.247  1.00  0.00    -0.365 N 
HETATM   13  H   UNL     1      -1.637   7.242 -29.603  1.00  0.00     0.159 HD
HETATM   14  H   UNL     1      -1.249   8.926 -29.927  1.00  0.00     0.159 HD
HETATM   15  O   UNL     1      -1.832   8.747 -32.381  1.00  0.00    -0.266 OA
ENDBRANCH   8  11
ENDBRANCH   2   5
BRANCH   1  16
HETATM   16  C   UNL     1      -4.144   0.240 -32.739  1.00  0.00     0.034 A 
HETATM   17  C   UNL     1      -3.559  -1.025 -32.624  1.00  0.00     0.041 A 
HETATM   18  C   UNL     1      -4.195  -2.134 -33.185  1.00  0.00     0.035 A 
HETATM   19  C   UNL     1      -5.397  -1.997 -33.879  1.00  0.00     0.030 A 
HETATM   20 CL   UNL     1      -3.480  -3.691 -33.022  1.00  0.00    -0.084 Cl
HETATM   21  C   UNL     1      -5.974  -0.734 -34.036  1.00  0.00    -0.059 A 
HETATM   22  C   UNL     1      -7.265  -0.565 -34.783  1.00  0.00     0.048 C 
HETATM   23  C   UNL     1      -5.350   0.377 -33.450  1.00  0.00     0.024 A 
ENDBRANCH   1  16
TORSDOF 3
ENDMDL
MODEL 5
REMARK VINA RESULT:      -7.3      1.328      2.064
REMARK  3 active torsions:
REMARK  status: ('A' for Active; 'I' for Inactive)
REMARK    1  A    between atoms: C_7  and  C_8 
REMARK       I    between atoms: C_8  and  N_9 
REMARK    2  A    between atoms: N_9  and  C_10 
REMARK    3  A    between atoms: C_13  and  C_14 
REMARK       I    between atoms: C_14  and  N_15 
ROOT
HETATM    1  C   UNL     1      -7.468  -0.101 -34.596  1.00  0.00     0.256 C 
HETATM    2  N   UNL     1      -8.403   0.116 -33.599  1.00  0.00    -0.322 N 
HETATM    3  O   UNL     1      -7.495   0.402 -35.714  1.00  0.00    -0.267 OA
HETATM    4  H   UNL     1      -8.334  -0.432 -32.753  1.00  0.00     0.169 HD
ENDROOT
BRANCH   2   5
HETATM    5  C   UNL     1      -9.489   1.019 -33.652  1.00  0.00     0.052 A 
HETATM    6  C   UNL     1      -9.382   2.397 -33.839  1.00  0.00     0.147 A 
HETATM    7  N   UNL     1     -10.439   3.251 -33.869  1.00  0.00    -0.253 NA
HETATM    8  C   UNL     1     -11.670   2.697 -33.700  1.00  0.00     0.124 A 
HETATM    9  C   UNL     1     -11.884   1.340 -33.510  1.00  0.00     0.039 A 
HETATM   10  C   UNL     1     -10.775   0.494 -33.490  1.00  0.00     0.033 A 
BRANCH   8  11
HETATM   11  C   UNL     1     -12.832   3.640 -33.721  1.00  0.00     0.268 C 
HETATM   12  N   UNL     1     -13.163   4.130 -34.955  1.00  0.00    -0.365 N 
HETATM   13  H   UNL     1     -12.621   3.843 -35.764  1.00  0.00     0.159 HD
HETATM   14  H   UNL     1     -13.933   4.774 -35.052  1.00  0.00     0.159 HD
HETATM   15  O   UNL     1     -13.448   3.953 -32.710  1.00  0.00    -0.266 OA
ENDBRANCH   8  11
ENDBRANCH   2   5
BRANCH   1  16
HETATM   16  C   UNL     1      -6.350  -1.042 -34.271  1.00  0.00     0.034 A 
HETATM   17  C   UNL     1      -6.354  -2.387 -34.656  1.00  0.00     0.041 A 
HETATM   18  C   UNL     1      -5.282  -3.209 -34.303  1.00  0.00     0.035 A 
HETATM   19  C   UNL     1      -4.215  -2.715 -33.553  1.00  0.00     0.030 A 
HETATM   20 CL   UNL     1      -5.284  -4.858 -34.796  1.00  0.00    -0.084 Cl
HETATM   21  C   UNL     1      -4.215  -1.383 -33.130  1.00  0.00    -0.059 A 
HETATM   22  C   UNL     1      -3.078  -0.833 -32.319  1.00  0.00     0.048 C 
HETATM   23  C   UNL     1      -5.279  -0.550 -33.506  1.00  0.00     0.024 A 
ENDBRANCH   1  16
TORSDOF 3
ENDMDL
MODEL 6
REMARK VINA RESULT:      -7.2      5.389      8.091
REMARK  3 active torsions:
REMARK  status: ('A' for Active; 'I' for Inactive)
REMARK    1  A    between atoms: C_7  and  C_8 
REMARK       I    between atoms: C_8  and  N_9 
REMARK    2  A    between atoms: N_9  and  C_10 
REMARK    3  A    between atoms: C_13  and  C_14 
REMARK       I    between atoms: C_14  and  N_15 
ROOT
HETATM    1  C   UNL     1      -4.989   1.194 -31.795  1.00  0.00     0.256 C 
HETATM    2  N   UNL     1      -4.515   0.617 -32.960  1.00  0.00    -0.322 N 
HETATM    3  O   UNL     1      -5.739   0.651 -30.991  1.00  0.00    -0.267 OA
HETATM    4  H   UNL     1      -3.984   1.194 -33.597  1.00  0.00     0.169 HD
ENDROOT
BRANCH   2   5
HETATM    5  C   UNL     1      -4.727  -0.715 -33.381  1.00  0.00     0.052 A 
HETATM    6  C   UNL     1      -3.879  -1.790 -33.116  1.00  0.00     0.147 A 
HETATM    7  N   UNL     1      -4.093  -3.061 -33.546  1.00  0.00    -0.253 NA
HETATM    8  C   UNL     1      -5.216  -3.269 -34.285  1.00  0.00     0.124 A 
HETATM    9  C   UNL     1      -6.124  -2.270 -34.603  1.00  0.00     0.039 A 
HETATM   10  C   UNL     1      -5.873  -0.978 -34.139  1.00  0.00     0.033 A 
BRANCH   8  11
HETATM   11  C   UNL     1      -5.444  -4.667 -34.769  1.00  0.00     0.268 C 
HETATM   12  N   UNL     1      -4.490  -5.575 -34.399  1.00  0.00    -0.365 N 
HETATM   13  H   UNL     1      -3.702  -5.266 -33.839  1.00  0.00     0.159 HD
HETATM   14  H   UNL     1      -4.570  -6.538 -34.689  1.00  0.00     0.159 HD
HETATM   15  O   UNL     1      -6.414  -4.982 -35.446  1.00  0.00    -0.266 OA
ENDBRANCH   8  11
ENDBRANCH   2   5
BRANCH   1  16
HETATM   16  C   UNL     1      -4.552   2.598 -31.518  1.00  0.00     0.034 A 
HETATM   17  C   UNL     1      -5.307   3.490 -30.749  1.00  0.00     0.041 A 
HETATM   18  C   UNL     1      -4.843   4.791 -30.547  1.00  0.00     0.035 A 
HETATM   19  C   UNL     1      -3.647   5.224 -31.118  1.00  0.00     0.030 A 
HETATM   20 CL   UNL     1      -5.767   5.878 -29.583  1.00  0.00    -0.084 Cl
HETATM   21  C   UNL     1      -2.901   4.356 -31.920  1.00  0.00    -0.059 A 
HETATM   22  C   UNL     1      -1.613   4.803 -32.548  1.00  0.00     0.048 C 
HETATM   23  C   UNL     1      -3.353   3.041 -32.103  1.00  0.00     0.024 A 
ENDBRANCH   1  16
TORSDOF 3
ENDMDL
MODEL 7
REMARK VINA RESULT:      -7.1      6.113      7.772
REMARK  3 active torsions:
REMARK  status: ('A' for Active; 'I' for Inactive)
REMARK    1  A    between atoms: C_7  and  C_8 
REMARK       I    between atoms: C_8  and  N_9 
REMARK    2  A    between atoms: N_9  and  C_10 
REMARK    3  A    between atoms: C_13  and  C_14 
REMARK       I    between atoms: C_14  and  N_15 
ROOT
HETATM    1  C   UNL     1      -3.346   1.587 -32.025  1.00  0.00     0.256 C 
HETATM    2  N   UNL     1      -3.485   2.704 -32.831  1.00  0.00    -0.322 N 
HETATM    3  O   UNL     1      -2.801   1.570 -30.927  1.00  0.00    -0.267 OA
HETATM    4  H   UNL     1      -3.861   2.578 -33.759  1.00  0.00     0.169 HD
ENDROOT
BRANCH   2   5
HETATM    5  C   UNL     1      -3.115   4.027 -32.497  1.00  0.00     0.052 A 
HETATM    6  C   UNL     1      -3.791   4.849 -31.596  1.00  0.00     0.147 A 
HETATM    7  N   UNL     1      -3.429   6.126 -31.304  1.00  0.00    -0.253 NA
HETATM    8  C   UNL     1      -2.334   6.608 -31.950  1.00  0.00     0.124 A 
HETATM    9  C   UNL     1      -1.592   5.872 -32.862  1.00  0.00     0.039 A 
HETATM   10  C   UNL     1      -1.991   4.563 -33.133  1.00  0.00     0.033 A 
BRANCH   8  11
HETATM   11  C   UNL     1      -1.944   8.019 -31.636  1.00  0.00     0.268 C 
HETATM   12  N   UNL     1      -1.743   8.287 -30.309  1.00  0.00    -0.365 N 
HETATM   13  H   UNL     1      -1.869   7.544 -29.629  1.00  0.00     0.159 HD
HETATM   14  H   UNL     1      -1.482   9.216 -30.016  1.00  0.00     0.159 HD
HETATM   15  O   UNL     1      -1.810   8.876 -32.500  1.00  0.00    -0.266 OA
ENDBRANCH   8  11
ENDBRANCH   2   5
BRANCH   1  16
HETATM   16  C   UNL     1      -3.898   0.303 -32.561  1.00  0.00     0.034 A 
HETATM   17  C   UNL     1      -5.004   0.250 -33.415  1.00  0.00     0.041 A 
HETATM   18  C   UNL     1      -5.472  -0.987 -33.863  1.00  0.00     0.035 A 
HETATM   19  C   UNL     1      -4.866  -2.175 -33.454  1.00  0.00     0.030 A 
HETATM   20 CL   UNL     1      -6.823  -1.044 -34.929  1.00  0.00    -0.084 Cl
HETATM   21  C   UNL     1      -3.783  -2.140 -32.571  1.00  0.00    -0.059 A 
HETATM   22  C   UNL     1      -3.119  -3.406 -32.117  1.00  0.00     0.048 C 
HETATM   23  C   UNL     1      -3.296  -0.897 -32.142  1.00  0.00     0.024 A 
ENDBRANCH   1  16
TORSDOF 3
ENDMDL
MODEL 8
REMARK VINA RESULT:      -7.1      5.116      7.879
REMARK  3 active torsions:
REMARK  status: ('A' for Active; 'I' for Inactive)
REMARK    1  A    between atoms: C_7  and  C_8 
REMARK       I    between atoms: C_8  and  N_9 
REMARK    2  A    between atoms: N_9  and  C_10 
REMARK    3  A    between atoms: C_13  and  C_14 
REMARK       I    between atoms: C_14  and  N_15 
ROOT
HETATM    1  C   UNL     1      -4.856   1.102 -31.742  1.00  0.00     0.256 C 
HETATM    2  N   UNL     1      -4.913   0.708 -33.068  1.00  0.00    -0.322 N 
HETATM    3  O   UNL     1      -5.130   0.393 -30.780  1.00  0.00    -0.267 OA
HETATM    4  H   UNL     1      -4.763   1.407 -33.780  1.00  0.00     0.169 HD
ENDROOT
BRANCH   2   5
HETATM    5  C   UNL     1      -5.201  -0.593 -33.542  1.00  0.00     0.052 A 
HETATM    6  C   UNL     1      -6.464  -1.055 -33.911  1.00  0.00     0.147 A 
HETATM    7  N   UNL     1      -6.721  -2.316 -34.348  1.00  0.00    -0.253 NA
HETATM    8  C   UNL     1      -5.659  -3.162 -34.416  1.00  0.00     0.124 A 
HETATM    9  C   UNL     1      -4.363  -2.801 -34.074  1.00  0.00     0.039 A 
HETATM   10  C   UNL     1      -4.137  -1.496 -33.635  1.00  0.00     0.033 A 
BRANCH   8  11
HETATM   11  C   UNL     1      -5.946  -4.554 -34.885  1.00  0.00     0.268 C 
HETATM   12  N   UNL     1      -7.118  -4.706 -35.575  1.00  0.00    -0.365 N 
HETATM   13  H   UNL     1      -7.714  -3.898 -35.725  1.00  0.00     0.159 HD
HETATM   14  H   UNL     1      -7.385  -5.615 -35.922  1.00  0.00     0.159 HD
HETATM   15  O   UNL     1      -5.190  -5.493 -34.672  1.00  0.00    -0.266 OA
ENDBRANCH   8  11
ENDBRANCH   2   5
BRANCH   1  16
HETATM   16  C   UNL     1      -4.438   2.516 -31.483  1.00  0.00     0.034 A 
HETATM   17  C   UNL     1      -3.200   3.028 -31.885  1.00  0.00     0.041 A 
HETATM   18  C   UNL     1      -2.874   4.354 -31.593  1.00  0.00     0.035 A 
HETATM   19  C   UNL     1      -3.756   5.172 -30.888  1.00  0.00     0.030 A 
HETATM   20 CL   UNL     1      -1.357   4.983 -32.107  1.00  0.00    -0.084 Cl
HETATM   21  C   UNL     1      -4.981   4.663 -30.447  1.00  0.00    -0.059 A 
HETATM   22  C   UNL     1      -5.943   5.526 -29.683  1.00  0.00     0.048 C 
HETATM   23  C   UNL     1      -5.321   3.339 -30.762  1.00  0.00     0.024 A 
ENDBRANCH   1  16
TORSDOF 3
ENDMDL
MODEL 9
REMARK VINA RESULT:      -7.0      5.942      7.605
REMARK  3 active torsions:
REMARK  status: ('A' for Active; 'I' for Inactive)
REMARK    1  A    between atoms: C_7  and  C_8 
REMARK       I    between atoms: C_8  and  N_9 
REMARK    2  A    between atoms: N_9  and  C_10 
REMARK    3  A    between atoms: C_13  and  C_14 
REMARK       I    between atoms: C_14  and  N_15 
ROOT
HETATM    1  C   UNL     1      -5.011   1.934 -32.305  1.00  0.00     0.256 C 
HETATM    2  N   UNL     1      -4.764   3.004 -33.147  1.00  0.00    -0.322 N 
HETATM    3  O   UNL     1      -4.518   1.781 -31.193  1.00  0.00    -0.267 OA
HETATM    4  H   UNL     1      -5.146   2.974 -34.081  1.00  0.00     0.169 HD
ENDROOT
BRANCH   2   5
HETATM    5  C   UNL     1      -3.986   4.145 -32.845  1.00  0.00     0.052 A 
HETATM    6  C   UNL     1      -4.480   5.341 -32.324  1.00  0.00     0.147 A 
HETATM    7  N   UNL     1      -3.717   6.434 -32.057  1.00  0.00    -0.253 NA
HETATM    8  C   UNL     1      -2.389   6.326 -32.329  1.00  0.00     0.124 A 
HETATM    9  C   UNL     1      -1.799   5.182 -32.846  1.00  0.00     0.039 A 
HETATM   10  C   UNL     1      -2.613   4.078 -33.102  1.00  0.00     0.033 A 
BRANCH   8  11
HETATM   11  C   UNL     1      -1.552   7.534 -32.046  1.00  0.00     0.268 C 
HETATM   12  N   UNL     1      -0.615   7.377 -31.061  1.00  0.00    -0.365 N 
HETATM   13  H   UNL     1      -0.541   6.484 -30.586  1.00  0.00     0.159 HD
HETATM   14  H   UNL     1      -0.014   8.147 -30.809  1.00  0.00     0.159 HD
HETATM   15  O   UNL     1      -1.689   8.590 -32.651  1.00  0.00    -0.266 OA
ENDBRANCH   8  11
ENDBRANCH   2   5
BRANCH   1  16
HETATM   16  C   UNL     1      -5.945   0.882 -32.816  1.00  0.00     0.034 A 
HETATM   17  C   UNL     1      -7.326   0.921 -32.597  1.00  0.00     0.041 A 
HETATM   18  C   UNL     1      -8.132  -0.106 -33.092  1.00  0.00     0.035 A 
HETATM   19  C   UNL     1      -7.580  -1.183 -33.785  1.00  0.00     0.030 A 
HETATM   20 CL   UNL     1      -9.833  -0.043 -32.834  1.00  0.00    -0.084 Cl
HETATM   21  C   UNL     1      -6.198  -1.254 -33.979  1.00  0.00    -0.059 A 
HETATM   22  C   UNL     1      -5.583  -2.406 -34.719  1.00  0.00     0.048 C 
HETATM   23  C   UNL     1      -5.389  -0.211 -33.505  1.00  0.00     0.024 A 
ENDBRANCH   1  16
TORSDOF 3
ENDMDL
MODEL 10
REMARK VINA RESULT:      -6.9      5.840      7.704
REMARK  3 active torsions:
REMARK  status: ('A' for Active; 'I' for Inactive)
REMARK    1  A    between atoms: C_7  and  C_8 
REMARK       I    between atoms: C_8  and  N_9 
REMARK    2  A    between atoms: N_9  and  C_10 
REMARK    3  A    between atoms: C_13  and  C_14 
REMARK       I    between atoms: C_14  and  N_15 
ROOT
HETATM    1  C   UNL     1      -5.179   2.101 -32.243  1.00  0.00     0.256 C 
HETATM    2  N   UNL     1      -4.639   2.960 -33.184  1.00  0.00    -0.322 N 
HETATM    3  O   UNL     1      -4.998   2.173 -31.033  1.00  0.00    -0.267 OA
HETATM    4  H   UNL     1      -4.775   2.743 -34.161  1.00  0.00     0.169 HD
ENDROOT
BRANCH   2   5
HETATM    5  C   UNL     1      -3.871   4.116 -32.919  1.00  0.00     0.052 A 
HETATM    6  C   UNL     1      -4.389   5.386 -32.663  1.00  0.00     0.147 A 
HETATM    7  N   UNL     1      -3.632   6.490 -32.428  1.00  0.00    -0.253 NA
HETATM    8  C   UNL     1      -2.284   6.315 -32.452  1.00  0.00     0.124 A 
HETATM    9  C   UNL     1      -1.669   5.096 -32.694  1.00  0.00     0.039 A 
HETATM   10  C   UNL     1      -2.479   3.984 -32.927  1.00  0.00     0.033 A 
BRANCH   8  11
HETATM   11  C   UNL     1      -1.451   7.534 -32.205  1.00  0.00     0.268 C 
HETATM   12  N   UNL     1      -0.322   7.328 -31.459  1.00  0.00    -0.365 N 
HETATM   13  H   UNL     1      -0.116   6.394 -31.120  1.00  0.00     0.159 HD
HETATM   14  H   UNL     1       0.290   8.101 -31.246  1.00  0.00     0.159 HD
HETATM   15  O   UNL     1      -1.751   8.640 -32.638  1.00  0.00    -0.266 OA
ENDBRANCH   8  11
ENDBRANCH   2   5
BRANCH   1  16
HETATM   16  C   UNL     1      -6.037   0.991 -32.765  1.00  0.00     0.034 A 
HETATM   17  C   UNL     1      -5.530  -0.067 -33.526  1.00  0.00     0.041 A 
HETATM   18  C   UNL     1      -6.395  -1.059 -33.992  1.00  0.00     0.035 A 
HETATM   19  C   UNL     1      -7.764  -1.000 -33.728  1.00  0.00     0.030 A 
HETATM   20 CL   UNL     1      -5.763  -2.368 -34.913  1.00  0.00    -0.084 Cl
HETATM   21  C   UNL     1      -8.291   0.071 -33.001  1.00  0.00    -0.059 A 
HETATM   22  C   UNL     1      -9.760   0.154 -32.709  1.00  0.00     0.048 C 
HETATM   23  C   UNL     1      -7.419   1.054 -32.510  1.00  0.00     0.024 A 
ENDBRANCH   1  16
TORSDOF 3
ENDMDL
