MODEL 1
REMARK VINA RESULT:      -9.1      0.000      0.000
REMARK  6 active torsions:
REMARK  status: ('A' for Active; 'I' for Inactive)
REMARK    1  A    between atoms: C_7  and  S_8 
REMARK    2  A    between atoms: S_8  and  C_9 
REMARK    3  A    between atoms: C_9  and  C_10 
REMARK    4  A    between atoms: C_18  and  C_19 
REMARK    5  A    between atoms: C_26  and  C_27 
REMARK    6  A    between atoms: C_27  and  O_28 
ROOT
HETATM    1  C   UNL     1      -7.044   4.814 -28.925  1.00  0.00     0.070 C 
HETATM    2  C   UNL     1      -5.954   4.121 -29.705  1.00  0.00     0.037 A 
HETATM    3  N   UNL     1      -6.048   2.736 -29.765  1.00  0.00    -0.192 N 
HETATM    4  C   UNL     1      -5.155   1.960 -30.405  1.00  0.00     0.726 A 
HETATM    5  N   UNL     1      -4.073   2.536 -31.010  1.00  0.00    -0.082 N 
HETATM    6  N   UNL     1      -3.272   1.605 -31.571  1.00  0.00    -0.128 NA
HETATM    7  C   UNL     1      -3.978   0.491 -31.334  1.00  0.00     0.226 A 
HETATM    8  N   UNL     1      -5.122   0.668 -30.594  1.00  0.00    -0.035 NA
HETATM    9  C   UNL     1      -3.828   3.988 -31.056  1.00  0.00     0.204 A 
HETATM   10  C   UNL     1      -4.916   4.750 -30.307  1.00  0.00     0.070 A 
HETATM   11  H   UNL     1      -6.851   2.295 -29.323  1.00  0.00     0.184 HD
ENDROOT
BRANCH   7  12
HETATM   12  S   UNL     1      -3.531  -1.079 -31.937  1.00  0.00    -0.083 SA
BRANCH  12  13
HETATM   13  C   UNL     1      -4.117  -0.993 -33.651  1.00  0.00     0.123 C 
BRANCH  13  14
HETATM   14  C   UNL     1      -4.771  -2.293 -34.066  1.00  0.00    -0.027 A 
HETATM   15  C   UNL     1      -6.084  -2.361 -34.560  1.00  0.00     0.041 A 
HETATM   16 CL   UNL     1      -7.067  -0.953 -34.765  1.00  0.00    -0.084 Cl
HETATM   17  C   UNL     1      -6.653  -3.592 -34.904  1.00  0.00     0.024 A 
HETATM   18  C   UNL     1      -5.925  -4.772 -34.750  1.00  0.00     0.002 A 
HETATM   19  C   UNL     1      -4.626  -4.722 -34.252  1.00  0.00     0.001 A 
HETATM   20  C   UNL     1      -4.053  -3.495 -33.915  1.00  0.00     0.009 A 
ENDBRANCH  13  14
ENDBRANCH  12  13
ENDBRANCH   7  12
BRANCH   9  21
HETATM   21  C   UNL     1      -3.684   4.435 -32.510  1.00  0.00    -0.006 A 
HETATM   22  C   UNL     1      -2.463   4.885 -33.043  1.00  0.00     0.042 A 
HETATM   23 CL   UNL     1      -1.018   4.983 -32.101  1.00  0.00    -0.084 Cl
HETATM   24  C   UNL     1      -2.373   5.285 -34.381  1.00  0.00     0.024 A 
HETATM   25  C   UNL     1      -3.493   5.240 -35.209  1.00  0.00     0.002 A 
HETATM   26  C   UNL     1      -4.709   4.797 -34.702  1.00  0.00     0.001 A 
HETATM   27  C   UNL     1      -4.807   4.401 -33.367  1.00  0.00     0.011 A 
ENDBRANCH   9  21
BRANCH  10  28
HETATM   28  C   UNL     1      -4.811   6.221 -30.312  1.00  0.00     0.293 C 
HETATM   29  O   UNL     1      -5.436   6.953 -31.063  1.00  0.00    -0.259 OA
BRANCH  28  30
HETATM   30  O   UNL     1      -3.928   6.610 -29.363  1.00  0.00    -0.323 OA
HETATM   31  C   UNL     1      -2.773   7.269 -29.887  1.00  0.00     0.213 C 
ENDBRANCH  28  30
ENDBRANCH  10  28
TORSDOF 6
ENDMDL
MODEL 2
REMARK VINA RESULT:      -8.4      3.489      7.319
REMARK  6 active torsions:
REMARK  status: ('A' for Active; 'I' for Inactive)
REMARK    1  A    between atoms: C_7  and  S_8 
REMARK    2  A    between atoms: S_8  and  C_9 
REMARK    3  A    between atoms: C_9  and  C_10 
REMARK    4  A    between atoms: C_18  and  C_19 
REMARK    5  A    between atoms: C_26  and  C_27 
REMARK    6  A    between atoms: C_27  and  O_28 
ROOT
HETATM    1  C   UNL     1      -8.989   3.833 -30.285  1.00  0.00     0.070 C 
HETATM    2  C   UNL     1      -8.086   3.622 -31.475  1.00  0.00     0.037 A 
HETATM    3  N   UNL     1      -7.173   4.639 -31.722  1.00  0.00    -0.192 N 
HETATM    4  C   UNL     1      -6.303   4.621 -32.748  1.00  0.00     0.726 A 
HETATM    5  N   UNL     1      -6.318   3.574 -33.625  1.00  0.00    -0.082 N 
HETATM    6  N   UNL     1      -5.403   3.740 -34.604  1.00  0.00    -0.128 NA
HETATM    7  C   UNL     1      -4.815   4.877 -34.206  1.00  0.00     0.226 A 
HETATM    8  N   UNL     1      -5.362   5.461 -33.090  1.00  0.00    -0.035 NA
HETATM    9  C   UNL     1      -7.207   2.406 -33.503  1.00  0.00     0.204 A 
HETATM   10  C   UNL     1      -8.131   2.546 -32.297  1.00  0.00     0.070 A 
HETATM   11  H   UNL     1      -7.148   5.423 -31.074  1.00  0.00     0.184 HD
ENDROOT
BRANCH   7  12
HETATM   12  S   UNL     1      -3.431   5.574 -34.999  1.00  0.00    -0.083 SA
BRANCH  12  13
HETATM   13  C   UNL     1      -2.073   4.619 -34.268  1.00  0.00     0.123 C 
BRANCH  13  14
HETATM   14  C   UNL     1      -1.560   5.282 -33.008  1.00  0.00    -0.027 A 
HETATM   15  C   UNL     1      -1.854   4.802 -31.721  1.00  0.00     0.041 A 
HETATM   16 CL   UNL     1      -2.811   3.386 -31.460  1.00  0.00    -0.084 Cl
HETATM   17  C   UNL     1      -1.378   5.469 -30.587  1.00  0.00     0.024 A 
HETATM   18  C   UNL     1      -0.614   6.628 -30.719  1.00  0.00     0.002 A 
HETATM   19  C   UNL     1      -0.323   7.122 -31.988  1.00  0.00     0.001 A 
HETATM   20  C   UNL     1      -0.790   6.455 -33.122  1.00  0.00     0.009 A 
ENDBRANCH  13  14
ENDBRANCH  12  13
ENDBRANCH   7  12
BRANCH   9  21
HETATM   21  C   UNL     1      -6.371   1.128 -33.464  1.00  0.00    -0.006 A 
HETATM   22  C   UNL     1      -6.628   0.033 -34.308  1.00  0.00     0.042 A 
HETATM   23 CL   UNL     1      -7.920   0.027 -35.456  1.00  0.00    -0.084 Cl
HETATM   24  C   UNL     1      -5.837  -1.119 -34.243  1.00  0.00     0.024 A 
HETATM   25  C   UNL     1      -4.776  -1.199 -33.342  1.00  0.00     0.002 A 
HETATM   26  C   UNL     1      -4.504  -0.126 -32.500  1.00  0.00     0.001 A 
HETATM   27  C   UNL     1      -5.293   1.024 -32.557  1.00  0.00     0.011 A 
ENDBRANCH   9  21
BRANCH  10  28
HETATM   28  C   UNL     1      -9.047   1.420 -32.035  1.00  0.00     0.293 C 
HETATM   29  O   UNL     1      -8.799   0.491 -31.283  1.00  0.00    -0.259 OA
BRANCH  28  30
HETATM   30  O   UNL     1     -10.182   1.592 -32.752  1.00  0.00    -0.323 OA
HETATM   31  C   UNL     1     -10.765   0.370 -33.209  1.00  0.00     0.213 C 
ENDBRANCH  28  30
ENDBRANCH  10  28
TORSDOF 6
ENDMDL
MODEL 3
REMARK VINA RESULT:      -8.3      1.660      2.253
REMARK  6 active torsions:
REMARK  status: ('A' for Active; 'I' for Inactive)
REMARK    1  A    between atoms: C_7  and  S_8 
REMARK    2  A    between atoms: S_8  and  C_9 
REMARK    3  A    between atoms: C_9  and  C_10 
REMARK    4  A    between atoms: C_18  and  C_19 
REMARK    5  A    between atoms: C_26  and  C_27 
REMARK    6  A    between atoms: C_27  and  O_28 
ROOT
HETATM    1  C   UNL     1      -6.277   7.887 -29.487  1.00  0.00     0.070 C 
HETATM    2  C   UNL     1      -5.687   6.593 -29.992  1.00  0.00     0.037 A 
HETATM    3  N   UNL     1      -6.536   5.494 -29.958  1.00  0.00    -0.192 N 
HETATM    4  C   UNL     1      -6.170   4.262 -30.356  1.00  0.00     0.726 A 
HETATM    5  N   UNL     1      -4.893   4.047 -30.791  1.00  0.00    -0.082 N 
HETATM    6  N   UNL     1      -4.698   2.751 -31.117  1.00  0.00    -0.128 NA
HETATM    7  C   UNL     1      -5.929   2.257 -30.928  1.00  0.00     0.226 A 
HETATM    8  N   UNL     1      -6.848   3.148 -30.431  1.00  0.00    -0.035 NA
HETATM    9  C   UNL     1      -3.871   5.101 -30.907  1.00  0.00     0.204 A 
HETATM   10  C   UNL     1      -4.416   6.446 -30.437  1.00  0.00     0.070 A 
HETATM   11  H   UNL     1      -7.491   5.641 -29.640  1.00  0.00     0.184 HD
ENDROOT
BRANCH   7  12
HETATM   12  S   UNL     1      -6.379   0.620 -31.309  1.00  0.00    -0.083 SA
BRANCH  12  13
HETATM   13  C   UNL     1      -6.237   0.613 -33.117  1.00  0.00     0.123 C 
BRANCH  13  14
HETATM   14  C   UNL     1      -5.940  -0.777 -33.633  1.00  0.00    -0.027 A 
HETATM   15  C   UNL     1      -4.641  -1.310 -33.681  1.00  0.00     0.041 A 
HETATM   16 CL   UNL     1      -3.261  -0.430 -33.123  1.00  0.00    -0.084 Cl
HETATM   17  C   UNL     1      -4.416  -2.593 -34.195  1.00  0.00     0.024 A 
HETATM   18  C   UNL     1      -5.479  -3.355 -34.678  1.00  0.00     0.002 A 
HETATM   19  C   UNL     1      -6.771  -2.836 -34.647  1.00  0.00     0.001 A 
HETATM   20  C   UNL     1      -7.000  -1.561 -34.129  1.00  0.00     0.009 A 
ENDBRANCH  13  14
ENDBRANCH  12  13
ENDBRANCH   7  12
BRANCH   9  21
HETATM   21  C   UNL     1      -3.340   5.143 -32.339  1.00  0.00    -0.006 A 
HETATM   22  C   UNL     1      -1.967   5.085 -32.636  1.00  0.00     0.042 A 
HETATM   23 CL   UNL     1      -0.754   4.972 -31.410  1.00  0.00    -0.084 Cl
HETATM   24  C   UNL     1      -1.521   5.125 -33.962  1.00  0.00     0.024 A 
HETATM   25  C   UNL     1      -2.434   5.219 -35.011  1.00  0.00     0.002 A 
HETATM   26  C   UNL     1      -3.796   5.277 -34.739  1.00  0.00     0.001 A 
HETATM   27  C   UNL     1      -4.246   5.242 -33.418  1.00  0.00     0.011 A 
ENDBRANCH   9  21
BRANCH  10  28
HETATM   28  C   UNL     1      -3.502   7.599 -30.540  1.00  0.00     0.293 C 
HETATM   29  O   UNL     1      -3.490   8.386 -31.473  1.00  0.00    -0.259 OA
BRANCH  28  30
HETATM   30  O   UNL     1      -2.702   7.634 -29.448  1.00  0.00    -0.323 OA
HETATM   31  C   UNL     1      -1.389   8.131 -29.713  1.00  0.00     0.213 C 
ENDBRANCH  28  30
ENDBRANCH  10  28
TORSDOF 6
ENDMDL
MODEL 4
REMARK VINA RESULT:      -8.1      4.081      7.399
REMARK  6 active torsions:
REMARK  status: ('A' for Active; 'I' for Inactive)
REMARK    1  A    between atoms: C_7  and  S_8 
REMARK    2  A    between atoms: S_8  and  C_9 
REMARK    3  A    between atoms: C_9  and  C_10 
REMARK    4  A    between atoms: C_18  and  C_19 
REMARK    5  A    between atoms: C_26  and  C_27 
REMARK    6  A    between atoms: C_27  and  O_28 
ROOT
HETATM    1  C   UNL     1      -5.962   1.338 -29.786  1.00  0.00     0.070 C 
HETATM    2  C   UNL     1      -5.721   2.734 -30.305  1.00  0.00     0.037 A 
HETATM    3  N   UNL     1      -5.470   3.698 -29.337  1.00  0.00    -0.192 N 
HETATM    4  C   UNL     1      -5.249   4.994 -29.621  1.00  0.00     0.726 A 
HETATM    5  N   UNL     1      -5.300   5.417 -30.920  1.00  0.00    -0.082 N 
HETATM    6  N   UNL     1      -5.087   6.747 -31.012  1.00  0.00    -0.128 NA
HETATM    7  C   UNL     1      -4.834   7.049 -29.730  1.00  0.00     0.226 A 
HETATM    8  N   UNL     1      -4.956   6.005 -28.847  1.00  0.00    -0.035 NA
HETATM    9  C   UNL     1      -5.537   4.527 -32.070  1.00  0.00     0.204 A 
HETATM   10  C   UNL     1      -5.760   3.089 -31.612  1.00  0.00     0.070 A 
HETATM   11  H   UNL     1      -5.425   3.396 -28.367  1.00  0.00     0.184 HD
ENDROOT
BRANCH   7  12
HETATM   12  S   UNL     1      -4.346   8.630 -29.192  1.00  0.00    -0.083 SA
BRANCH  12  13
HETATM   13  C   UNL     1      -3.154   9.101 -30.475  1.00  0.00     0.123 C 
BRANCH  13  14
HETATM   14  C   UNL     1      -1.903   8.253 -30.391  1.00  0.00    -0.027 A 
HETATM   15  C   UNL     1      -1.303   7.667 -31.518  1.00  0.00     0.041 A 
HETATM   16 CL   UNL     1      -1.927   7.887 -33.115  1.00  0.00    -0.084 Cl
HETATM   17  C   UNL     1      -0.163   6.867 -31.383  1.00  0.00     0.024 A 
HETATM   18  C   UNL     1       0.387   6.632 -30.123  1.00  0.00     0.002 A 
HETATM   19  C   UNL     1      -0.202   7.197 -28.995  1.00  0.00     0.001 A 
HETATM   20  C   UNL     1      -1.335   8.001 -29.128  1.00  0.00     0.009 A 
ENDBRANCH  13  14
ENDBRANCH  12  13
ENDBRANCH   7  12
BRANCH   9  21
HETATM   21  C   UNL     1      -4.387   4.662 -33.066  1.00  0.00    -0.006 A 
HETATM   22  C   UNL     1      -3.061   4.332 -32.735  1.00  0.00     0.042 A 
HETATM   23 CL   UNL     1      -2.608   3.757 -31.170  1.00  0.00    -0.084 Cl
HETATM   24  C   UNL     1      -2.036   4.468 -33.678  1.00  0.00     0.024 A 
HETATM   25  C   UNL     1      -2.314   4.929 -34.964  1.00  0.00     0.002 A 
HETATM   26  C   UNL     1      -3.619   5.259 -35.311  1.00  0.00     0.001 A 
HETATM   27  C   UNL     1      -4.646   5.130 -34.374  1.00  0.00     0.011 A 
ENDBRANCH   9  21
BRANCH  10  28
HETATM   28  C   UNL     1      -5.969   2.086 -32.673  1.00  0.00     0.293 C 
HETATM   29  O   UNL     1      -5.119   1.294 -33.048  1.00  0.00    -0.259 OA
BRANCH  28  30
HETATM   30  O   UNL     1      -7.234   2.191 -33.144  1.00  0.00    -0.323 OA
HETATM   31  C   UNL     1      -8.057   1.064 -32.836  1.00  0.00     0.213 C 
ENDBRANCH  28  30
ENDBRANCH  10  28
TORSDOF 6
ENDMDL
MODEL 5
REMARK VINA RESULT:      -8.0      2.033      3.419
REMARK  6 active torsions:
REMARK  status: ('A' for Active; 'I' for Inactive)
REMARK    1  A    between atoms: C_7  and  S_8 
REMARK    2  A    between atoms: S_8  and  C_9 
REMARK    3  A    between atoms: C_9  and  C_10 
REMARK    4  A    between atoms: C_18  and  C_19 
REMARK    5  A    between atoms: C_26  and  C_27 
REMARK    6  A    between atoms: C_27  and  O_28 
ROOT
HETATM    1  C   UNL     1      -2.288   6.112 -30.801  1.00  0.00     0.070 C 
HETATM    2  C   UNL     1      -3.175   4.982 -31.262  1.00  0.00     0.037 A 
HETATM    3  N   UNL     1      -2.640   3.707 -31.124  1.00  0.00    -0.192 N 
HETATM    4  C   UNL     1      -3.287   2.588 -31.497  1.00  0.00     0.726 A 
HETATM    5  N   UNL     1      -4.522   2.684 -32.073  1.00  0.00    -0.082 N 
HETATM    6  N   UNL     1      -5.002   1.468 -32.410  1.00  0.00    -0.128 NA
HETATM    7  C   UNL     1      -4.033   0.675 -31.934  1.00  0.00     0.226 A 
HETATM    8  N   UNL     1      -2.952   1.329 -31.396  1.00  0.00    -0.035 NA
HETATM    9  C   UNL     1      -5.241   3.953 -32.279  1.00  0.00     0.204 A 
HETATM   10  C   UNL     1      -4.407   5.138 -31.804  1.00  0.00     0.070 A 
HETATM   11  H   UNL     1      -1.723   3.621 -30.693  1.00  0.00     0.184 HD
ENDROOT
BRANCH   7  12
HETATM   12  S   UNL     1      -4.119  -1.063 -31.942  1.00  0.00    -0.083 SA
BRANCH  12  13
HETATM   13  C   UNL     1      -3.818  -1.436 -33.691  1.00  0.00     0.123 C 
BRANCH  13  14
HETATM   14  C   UNL     1      -4.679  -2.590 -34.156  1.00  0.00    -0.027 A 
HETATM   15  C   UNL     1      -5.988  -2.418 -34.636  1.00  0.00     0.041 A 
HETATM   16 CL   UNL     1      -6.726  -0.860 -34.766  1.00  0.00    -0.084 Cl
HETATM   17  C   UNL     1      -6.754  -3.522 -35.027  1.00  0.00     0.024 A 
HETATM   18  C   UNL     1      -6.230  -4.811 -34.935  1.00  0.00     0.002 A 
HETATM   19  C   UNL     1      -4.938  -4.999 -34.451  1.00  0.00     0.001 A 
HETATM   20  C   UNL     1      -4.169  -3.899 -34.066  1.00  0.00     0.009 A 
ENDBRANCH  13  14
ENDBRANCH  12  13
ENDBRANCH   7  12
BRANCH   9  21
HETATM   21  C   UNL     1      -6.609   3.881 -31.601  1.00  0.00    -0.006 A 
HETATM   22  C   UNL     1      -7.806   4.142 -32.291  1.00  0.00     0.042 A 
HETATM   23 CL   UNL     1      -7.841   4.579 -33.962  1.00  0.00    -0.084 Cl
HETATM   24  C   UNL     1      -9.039   4.064 -31.633  1.00  0.00     0.024 A 
HETATM   25  C   UNL     1      -9.101   3.722 -30.284  1.00  0.00     0.002 A 
HETATM   26  C   UNL     1      -7.928   3.459 -29.584  1.00  0.00     0.001 A 
HETATM   27  C   UNL     1      -6.694   3.540 -30.233  1.00  0.00     0.011 A 
ENDBRANCH   9  21
BRANCH  10  28
HETATM   28  C   UNL     1      -5.031   6.470 -31.916  1.00  0.00     0.293 C 
HETATM   29  O   UNL     1      -5.248   7.042 -32.973  1.00  0.00    -0.259 OA
BRANCH  28  30
HETATM   30  O   UNL     1      -5.318   6.934 -30.678  1.00  0.00    -0.323 OA
HETATM   31  C   UNL     1      -5.639   8.327 -30.646  1.00  0.00     0.213 C 
ENDBRANCH  28  30
ENDBRANCH  10  28
TORSDOF 6
ENDMDL
MODEL 6
REMARK VINA RESULT:      -8.0      3.365      7.822
REMARK  6 active torsions:
REMARK  status: ('A' for Active; 'I' for Inactive)
REMARK    1  A    between atoms: C_7  and  S_8 
REMARK    2  A    between atoms: S_8  and  C_9 
REMARK    3  A    between atoms: C_9  and  C_10 
REMARK    4  A    between atoms: C_18  and  C_19 
REMARK    5  A    between atoms: C_26  and  C_27 
REMARK    6  A    between atoms: C_27  and  O_28 
ROOT
HETATM    1  C   UNL     1      -8.780   3.394 -30.085  1.00  0.00     0.070 C 
HETATM    2  C   UNL     1      -7.599   3.222 -31.007  1.00  0.00     0.037 A 
HETATM    3  N   UNL     1      -6.518   4.059 -30.759  1.00  0.00    -0.192 N 
HETATM    4  C   UNL     1      -5.390   4.050 -31.492  1.00  0.00     0.726 A 
HETATM    5  N   UNL     1      -5.288   3.204 -32.561  1.00  0.00    -0.082 N 
HETATM    6  N   UNL     1      -4.106   3.355 -33.195  1.00  0.00    -0.128 NA
HETATM    7  C   UNL     1      -3.510   4.256 -32.402  1.00  0.00     0.226 A 
HETATM    8  N   UNL     1      -4.280   4.727 -31.367  1.00  0.00    -0.035 NA
HETATM    9  C   UNL     1      -6.331   2.241 -32.954  1.00  0.00     0.204 A 
HETATM   10  C   UNL     1      -7.546   2.345 -32.039  1.00  0.00     0.070 A 
HETATM   11  H   UNL     1      -6.578   4.690 -29.964  1.00  0.00     0.184 HD
ENDROOT
BRANCH   7  12
HETATM   12  S   UNL     1      -1.866   4.786 -32.614  1.00  0.00    -0.083 SA
BRANCH  12  13
HETATM   13  C   UNL     1      -1.909   6.428 -31.844  1.00  0.00     0.123 C 
BRANCH  13  14
HETATM   14  C   UNL     1      -1.043   6.469 -30.604  1.00  0.00    -0.027 A 
HETATM   15  C   UNL     1      -0.984   7.585 -29.753  1.00  0.00     0.041 A 
HETATM   16 CL   UNL     1      -1.924   9.009 -30.031  1.00  0.00    -0.084 Cl
HETATM   17  C   UNL     1      -0.143   7.583 -28.634  1.00  0.00     0.024 A 
HETATM   18  C   UNL     1       0.657   6.475 -28.355  1.00  0.00     0.002 A 
HETATM   19  C   UNL     1       0.618   5.366 -29.195  1.00  0.00     0.001 A 
HETATM   20  C   UNL     1      -0.224   5.362 -30.309  1.00  0.00     0.009 A 
ENDBRANCH  13  14
ENDBRANCH  12  13
ENDBRANCH   7  12
BRANCH   9  21
HETATM   21  C   UNL     1      -5.737   0.833 -32.994  1.00  0.00    -0.006 A 
HETATM   22  C   UNL     1      -5.952  -0.045 -34.071  1.00  0.00     0.042 A 
HETATM   23 CL   UNL     1      -6.916   0.381 -35.441  1.00  0.00    -0.084 Cl
HETATM   24  C   UNL     1      -5.389  -1.326 -34.070  1.00  0.00     0.024 A 
HETATM   25  C   UNL     1      -4.601  -1.751 -33.001  1.00  0.00     0.002 A 
HETATM   26  C   UNL     1      -4.375  -0.897 -31.928  1.00  0.00     0.001 A 
HETATM   27  C   UNL     1      -4.938   0.381 -31.921  1.00  0.00     0.011 A 
ENDBRANCH   9  21
BRANCH  10  28
HETATM   28  C   UNL     1      -8.650   1.402 -32.300  1.00  0.00     0.293 C 
HETATM   29  O   UNL     1      -8.865   0.396 -31.643  1.00  0.00    -0.259 OA
BRANCH  28  30
HETATM   30  O   UNL     1      -9.366   1.837 -33.363  1.00  0.00    -0.323 OA
HETATM   31  C   UNL     1     -10.680   1.278 -33.439  1.00  0.00     0.213 C 
ENDBRANCH  28  30
ENDBRANCH  10  28
TORSDOF 6
ENDMDL
MODEL 7
REMARK VINA RESULT:      -7.8      2.566      4.304
REMARK  6 active torsions:
REMARK  status: ('A' for Active; 'I' for Inactive)
REMARK    1  A    between atoms: C_7  and  S_8 
REMARK    2  A    between atoms: S_8  and  C_9 
REMARK    3  A    between atoms: C_9  and  C_10 
REMARK    4  A    between atoms: C_18  and  C_19 
REMARK    5  A    between atoms: C_26  and  C_27 
REMARK    6  A    between atoms: C_27  and  O_28 
ROOT
HETATM    1  C   UNL     1       0.298   6.505 -31.268  1.00  0.00     0.070 C 
HETATM    2  C   UNL     1      -1.149   6.078 -31.289  1.00  0.00     0.037 A 
HETATM    3  N   UNL     1      -1.368   4.708 -31.364  1.00  0.00    -0.192 N 
HETATM    4  C   UNL     1      -2.593   4.154 -31.408  1.00  0.00     0.726 A 
HETATM    5  N   UNL     1      -3.697   4.960 -31.411  1.00  0.00    -0.082 N 
HETATM    6  N   UNL     1      -4.833   4.236 -31.491  1.00  0.00    -0.128 NA
HETATM    7  C   UNL     1      -4.339   2.990 -31.451  1.00  0.00     0.226 A 
HETATM    8  N   UNL     1      -2.969   2.903 -31.432  1.00  0.00    -0.035 NA
HETATM    9  C   UNL     1      -3.647   6.430 -31.321  1.00  0.00     0.204 A 
HETATM   10  C   UNL     1      -2.205   6.926 -31.266  1.00  0.00     0.070 A 
HETATM   11  H   UNL     1      -0.555   4.096 -31.357  1.00  0.00     0.184 HD
ENDROOT
BRANCH   7  12
HETATM   12  S   UNL     1      -5.332   1.563 -31.387  1.00  0.00    -0.083 SA
BRANCH  12  13
HETATM   13  C   UNL     1      -5.795   1.360 -33.129  1.00  0.00     0.123 C 
BRANCH  13  14
HETATM   14  C   UNL     1      -5.540  -0.056 -33.597  1.00  0.00    -0.027 A 
HETATM   15  C   UNL     1      -6.389  -0.725 -34.494  1.00  0.00     0.041 A 
HETATM   16 CL   UNL     1      -7.793   0.023 -35.170  1.00  0.00    -0.084 Cl
HETATM   17  C   UNL     1      -6.124  -2.046 -34.873  1.00  0.00     0.024 A 
HETATM   18  C   UNL     1      -5.018  -2.720 -34.355  1.00  0.00     0.002 A 
HETATM   19  C   UNL     1      -4.174  -2.074 -33.457  1.00  0.00     0.001 A 
HETATM   20  C   UNL     1      -4.431  -0.754 -33.082  1.00  0.00     0.009 A 
ENDBRANCH  13  14
ENDBRANCH  12  13
ENDBRANCH   7  12
BRANCH   9  21
HETATM   21  C   UNL     1      -4.481   6.897 -30.129  1.00  0.00    -0.006 A 
HETATM   22  C   UNL     1      -5.653   7.659 -30.282  1.00  0.00     0.042 A 
HETATM   23 CL   UNL     1      -6.250   8.146 -31.828  1.00  0.00    -0.084 Cl
HETATM   24  C   UNL     1      -6.390   8.065 -29.164  1.00  0.00     0.024 A 
HETATM   25  C   UNL     1      -5.976   7.718 -27.879  1.00  0.00     0.002 A 
HETATM   26  C   UNL     1      -4.821   6.963 -27.707  1.00  0.00     0.001 A 
HETATM   27  C   UNL     1      -4.078   6.558 -28.818  1.00  0.00     0.011 A 
ENDBRANCH   9  21
BRANCH  10  28
HETATM   28  C   UNL     1      -2.015   8.382 -31.131  1.00  0.00     0.293 C 
HETATM   29  O   UNL     1      -2.148   9.181 -32.045  1.00  0.00    -0.259 OA
BRANCH  28  30
HETATM   30  O   UNL     1      -1.682   8.673 -29.852  1.00  0.00    -0.323 OA
HETATM   31  C   UNL     1      -2.308   9.854 -29.348  1.00  0.00     0.213 C 
ENDBRANCH  28  30
ENDBRANCH  10  28
TORSDOF 6
ENDMDL
MODEL 8
REMARK VINA RESULT:      -7.7      1.875      2.486
REMARK  6 active torsions:
REMARK  status: ('A' for Active; 'I' for Inactive)
REMARK    1  A    between atoms: C_7  and  S_8 
REMARK    2  A    between atoms: S_8  and  C_9 
REMARK    3  A    between atoms: C_9  and  C_10 
REMARK    4  A    between atoms: C_18  and  C_19 
REMARK    5  A    between atoms: C_26  and  C_27 
REMARK    6  A    between atoms: C_27  and  O_28 
ROOT
HETATM    1  C   UNL     1      -6.130   7.104 -28.843  1.00  0.00     0.070 C 
HETATM    2  C   UNL     1      -5.711   5.877 -29.614  1.00  0.00     0.037 A 
HETATM    3  N   UNL     1      -6.651   4.856 -29.674  1.00  0.00    -0.192 N 
HETATM    4  C   UNL     1      -6.438   3.689 -30.306  1.00  0.00     0.726 A 
HETATM    5  N   UNL     1      -5.231   3.456 -30.903  1.00  0.00    -0.082 N 
HETATM    6  N   UNL     1      -5.187   2.226 -31.458  1.00  0.00    -0.128 NA
HETATM    7  C   UNL     1      -6.436   1.801 -31.225  1.00  0.00     0.226 A 
HETATM    8  N   UNL     1      -7.221   2.659 -30.494  1.00  0.00    -0.035 NA
HETATM    9  C   UNL     1      -4.130   4.434 -30.949  1.00  0.00     0.204 A 
HETATM   10  C   UNL     1      -4.504   5.713 -30.208  1.00  0.00     0.070 A 
HETATM   11  H   UNL     1      -7.556   5.018 -29.238  1.00  0.00     0.184 HD
ENDROOT
BRANCH   7  12
HETATM   12  S   UNL     1      -7.068   0.294 -31.823  1.00  0.00    -0.083 SA
BRANCH  12  13
HETATM   13  C   UNL     1      -6.394   0.257 -33.506  1.00  0.00     0.123 C 
BRANCH  13  14
HETATM   14  C   UNL     1      -5.979  -1.145 -33.894  1.00  0.00    -0.027 A 
HETATM   15  C   UNL     1      -4.652  -1.599 -33.806  1.00  0.00     0.041 A 
HETATM   16 CL   UNL     1      -3.372  -0.599 -33.216  1.00  0.00    -0.084 Cl
HETATM   17  C   UNL     1      -4.316  -2.898 -34.205  1.00  0.00     0.024 A 
HETATM   18  C   UNL     1      -5.294  -3.756 -34.707  1.00  0.00     0.002 A 
HETATM   19  C   UNL     1      -6.611  -3.318 -34.810  1.00  0.00     0.001 A 
HETATM   20  C   UNL     1      -6.951  -2.026 -34.407  1.00  0.00     0.009 A 
ENDBRANCH  13  14
ENDBRANCH  12  13
ENDBRANCH   7  12
BRANCH   9  21
HETATM   21  C   UNL     1      -3.729   4.684 -32.402  1.00  0.00    -0.006 A 
HETATM   22  C   UNL     1      -4.652   5.099 -33.378  1.00  0.00     0.042 A 
HETATM   23 CL   UNL     1      -6.325   5.352 -33.027  1.00  0.00    -0.084 Cl
HETATM   24  C   UNL     1      -4.244   5.319 -34.698  1.00  0.00     0.024 A 
HETATM   25  C   UNL     1      -2.913   5.135 -35.066  1.00  0.00     0.002 A 
HETATM   26  C   UNL     1      -1.984   4.726 -34.116  1.00  0.00     0.001 A 
HETATM   27  C   UNL     1      -2.386   4.500 -32.798  1.00  0.00     0.011 A 
ENDBRANCH   9  21
BRANCH  10  28
HETATM   28  C   UNL     1      -3.500   6.794 -30.214  1.00  0.00     0.293 C 
HETATM   29  O   UNL     1      -2.577   6.881 -29.420  1.00  0.00    -0.259 OA
BRANCH  28  30
HETATM   30  O   UNL     1      -3.771   7.649 -31.229  1.00  0.00    -0.323 OA
HETATM   31  C   UNL     1      -3.711   9.026 -30.851  1.00  0.00     0.213 C 
ENDBRANCH  28  30
ENDBRANCH  10  28
TORSDOF 6
ENDMDL
MODEL 9
REMARK VINA RESULT:      -7.6      4.234      7.832
REMARK  6 active torsions:
REMARK  status: ('A' for Active; 'I' for Inactive)
REMARK    1  A    between atoms: C_7  and  S_8 
REMARK    2  A    between atoms: S_8  and  C_9 
REMARK    3  A    between atoms: C_9  and  C_10 
REMARK    4  A    between atoms: C_18  and  C_19 
REMARK    5  A    between atoms: C_26  and  C_27 
REMARK    6  A    between atoms: C_27  and  O_28 
ROOT
HETATM    1  C   UNL     1     -10.805   4.016 -31.743  1.00  0.00     0.070 C 
HETATM    2  C   UNL     1      -9.527   3.778 -32.510  1.00  0.00     0.037 A 
HETATM    3  N   UNL     1      -8.489   4.659 -32.232  1.00  0.00    -0.192 N 
HETATM    4  C   UNL     1      -7.288   4.602 -32.834  1.00  0.00     0.726 A 
HETATM    5  N   UNL     1      -7.060   3.658 -33.795  1.00  0.00    -0.082 N 
HETATM    6  N   UNL     1      -5.817   3.770 -34.309  1.00  0.00    -0.128 NA
HETATM    7  C   UNL     1      -5.322   4.758 -33.551  1.00  0.00     0.226 A 
HETATM    8  N   UNL     1      -6.206   5.312 -32.658  1.00  0.00    -0.035 NA
HETATM    9  C   UNL     1      -8.043   2.638 -34.200  1.00  0.00     0.204 A 
HETATM   10  C   UNL     1      -9.353   2.806 -33.437  1.00  0.00     0.070 A 
HETATM   11  H   UNL     1      -8.644   5.364 -31.515  1.00  0.00     0.184 HD
ENDROOT
BRANCH   7  12
HETATM   12  S   UNL     1      -3.670   5.301 -33.635  1.00  0.00    -0.083 SA
BRANCH  12  13
HETATM   13  C   UNL     1      -2.934   4.455 -32.210  1.00  0.00     0.123 C 
BRANCH  13  14
HETATM   14  C   UNL     1      -1.927   5.343 -31.512  1.00  0.00    -0.027 A 
HETATM   15  C   UNL     1      -2.295   6.316 -30.567  1.00  0.00     0.041 A 
HETATM   16 CL   UNL     1      -3.939   6.567 -30.094  1.00  0.00    -0.084 Cl
HETATM   17  C   UNL     1      -1.327   7.132 -29.972  1.00  0.00     0.024 A 
HETATM   18  C   UNL     1       0.017   6.997 -30.317  1.00  0.00     0.002 A 
HETATM   19  C   UNL     1       0.397   6.045 -31.259  1.00  0.00     0.001 A 
HETATM   20  C   UNL     1      -0.566   5.225 -31.850  1.00  0.00     0.009 A 
ENDBRANCH  13  14
ENDBRANCH  12  13
ENDBRANCH   7  12
BRANCH   9  21
HETATM   21  C   UNL     1      -7.433   1.246 -34.034  1.00  0.00    -0.006 A 
HETATM   22  C   UNL     1      -7.057   0.733 -32.780  1.00  0.00     0.042 A 
HETATM   23 CL   UNL     1      -7.239   1.631 -31.315  1.00  0.00    -0.084 Cl
HETATM   24  C   UNL     1      -6.504  -0.547 -32.671  1.00  0.00     0.024 A 
HETATM   25  C   UNL     1      -6.319  -1.337 -33.804  1.00  0.00     0.002 A 
HETATM   26  C   UNL     1      -6.686  -0.849 -35.053  1.00  0.00     0.001 A 
HETATM   27  C   UNL     1      -7.235   0.430 -35.169  1.00  0.00     0.011 A 
ENDBRANCH   9  21
BRANCH  10  28
HETATM   28  C   UNL     1     -10.411   1.818 -33.720  1.00  0.00     0.293 C 
HETATM   29  O   UNL     1     -10.600   0.806 -33.065  1.00  0.00    -0.259 OA
BRANCH  28  30
HETATM   30  O   UNL     1     -11.119   2.220 -34.801  1.00  0.00    -0.323 OA
HETATM   31  C   UNL     1     -12.388   1.575 -34.929  1.00  0.00     0.213 C 
ENDBRANCH  28  30
ENDBRANCH  10  28
TORSDOF 6
ENDMDL
MODEL 10
REMARK VINA RESULT:      -7.6      2.282      3.491
REMARK  6 active torsions:
REMARK  status: ('A' for Active; 'I' for Inactive)
REMARK    1  A    between atoms: C_7  and  S_8 
REMARK    2  A    between atoms: S_8  and  C_9 
REMARK    3  A    between atoms: C_9  and  C_10 
REMARK    4  A    between atoms: C_18  and  C_19 
REMARK    5  A    between atoms: C_26  and  C_27 
REMARK    6  A    between atoms: C_27  and  O_28 
ROOT
HETATM    1  C   UNL     1      -1.414   4.882 -31.052  1.00  0.00     0.070 C 
HETATM    2  C   UNL     1      -2.732   4.379 -31.587  1.00  0.00     0.037 A 
HETATM    3  N   UNL     1      -2.960   3.017 -31.435  1.00  0.00    -0.192 N 
HETATM    4  C   UNL     1      -4.073   2.399 -31.867  1.00  0.00     0.726 A 
HETATM    5  N   UNL     1      -5.034   3.120 -32.520  1.00  0.00    -0.082 N 
HETATM    6  N   UNL     1      -6.060   2.334 -32.907  1.00  0.00    -0.128 NA
HETATM    7  C   UNL     1      -5.686   1.159 -32.381  1.00  0.00     0.226 A 
HETATM    8  N   UNL     1      -4.460   1.155 -31.764  1.00  0.00    -0.035 NA
HETATM    9  C   UNL     1      -4.961   4.573 -32.751  1.00  0.00     0.204 A 
HETATM   10  C   UNL     1      -3.658   5.150 -32.205  1.00  0.00     0.070 A 
HETATM   11  H   UNL     1      -2.255   2.469 -30.947  1.00  0.00     0.184 HD
ENDROOT
BRANCH   7  12
HETATM   12  S   UNL     1      -6.676  -0.273 -32.423  1.00  0.00    -0.083 SA
BRANCH  12  13
HETATM   13  C   UNL     1      -6.530  -0.768 -34.161  1.00  0.00     0.123 C 
BRANCH  13  14
HETATM   14  C   UNL     1      -6.023  -2.188 -34.280  1.00  0.00    -0.027 A 
HETATM   15  C   UNL     1      -4.682  -2.540 -34.050  1.00  0.00     0.041 A 
HETATM   16 CL   UNL     1      -3.491  -1.379 -33.580  1.00  0.00    -0.084 Cl
HETATM   17  C   UNL     1      -4.258  -3.865 -34.201  1.00  0.00     0.024 A 
HETATM   18  C   UNL     1      -5.160  -4.853 -34.594  1.00  0.00     0.002 A 
HETATM   19  C   UNL     1      -6.489  -4.519 -34.836  1.00  0.00     0.001 A 
HETATM   20  C   UNL     1      -6.917  -3.200 -34.680  1.00  0.00     0.009 A 
ENDBRANCH  13  14
ENDBRANCH  12  13
ENDBRANCH   7  12
BRANCH   9  21
HETATM   21  C   UNL     1      -6.200   5.247 -32.165  1.00  0.00    -0.006 A 
HETATM   22  C   UNL     1      -6.509   5.195 -30.794  1.00  0.00     0.042 A 
HETATM   23 CL   UNL     1      -5.522   4.356 -29.650  1.00  0.00    -0.084 Cl
HETATM   24  C   UNL     1      -7.654   5.827 -30.297  1.00  0.00     0.024 A 
HETATM   25  C   UNL     1      -8.506   6.523 -31.152  1.00  0.00     0.002 A 
HETATM   26  C   UNL     1      -8.218   6.587 -32.511  1.00  0.00     0.001 A 
HETATM   27  C   UNL     1      -7.079   5.955 -33.015  1.00  0.00     0.011 A 
ENDBRANCH   9  21
BRANCH  10  28
HETATM   28  C   UNL     1      -3.478   6.608 -32.336  1.00  0.00     0.293 C 
HETATM   29  O   UNL     1      -3.687   7.410 -31.440  1.00  0.00    -0.259 OA
BRANCH  28  30
HETATM   30  O   UNL     1      -3.049   6.894 -33.588  1.00  0.00    -0.323 OA
HETATM   31  C   UNL     1      -1.751   7.491 -33.628  1.00  0.00     0.213 C 
ENDBRANCH  28  30
ENDBRANCH  10  28
TORSDOF 6
ENDMDL
