MODEL 1
REMARK VINA RESULT:      -7.6      0.000      0.000
REMARK  6 active torsions:
REMARK  status: ('A' for Active; 'I' for Inactive)
REMARK    1  A    between atoms: C_2  and  C_3 
REMARK    2  A    between atoms: C_8  and  C_9 
REMARK    3  A    between atoms: C_9  and  N_10 
REMARK    4  A    between atoms: N_10  and  C_12 
REMARK    5  A    between atoms: C_12  and  C_13 
REMARK       I    between atoms: C_13  and  N_14 
REMARK    6  A    between atoms: N_14  and  C_15 
ROOT
HETATM    1  N   UNL     1      -6.284   2.226 -32.285  1.00  0.00    -0.063 N 
HETATM    2  H   UNL     1      -7.113   1.626 -32.192  1.00  0.00     0.280 HD
HETATM    3  C   UNL     1      -6.141   3.027 -31.026  1.00  0.00     0.270 C 
ENDROOT
BRANCH   1   4
HETATM    4  C   UNL     1      -6.572   3.091 -33.517  1.00  0.00     0.277 C 
BRANCH   4   5
HETATM    5  C   UNL     1      -8.010   3.492 -33.602  1.00  0.00     0.012 A 
HETATM    6  C   UNL     1      -9.223   2.711 -33.554  1.00  0.00     0.071 A 
HETATM    7  N   UNL     1     -10.294   3.516 -33.637  1.00  0.00    -0.178 NA
HETATM    8  N   UNL     1      -9.823   4.741 -33.831  1.00  0.00    -0.288 N 
HETATM    9  H   UNL     1     -10.489   5.497 -33.973  1.00  0.00     0.188 HD
HETATM   10  C   UNL     1      -8.463   4.788 -33.806  1.00  0.00     0.120 A 
BRANCH   6  11
HETATM   11  C   UNL     1      -9.532   1.211 -33.443  1.00  0.00    -0.004 C 
HETATM   12  C   UNL     1      -8.689   0.431 -34.479  1.00  0.00     0.021 C 
HETATM   13  C   UNL     1     -11.030   0.962 -33.738  1.00  0.00     0.021 C 
HETATM   14  C   UNL     1      -9.230   0.595 -32.074  1.00  0.00     0.021 C 
ENDBRANCH   6  11
ENDBRANCH   4   5
ENDBRANCH   1   4
BRANCH   1  15
HETATM   15  C   UNL     1      -5.072   1.308 -32.477  1.00  0.00     0.337 C 
BRANCH  15  16
HETATM   16  C   UNL     1      -5.465  -0.167 -32.561  1.00  0.00     0.248 C 
HETATM   17  N   UNL     1      -5.184  -0.729 -33.797  1.00  0.00    -0.326 N 
HETATM   18  H   UNL     1      -5.028  -0.110 -34.586  1.00  0.00     0.169 HD
HETATM   19  O   UNL     1      -5.885  -0.744 -31.565  1.00  0.00    -0.271 OA
BRANCH  17  20
HETATM   20  C   UNL     1      -5.167  -2.105 -34.115  1.00  0.00     0.040 A 
HETATM   21  C   UNL     1      -6.194  -2.769 -34.788  1.00  0.00     0.072 A 
HETATM   22  C   UNL     1      -6.114  -4.147 -34.997  1.00  0.00     0.121 A 
HETATM   23  F   UNL     1      -7.119  -4.768 -35.628  1.00  0.00    -0.206 F 
HETATM   24  C   UNL     1      -5.029  -4.885 -34.555  1.00  0.00     0.084 A 
HETATM   25  C   UNL     1      -4.006  -4.221 -33.900  1.00  0.00     0.121 A 
HETATM   26  F   UNL     1      -2.946  -4.908 -33.456  1.00  0.00    -0.206 F 
HETATM   27  C   UNL     1      -4.062  -2.846 -33.678  1.00  0.00     0.072 A 
ENDBRANCH  17  20
ENDBRANCH  15  16
ENDBRANCH   1  15
TORSDOF 6
ENDMDL
MODEL 2
REMARK VINA RESULT:      -7.6      1.650      2.978
REMARK  6 active torsions:
REMARK  status: ('A' for Active; 'I' for Inactive)
REMARK    1  A    between atoms: C_2  and  C_3 
REMARK    2  A    between atoms: C_8  and  C_9 
REMARK    3  A    between atoms: C_9  and  N_10 
REMARK    4  A    between atoms: N_10  and  C_12 
REMARK    5  A    between atoms: C_12  and  C_13 
REMARK       I    between atoms: C_13  and  N_14 
REMARK    6  A    between atoms: N_14  and  C_15 
ROOT
HETATM    1  N   UNL     1      -7.346   2.219 -32.769  1.00  0.00    -0.063 N 
HETATM    2  H   UNL     1      -7.868   1.650 -32.090  1.00  0.00     0.280 HD
HETATM    3  C   UNL     1      -7.098   3.566 -32.158  1.00  0.00     0.270 C 
ENDROOT
BRANCH   1   4
HETATM    4  C   UNL     1      -8.257   2.277 -34.000  1.00  0.00     0.277 C 
BRANCH   4   5
HETATM    5  C   UNL     1      -9.588   1.647 -33.749  1.00  0.00     0.012 A 
HETATM    6  C   UNL     1     -10.928   2.101 -34.036  1.00  0.00     0.071 A 
HETATM    7  N   UNL     1     -11.822   1.174 -33.656  1.00  0.00    -0.178 NA
HETATM    8  N   UNL     1     -11.128   0.213 -33.062  1.00  0.00    -0.288 N 
HETATM    9  H   UNL     1     -11.637  -0.567 -32.653  1.00  0.00     0.188 HD
HETATM   10  C   UNL     1      -9.786   0.436 -33.100  1.00  0.00     0.120 A 
BRANCH   6  11
HETATM   11  C   UNL     1     -11.523   3.377 -34.651  1.00  0.00    -0.004 C 
HETATM   12  C   UNL     1     -12.456   4.060 -33.623  1.00  0.00     0.021 C 
HETATM   13  C   UNL     1     -12.352   3.016 -35.906  1.00  0.00     0.021 C 
HETATM   14  C   UNL     1     -10.490   4.425 -35.074  1.00  0.00     0.021 C 
ENDBRANCH   6  11
ENDBRANCH   4   5
ENDBRANCH   1   4
BRANCH   1  15
HETATM   15  C   UNL     1      -6.019   1.503 -33.046  1.00  0.00     0.337 C 
BRANCH  15  16
HETATM   16  C   UNL     1      -6.136  -0.014 -32.908  1.00  0.00     0.248 C 
HETATM   17  N   UNL     1      -5.712  -0.692 -34.041  1.00  0.00    -0.326 N 
HETATM   18  H   UNL     1      -5.641  -0.179 -34.914  1.00  0.00     0.169 HD
HETATM   19  O   UNL     1      -6.482  -0.505 -31.840  1.00  0.00    -0.271 OA
BRANCH  17  20
HETATM   20  C   UNL     1      -5.434  -2.073 -34.145  1.00  0.00     0.040 A 
HETATM   21  C   UNL     1      -4.265  -2.677 -33.681  1.00  0.00     0.072 A 
HETATM   22  C   UNL     1      -4.053  -4.041 -33.891  1.00  0.00     0.121 A 
HETATM   23  F   UNL     1      -2.916  -4.598 -33.455  1.00  0.00    -0.206 F 
HETATM   24  C   UNL     1      -4.985  -4.825 -34.551  1.00  0.00     0.084 A 
HETATM   25  C   UNL     1      -6.150  -4.225 -34.998  1.00  0.00     0.121 A 
HETATM   26  F   UNL     1      -7.067  -4.957 -35.643  1.00  0.00    -0.206 F 
HETATM   27  C   UNL     1      -6.384  -2.866 -34.801  1.00  0.00     0.072 A 
ENDBRANCH  17  20
ENDBRANCH  15  16
ENDBRANCH   1  15
TORSDOF 6
ENDMDL
MODEL 3
REMARK VINA RESULT:      -7.5      1.488      2.320
REMARK  6 active torsions:
REMARK  status: ('A' for Active; 'I' for Inactive)
REMARK    1  A    between atoms: C_2  and  C_3 
REMARK    2  A    between atoms: C_8  and  C_9 
REMARK    3  A    between atoms: C_9  and  N_10 
REMARK    4  A    between atoms: N_10  and  C_12 
REMARK    5  A    between atoms: C_12  and  C_13 
REMARK       I    between atoms: C_13  and  N_14 
REMARK    6  A    between atoms: N_14  and  C_15 
ROOT
HETATM    1  N   UNL     1      -7.019   2.123 -32.219  1.00  0.00    -0.063 N 
HETATM    2  H   UNL     1      -7.559   1.466 -31.641  1.00  0.00     0.280 HD
HETATM    3  C   UNL     1      -6.695   3.325 -31.383  1.00  0.00     0.270 C 
ENDROOT
BRANCH   1   4
HETATM    4  C   UNL     1      -7.943   2.445 -33.398  1.00  0.00     0.277 C 
BRANCH   4   5
HETATM    5  C   UNL     1      -9.238   1.704 -33.320  1.00  0.00     0.012 A 
HETATM    6  C   UNL     1     -10.592   2.116 -33.606  1.00  0.00     0.071 A 
HETATM    7  N   UNL     1     -11.436   1.089 -33.423  1.00  0.00    -0.178 NA
HETATM    8  N   UNL     1     -10.705   0.089 -32.948  1.00  0.00    -0.288 N 
HETATM    9  H   UNL     1     -11.178  -0.775 -32.693  1.00  0.00     0.188 HD
HETATM   10  C   UNL     1      -9.382   0.396 -32.878  1.00  0.00     0.120 A 
BRANCH   6  11
HETATM   11  C   UNL     1     -11.244   3.435 -34.047  1.00  0.00    -0.004 C 
HETATM   12  C   UNL     1     -11.196   4.451 -32.881  1.00  0.00     0.021 C 
HETATM   13  C   UNL     1     -12.724   3.187 -34.424  1.00  0.00     0.021 C 
HETATM   14  C   UNL     1     -10.576   4.109 -35.249  1.00  0.00     0.021 C 
ENDBRANCH   6  11
ENDBRANCH   4   5
ENDBRANCH   1   4
BRANCH   1  15
HETATM   15  C   UNL     1      -5.734   1.408 -32.651  1.00  0.00     0.337 C 
BRANCH  15  16
HETATM   16  C   UNL     1      -5.882  -0.113 -32.639  1.00  0.00     0.248 C 
HETATM   17  N   UNL     1      -5.709  -0.680 -33.893  1.00  0.00    -0.326 N 
HETATM   18  H   UNL     1      -5.786  -0.081 -34.709  1.00  0.00     0.169 HD
HETATM   19  O   UNL     1      -6.036  -0.704 -31.577  1.00  0.00    -0.271 OA
BRANCH  17  20
HETATM   20  C   UNL     1      -5.511  -2.049 -34.182  1.00  0.00     0.040 A 
HETATM   21  C   UNL     1      -6.437  -2.853 -34.848  1.00  0.00     0.072 A 
HETATM   22  C   UNL     1      -6.178  -4.213 -35.028  1.00  0.00     0.121 A 
HETATM   23  F   UNL     1      -7.087  -4.972 -35.652  1.00  0.00    -0.206 F 
HETATM   24  C   UNL     1      -5.011  -4.795 -34.562  1.00  0.00     0.084 A 
HETATM   25  C   UNL     1      -4.089  -3.992 -33.913  1.00  0.00     0.121 A 
HETATM   26  F   UNL     1      -2.953  -4.527 -33.448  1.00  0.00    -0.206 F 
HETATM   27  C   UNL     1      -4.324  -2.631 -33.721  1.00  0.00     0.072 A 
ENDBRANCH  17  20
ENDBRANCH  15  16
ENDBRANCH   1  15
TORSDOF 6
ENDMDL
MODEL 4
REMARK VINA RESULT:      -7.4      3.124      5.221
REMARK  6 active torsions:
REMARK  status: ('A' for Active; 'I' for Inactive)
REMARK    1  A    between atoms: C_2  and  C_3 
REMARK    2  A    between atoms: C_8  and  C_9 
REMARK    3  A    between atoms: C_9  and  N_10 
REMARK    4  A    between atoms: N_10  and  C_12 
REMARK    5  A    between atoms: C_12  and  C_13 
REMARK       I    between atoms: C_13  and  N_14 
REMARK    6  A    between atoms: N_14  and  C_15 
ROOT
HETATM    1  N   UNL     1      -4.831   2.624 -32.151  1.00  0.00    -0.063 N 
HETATM    2  H   UNL     1      -5.110   2.355 -31.198  1.00  0.00     0.280 HD
HETATM    3  C   UNL     1      -3.427   2.150 -32.380  1.00  0.00     0.270 C 
ENDROOT
BRANCH   1   4
HETATM    4  C   UNL     1      -4.959   4.151 -32.171  1.00  0.00     0.277 C 
BRANCH   4   5
HETATM    5  C   UNL     1      -4.229   4.765 -33.321  1.00  0.00     0.012 A 
HETATM    6  C   UNL     1      -3.028   5.564 -33.372  1.00  0.00     0.071 A 
HETATM    7  N   UNL     1      -2.727   5.867 -34.645  1.00  0.00    -0.178 NA
HETATM    8  N   UNL     1      -3.720   5.387 -35.383  1.00  0.00    -0.288 N 
HETATM    9  H   UNL     1      -3.703   5.562 -36.385  1.00  0.00     0.188 HD
HETATM   10  C   UNL     1      -4.639   4.708 -34.646  1.00  0.00     0.120 A 
BRANCH   6  11
HETATM   11  C   UNL     1      -2.066   6.128 -32.316  1.00  0.00    -0.004 C 
HETATM   12  C   UNL     1      -1.351   4.962 -31.591  1.00  0.00     0.021 C 
HETATM   13  C   UNL     1      -2.859   6.947 -31.269  1.00  0.00     0.021 C 
HETATM   14  C   UNL     1      -0.969   7.041 -32.871  1.00  0.00     0.021 C 
ENDBRANCH   6  11
ENDBRANCH   4   5
ENDBRANCH   1   4
BRANCH   1  15
HETATM   15  C   UNL     1      -5.796   1.936 -33.123  1.00  0.00     0.337 C 
BRANCH  15  16
HETATM   16  C   UNL     1      -5.887   0.429 -32.885  1.00  0.00     0.248 C 
HETATM   17  N   UNL     1      -5.706  -0.310 -34.044  1.00  0.00    -0.326 N 
HETATM   18  H   UNL     1      -5.815   0.157 -34.938  1.00  0.00     0.169 HD
HETATM   19  O   UNL     1      -6.007  -0.003 -31.745  1.00  0.00    -0.271 OA
BRANCH  17  20
HETATM   20  C   UNL     1      -5.461  -1.699 -34.130  1.00  0.00     0.040 A 
HETATM   21  C   UNL     1      -4.325  -2.330 -33.620  1.00  0.00     0.072 A 
HETATM   22  C   UNL     1      -4.141  -3.700 -33.814  1.00  0.00     0.121 A 
HETATM   23  F   UNL     1      -3.036  -4.283 -33.334  1.00  0.00    -0.206 F 
HETATM   24  C   UNL     1      -5.067  -4.464 -34.504  1.00  0.00     0.084 A 
HETATM   25  C   UNL     1      -6.199  -3.838 -34.997  1.00  0.00     0.121 A 
HETATM   26  F   UNL     1      -7.111  -4.549 -35.672  1.00  0.00    -0.206 F 
HETATM   27  C   UNL     1      -6.406  -2.471 -34.817  1.00  0.00     0.072 A 
ENDBRANCH  17  20
ENDBRANCH  15  16
ENDBRANCH   1  15
TORSDOF 6
ENDMDL
MODEL 5
REMARK VINA RESULT:      -7.4      4.598      7.315
REMARK  6 active torsions:
REMARK  status: ('A' for Active; 'I' for Inactive)
REMARK    1  A    between atoms: C_2  and  C_3 
REMARK    2  A    between atoms: C_8  and  C_9 
REMARK    3  A    between atoms: C_9  and  N_10 
REMARK    4  A    between atoms: N_10  and  C_12 
REMARK    5  A    between atoms: C_12  and  C_13 
REMARK       I    between atoms: C_13  and  N_14 
REMARK    6  A    between atoms: N_14  and  C_15 
ROOT
HETATM    1  N   UNL     1      -5.266   1.712 -30.593  1.00  0.00    -0.063 N 
HETATM    2  H   UNL     1      -4.267   1.514 -30.453  1.00  0.00     0.280 HD
HETATM    3  C   UNL     1      -6.056   0.654 -29.882  1.00  0.00     0.270 C 
ENDROOT
BRANCH   1   4
HETATM    4  C   UNL     1      -5.454   1.681 -32.113  1.00  0.00     0.277 C 
BRANCH   4   5
HETATM    5  C   UNL     1      -4.858   0.458 -32.733  1.00  0.00     0.012 A 
HETATM    6  C   UNL     1      -5.428  -0.548 -33.598  1.00  0.00     0.071 A 
HETATM    7  N   UNL     1      -4.494  -1.451 -33.933  1.00  0.00    -0.178 NA
HETATM    8  N   UNL     1      -3.402  -1.125 -33.253  1.00  0.00    -0.288 N 
HETATM    9  H   UNL     1      -2.586  -1.728 -33.333  1.00  0.00     0.188 HD
HETATM   10  C   UNL     1      -3.559   0.016 -32.529  1.00  0.00     0.120 A 
BRANCH   6  11
HETATM   11  C   UNL     1      -6.826  -0.797 -34.182  1.00  0.00    -0.004 C 
HETATM   12  C   UNL     1      -6.930  -2.262 -34.668  1.00  0.00     0.021 C 
HETATM   13  C   UNL     1      -7.063   0.141 -35.390  1.00  0.00     0.021 C 
HETATM   14  C   UNL     1      -7.979  -0.574 -33.200  1.00  0.00     0.021 C 
ENDBRANCH   6  11
ENDBRANCH   4   5
ENDBRANCH   1   4
BRANCH   1  15
HETATM   15  C   UNL     1      -5.551   3.091 -29.988  1.00  0.00     0.337 C 
BRANCH  15  16
HETATM   16  C   UNL     1      -4.851   4.217 -30.749  1.00  0.00     0.248 C 
HETATM   17  N   UNL     1      -3.488   4.007 -30.887  1.00  0.00    -0.326 N 
HETATM   18  H   UNL     1      -3.037   3.335 -30.274  1.00  0.00     0.169 HD
HETATM   19  O   UNL     1      -5.513   5.124 -31.240  1.00  0.00    -0.271 OA
BRANCH  17  20
HETATM   20  C   UNL     1      -2.610   4.698 -31.752  1.00  0.00     0.040 A 
HETATM   21  C   UNL     1      -1.771   5.738 -31.353  1.00  0.00     0.072 A 
HETATM   22  C   UNL     1      -0.987   6.404 -32.298  1.00  0.00     0.121 A 
HETATM   23  F   UNL     1      -0.203   7.413 -31.898  1.00  0.00    -0.206 F 
HETATM   24  C   UNL     1      -1.014   6.054 -33.637  1.00  0.00     0.084 A 
HETATM   25  C   UNL     1      -1.838   5.012 -34.027  1.00  0.00     0.121 A 
HETATM   26  F   UNL     1      -1.890   4.654 -35.316  1.00  0.00    -0.206 F 
HETATM   27  C   UNL     1      -2.631   4.332 -33.104  1.00  0.00     0.072 A 
ENDBRANCH  17  20
ENDBRANCH  15  16
ENDBRANCH   1  15
TORSDOF 6
ENDMDL
MODEL 6
REMARK VINA RESULT:      -7.4      4.625      7.144
REMARK  6 active torsions:
REMARK  status: ('A' for Active; 'I' for Inactive)
REMARK    1  A    between atoms: C_2  and  C_3 
REMARK    2  A    between atoms: C_8  and  C_9 
REMARK    3  A    between atoms: C_9  and  N_10 
REMARK    4  A    between atoms: N_10  and  C_12 
REMARK    5  A    between atoms: C_12  and  C_13 
REMARK       I    between atoms: C_13  and  N_14 
REMARK    6  A    between atoms: N_14  and  C_15 
ROOT
HETATM    1  N   UNL     1      -6.296   2.190 -30.943  1.00  0.00    -0.063 N 
HETATM    2  H   UNL     1      -6.182   1.208 -30.663  1.00  0.00     0.280 HD
HETATM    3  C   UNL     1      -7.742   2.556 -30.788  1.00  0.00     0.270 C 
ENDROOT
BRANCH   1   4
HETATM    4  C   UNL     1      -5.820   2.230 -32.399  1.00  0.00     0.277 C 
BRANCH   4   5
HETATM    5  C   UNL     1      -5.081   0.991 -32.787  1.00  0.00     0.012 A 
HETATM    6  C   UNL     1      -5.497  -0.176 -33.528  1.00  0.00     0.071 A 
HETATM    7  N   UNL     1      -4.469  -1.029 -33.661  1.00  0.00    -0.178 NA
HETATM    8  N   UNL     1      -3.465  -0.511 -32.967  1.00  0.00    -0.288 N 
HETATM    9  H   UNL     1      -2.600  -1.042 -32.900  1.00  0.00     0.188 HD
HETATM   10  C   UNL     1      -3.770   0.703 -32.433  1.00  0.00     0.120 A 
BRANCH   6  11
HETATM   11  C   UNL     1      -6.819  -0.633 -34.161  1.00  0.00    -0.004 C 
HETATM   12  C   UNL     1      -7.119   0.229 -35.411  1.00  0.00     0.021 C 
HETATM   13  C   UNL     1      -7.974  -0.452 -33.149  1.00  0.00     0.021 C 
HETATM   14  C   UNL     1      -6.839  -2.094 -34.618  1.00  0.00     0.021 C 
ENDBRANCH   6  11
ENDBRANCH   4   5
ENDBRANCH   1   4
BRANCH   1  15
HETATM   15  C   UNL     1      -5.425   3.039 -30.011  1.00  0.00     0.337 C 
BRANCH  15  16
HETATM   16  C   UNL     1      -4.759   4.206 -30.737  1.00  0.00     0.248 C 
HETATM   17  N   UNL     1      -3.431   3.959 -31.049  1.00  0.00    -0.326 N 
HETATM   18  H   UNL     1      -2.949   3.213 -30.557  1.00  0.00     0.169 HD
HETATM   19  O   UNL     1      -5.424   5.182 -31.063  1.00  0.00    -0.271 OA
BRANCH  17  20
HETATM   20  C   UNL     1      -2.620   4.697 -31.940  1.00  0.00     0.040 A 
HETATM   21  C   UNL     1      -2.540   4.456 -33.312  1.00  0.00     0.072 A 
HETATM   22  C   UNL     1      -1.657   5.197 -34.101  1.00  0.00     0.121 A 
HETATM   23  F   UNL     1      -1.581   4.937 -35.411  1.00  0.00    -0.206 F 
HETATM   24  C   UNL     1      -0.851   6.182 -33.554  1.00  0.00     0.084 A 
HETATM   25  C   UNL     1      -0.943   6.427 -32.195  1.00  0.00     0.121 A 
HETATM   26  F   UNL     1      -0.173   7.370 -31.637  1.00  0.00    -0.206 F 
HETATM   27  C   UNL     1      -1.816   5.700 -31.386  1.00  0.00     0.072 A 
ENDBRANCH  17  20
ENDBRANCH  15  16
ENDBRANCH   1  15
TORSDOF 6
ENDMDL
MODEL 7
REMARK VINA RESULT:      -7.0      1.813      3.395
REMARK  6 active torsions:
REMARK  status: ('A' for Active; 'I' for Inactive)
REMARK    1  A    between atoms: C_2  and  C_3 
REMARK    2  A    between atoms: C_8  and  C_9 
REMARK    3  A    between atoms: C_9  and  N_10 
REMARK    4  A    between atoms: N_10  and  C_12 
REMARK    5  A    between atoms: C_12  and  C_13 
REMARK       I    between atoms: C_13  and  N_14 
REMARK    6  A    between atoms: N_14  and  C_15 
ROOT
HETATM    1  N   UNL     1      -5.142   2.230 -31.745  1.00  0.00    -0.063 N 
HETATM    2  H   UNL     1      -5.539   1.752 -30.926  1.00  0.00     0.280 HD
HETATM    3  C   UNL     1      -4.341   3.401 -31.259  1.00  0.00     0.270 C 
ENDROOT
BRANCH   1   4
HETATM    4  C   UNL     1      -6.361   2.641 -32.577  1.00  0.00     0.277 C 
BRANCH   4   5
HETATM    5  C   UNL     1      -7.636   2.532 -31.804  1.00  0.00     0.012 A 
HETATM    6  C   UNL     1      -8.306   3.465 -30.930  1.00  0.00     0.071 A 
HETATM    7  N   UNL     1      -9.455   2.936 -30.482  1.00  0.00    -0.178 NA
HETATM    8  N   UNL     1      -9.496   1.694 -30.946  1.00  0.00    -0.288 N 
HETATM    9  H   UNL     1     -10.277   1.102 -30.670  1.00  0.00     0.188 HD
HETATM   10  C   UNL     1      -8.441   1.402 -31.753  1.00  0.00     0.120 A 
BRANCH   6  11
HETATM   11  C   UNL     1      -7.985   4.877 -30.416  1.00  0.00    -0.004 C 
HETATM   12  C   UNL     1      -9.275   5.533 -29.869  1.00  0.00     0.021 C 
HETATM   13  C   UNL     1      -7.443   5.746 -31.576  1.00  0.00     0.021 C 
HETATM   14  C   UNL     1      -6.951   4.927 -29.288  1.00  0.00     0.021 C 
ENDBRANCH   6  11
ENDBRANCH   4   5
ENDBRANCH   1   4
BRANCH   1  15
HETATM   15  C   UNL     1      -4.239   1.226 -32.471  1.00  0.00     0.337 C 
BRANCH  15  16
HETATM   16  C   UNL     1      -4.830  -0.183 -32.488  1.00  0.00     0.248 C 
HETATM   17  N   UNL     1      -4.585  -0.854 -33.676  1.00  0.00    -0.326 N 
HETATM   18  H   UNL     1      -4.316  -0.312 -34.492  1.00  0.00     0.169 HD
HETATM   19  O   UNL     1      -5.363  -0.634 -31.481  1.00  0.00    -0.271 OA
BRANCH  17  20
HETATM   20  C   UNL     1      -4.748  -2.237 -33.915  1.00  0.00     0.040 A 
HETATM   21  C   UNL     1      -3.828  -3.214 -33.532  1.00  0.00     0.072 A 
HETATM   22  C   UNL     1      -4.047  -4.551 -33.872  1.00  0.00     0.121 A 
HETATM   23  F   UNL     1      -3.143  -5.470 -33.513  1.00  0.00    -0.206 F 
HETATM   24  C   UNL     1      -5.169  -4.942 -34.584  1.00  0.00     0.084 A 
HETATM   25  C   UNL     1      -6.086  -3.971 -34.950  1.00  0.00     0.121 A 
HETATM   26  F   UNL     1      -7.178  -4.318 -35.643  1.00  0.00    -0.206 F 
HETATM   27  C   UNL     1      -5.890  -2.631 -34.623  1.00  0.00     0.072 A 
ENDBRANCH  17  20
ENDBRANCH  15  16
ENDBRANCH   1  15
TORSDOF 6
ENDMDL
MODEL 8
REMARK VINA RESULT:      -7.0      2.753      4.815
REMARK  6 active torsions:
REMARK  status: ('A' for Active; 'I' for Inactive)
REMARK    1  A    between atoms: C_2  and  C_3 
REMARK    2  A    between atoms: C_8  and  C_9 
REMARK    3  A    between atoms: C_9  and  N_10 
REMARK    4  A    between atoms: N_10  and  C_12 
REMARK    5  A    between atoms: C_12  and  C_13 
REMARK       I    between atoms: C_13  and  N_14 
REMARK    6  A    between atoms: N_14  and  C_15 
ROOT
HETATM    1  N   UNL     1      -5.354   2.325 -33.195  1.00  0.00    -0.063 N 
HETATM    2  H   UNL     1      -5.050   1.699 -33.952  1.00  0.00     0.280 HD
HETATM    3  C   UNL     1      -5.761   3.634 -33.804  1.00  0.00     0.270 C 
ENDROOT
BRANCH   1   4
HETATM    4  C   UNL     1      -4.128   2.444 -32.282  1.00  0.00     0.277 C 
BRANCH   4   5
HETATM    5  C   UNL     1      -4.130   3.714 -31.495  1.00  0.00     0.012 A 
HETATM    6  C   UNL     1      -3.350   4.921 -31.629  1.00  0.00     0.071 A 
HETATM    7  N   UNL     1      -3.726   5.820 -30.706  1.00  0.00    -0.178 NA
HETATM    8  N   UNL     1      -4.625   5.212 -29.943  1.00  0.00    -0.288 N 
HETATM    9  H   UNL     1      -4.998   5.718 -29.142  1.00  0.00     0.188 HD
HETATM   10  C   UNL     1      -4.915   3.956 -30.376  1.00  0.00     0.120 A 
BRANCH   6  11
HETATM   11  C   UNL     1      -2.217   5.370 -32.564  1.00  0.00    -0.004 C 
HETATM   12  C   UNL     1      -0.855   5.186 -31.852  1.00  0.00     0.021 C 
HETATM   13  C   UNL     1      -2.390   6.867 -32.915  1.00  0.00     0.021 C 
HETATM   14  C   UNL     1      -2.132   4.600 -33.884  1.00  0.00     0.021 C 
ENDBRANCH   6  11
ENDBRANCH   4   5
ENDBRANCH   1   4
BRANCH   1  15
HETATM   15  C   UNL     1      -6.548   1.662 -32.501  1.00  0.00     0.337 C 
BRANCH  15  16
HETATM   16  C   UNL     1      -6.447   0.137 -32.496  1.00  0.00     0.248 C 
HETATM   17  N   UNL     1      -6.316  -0.397 -33.768  1.00  0.00    -0.326 N 
HETATM   18  H   UNL     1      -6.574   0.178 -34.564  1.00  0.00     0.169 HD
HETATM   19  O   UNL     1      -6.392  -0.468 -31.431  1.00  0.00    -0.271 OA
BRANCH  17  20
HETATM   20  C   UNL     1      -5.932  -1.717 -34.095  1.00  0.00     0.040 A 
HETATM   21  C   UNL     1      -6.726  -2.612 -34.813  1.00  0.00     0.072 A 
HETATM   22  C   UNL     1      -6.285  -3.920 -35.029  1.00  0.00     0.121 A 
HETATM   23  F   UNL     1      -7.070  -4.769 -35.702  1.00  0.00    -0.206 F 
HETATM   24  C   UNL     1      -5.061  -4.359 -34.550  1.00  0.00     0.084 A 
HETATM   25  C   UNL     1      -4.270  -3.463 -33.850  1.00  0.00     0.121 A 
HETATM   26  F   UNL     1      -3.084  -3.860 -33.371  1.00  0.00    -0.206 F 
HETATM   27  C   UNL     1      -4.689  -2.154 -33.621  1.00  0.00     0.072 A 
ENDBRANCH  17  20
ENDBRANCH  15  16
ENDBRANCH   1  15
TORSDOF 6
ENDMDL
MODEL 9
REMARK VINA RESULT:      -7.0      2.466      3.654
REMARK  6 active torsions:
REMARK  status: ('A' for Active; 'I' for Inactive)
REMARK    1  A    between atoms: C_2  and  C_3 
REMARK    2  A    between atoms: C_8  and  C_9 
REMARK    3  A    between atoms: C_9  and  N_10 
REMARK    4  A    between atoms: N_10  and  C_12 
REMARK    5  A    between atoms: C_12  and  C_13 
REMARK       I    between atoms: C_13  and  N_14 
REMARK    6  A    between atoms: N_14  and  C_15 
ROOT
HETATM    1  N   UNL     1     -10.241   2.546 -32.249  1.00  0.00    -0.063 N 
HETATM    2  H   UNL     1     -10.697   1.626 -32.198  1.00  0.00     0.280 HD
HETATM    3  C   UNL     1      -9.758   2.906 -30.875  1.00  0.00     0.270 C 
ENDROOT
BRANCH   1   4
HETATM    4  C   UNL     1     -11.334   3.488 -32.766  1.00  0.00     0.277 C 
BRANCH   4   5
HETATM    5  C   UNL     1     -11.813   3.105 -34.128  1.00  0.00     0.012 A 
HETATM    6  C   UNL     1     -12.828   2.171 -34.556  1.00  0.00     0.071 A 
HETATM    7  N   UNL     1     -12.934   2.185 -35.894  1.00  0.00    -0.178 NA
HETATM    8  N   UNL     1     -11.982   2.998 -36.333  1.00  0.00    -0.288 N 
HETATM    9  H   UNL     1     -11.864   3.102 -37.338  1.00  0.00     0.188 HD
HETATM   10  C   UNL     1     -11.289   3.585 -35.321  1.00  0.00     0.120 A 
BRANCH   6  11
HETATM   11  C   UNL     1     -13.767   1.196 -33.830  1.00  0.00    -0.004 C 
HETATM   12  C   UNL     1     -14.335   1.874 -32.560  1.00  0.00     0.021 C 
HETATM   13  C   UNL     1     -12.982  -0.067 -33.404  1.00  0.00     0.021 C 
HETATM   14  C   UNL     1     -14.968   0.730 -34.656  1.00  0.00     0.021 C 
ENDBRANCH   6  11
ENDBRANCH   4   5
ENDBRANCH   1   4
BRANCH   1  15
HETATM   15  C   UNL     1      -9.059   2.421 -33.217  1.00  0.00     0.337 C 
BRANCH  15  16
HETATM   16  C   UNL     1      -8.616   0.972 -33.412  1.00  0.00     0.248 C 
HETATM   17  N   UNL     1      -7.394   0.866 -34.058  1.00  0.00    -0.326 N 
HETATM   18  H   UNL     1      -7.049   1.667 -34.577  1.00  0.00     0.169 HD
HETATM   19  O   UNL     1      -9.278   0.061 -32.929  1.00  0.00    -0.271 OA
BRANCH  17  20
HETATM   20  C   UNL     1      -6.584  -0.289 -34.149  1.00  0.00     0.040 A 
HETATM   21  C   UNL     1      -6.975  -1.477 -34.767  1.00  0.00     0.072 A 
HETATM   22  C   UNL     1      -6.128  -2.586 -34.747  1.00  0.00     0.121 A 
HETATM   23  F   UNL     1      -6.530  -3.723 -35.328  1.00  0.00    -0.206 F 
HETATM   24  C   UNL     1      -4.890  -2.540 -34.127  1.00  0.00     0.084 A 
HETATM   25  C   UNL     1      -4.499  -1.355 -33.527  1.00  0.00     0.121 A 
HETATM   26  F   UNL     1      -3.310  -1.282 -32.916  1.00  0.00    -0.206 F 
HETATM   27  C   UNL     1      -5.327  -0.234 -33.533  1.00  0.00     0.072 A 
ENDBRANCH  17  20
ENDBRANCH  15  16
ENDBRANCH   1  15
TORSDOF 6
ENDMDL
MODEL 10
REMARK VINA RESULT:      -6.9      2.251      4.286
REMARK  6 active torsions:
REMARK  status: ('A' for Active; 'I' for Inactive)
REMARK    1  A    between atoms: C_2  and  C_3 
REMARK    2  A    between atoms: C_8  and  C_9 
REMARK    3  A    between atoms: C_9  and  N_10 
REMARK    4  A    between atoms: N_10  and  C_12 
REMARK    5  A    between atoms: C_12  and  C_13 
REMARK       I    between atoms: C_13  and  N_14 
REMARK    6  A    between atoms: N_14  and  C_15 
ROOT
HETATM    1  N   UNL     1      -9.896   3.153 -33.799  1.00  0.00    -0.063 N 
HETATM    2  H   UNL     1      -8.936   2.861 -34.029  1.00  0.00     0.280 HD
HETATM    3  C   UNL     1     -10.469   3.857 -34.993  1.00  0.00     0.270 C 
ENDROOT
BRANCH   1   4
HETATM    4  C   UNL     1      -9.736   4.069 -32.582  1.00  0.00     0.277 C 
BRANCH   4   5
HETATM    5  C   UNL     1      -8.680   3.584 -31.643  1.00  0.00     0.012 A 
HETATM    6  C   UNL     1      -7.239   3.654 -31.708  1.00  0.00     0.071 A 
HETATM    7  N   UNL     1      -6.700   3.108 -30.607  1.00  0.00    -0.178 NA
HETATM    8  N   UNL     1      -7.711   2.615 -29.904  1.00  0.00    -0.288 N 
HETATM    9  H   UNL     1      -7.501   2.108 -29.048  1.00  0.00     0.188 HD
HETATM   10  C   UNL     1      -8.919   2.882 -30.469  1.00  0.00     0.120 A 
BRANCH   6  11
HETATM   11  C   UNL     1      -6.235   4.192 -32.737  1.00  0.00    -0.004 C 
HETATM   12  C   UNL     1      -4.793   3.949 -32.230  1.00  0.00     0.021 C 
HETATM   13  C   UNL     1      -6.441   5.714 -32.925  1.00  0.00     0.021 C 
HETATM   14  C   UNL     1      -6.330   3.546 -34.122  1.00  0.00     0.021 C 
ENDBRANCH   6  11
ENDBRANCH   4   5
ENDBRANCH   1   4
BRANCH   1  15
HETATM   15  C   UNL     1     -10.699   1.885 -33.487  1.00  0.00     0.337 C 
BRANCH  15  16
HETATM   16  C   UNL     1      -9.810   0.649 -33.356  1.00  0.00     0.248 C 
HETATM   17  N   UNL     1      -8.601   0.783 -34.021  1.00  0.00    -0.326 N 
HETATM   18  H   UNL     1      -8.517   1.501 -34.733  1.00  0.00     0.169 HD
HETATM   19  O   UNL     1     -10.159  -0.280 -32.637  1.00  0.00    -0.271 OA
BRANCH  17  20
HETATM   20  C   UNL     1      -7.462  -0.042 -33.878  1.00  0.00     0.040 A 
HETATM   21  C   UNL     1      -7.047  -0.979 -34.825  1.00  0.00     0.072 A 
HETATM   22  C   UNL     1      -5.945  -1.795 -34.562  1.00  0.00     0.121 A 
HETATM   23  F   UNL     1      -5.574  -2.702 -35.475  1.00  0.00    -0.206 F 
HETATM   24  C   UNL     1      -5.238  -1.696 -33.375  1.00  0.00     0.084 A 
HETATM   25  C   UNL     1      -5.644  -0.755 -32.444  1.00  0.00     0.121 A 
HETATM   26  F   UNL     1      -4.984  -0.640 -31.286  1.00  0.00    -0.206 F 
HETATM   27  C   UNL     1      -6.742   0.070 -32.683  1.00  0.00     0.072 A 
ENDBRANCH  17  20
ENDBRANCH  15  16
ENDBRANCH   1  15
TORSDOF 6
ENDMDL
