MODEL 1
REMARK VINA RESULT:      -9.5      0.000      0.000
REMARK  9 active torsions:
REMARK  status: ('A' for Active; 'I' for Inactive)
REMARK       I    between atoms: N_2  and  C_3 
REMARK    1  A    between atoms: N_2  and  C_28 
REMARK    2  A    between atoms: C_3  and  C_4 
REMARK    3  A    between atoms: C_6  and  N_7 
REMARK       I    between atoms: N_7  and  C_8 
REMARK    4  A    between atoms: C_8  and  C_9 
REMARK    5  A    between atoms: C_9  and  O_10 
REMARK    6  A    between atoms: N_17  and  C_18 
REMARK    7  A    between atoms: C_18  and  C_19 
REMARK    8  A    between atoms: C_19  and  C_20 
REMARK    9  A    between atoms: C_28  and  C_29 
ROOT
HETATM    1  C   UNL     1      -6.440   3.400 -32.712  1.00  0.00     0.036 A 
HETATM    2  C   UNL     1      -5.799   3.922 -31.581  1.00  0.00     0.049 A 
HETATM    3  C   UNL     1      -4.684   4.775 -31.679  1.00  0.00     0.065 A 
HETATM    4  C   UNL     1      -4.214   5.047 -32.986  1.00  0.00     0.091 A 
HETATM    5  C   UNL     1      -4.869   4.542 -34.119  1.00  0.00     0.088 A 
HETATM    6  N   UNL     1      -4.257   4.931 -35.281  1.00  0.00    -0.242 NA
HETATM    7  C   UNL     1      -3.230   5.645 -34.899  1.00  0.00     0.210 A 
HETATM    8  N   UNL     1      -3.163   5.756 -33.534  1.00  0.00    -0.337 N 
HETATM    9  C   UNL     1      -6.011   3.744 -33.992  1.00  0.00     0.051 A 
ENDROOT
BRANCH   1  10
HETATM   10  C   UNL     1      -7.656   2.576 -32.517  1.00  0.00     0.253 C 
HETATM   11  N   UNL     1      -7.552   1.185 -32.388  1.00  0.00    -0.350 N 
HETATM   12  C   UNL     1      -8.794   0.425 -32.370  1.00  0.00     0.153 C 
HETATM   13  O   UNL     1      -8.729   3.179 -32.490  1.00  0.00    -0.267 OA
BRANCH  11  14
HETATM   14  C   UNL     1      -6.274   0.444 -32.362  1.00  0.00     0.158 C 
BRANCH  14  15
HETATM   15  C   UNL     1      -5.751  -0.100 -33.707  1.00  0.00     0.151 A 
HETATM   16  O   UNL     1      -6.757  -0.961 -34.305  1.00  0.00    -0.343 OA
HETATM   17  C   UNL     1      -6.182  -2.200 -34.368  1.00  0.00     0.075 A 
HETATM   18  C   UNL     1      -4.872  -2.240 -33.928  1.00  0.00    -0.022 A 
HETATM   19  C   UNL     1      -6.828  -3.327 -34.833  1.00  0.00     0.037 A 
HETATM   20  C   UNL     1      -4.439  -0.890 -33.517  1.00  0.00     0.075 A 
HETATM   21  C   UNL     1      -4.153  -3.423 -33.939  1.00  0.00     0.010 A 
HETATM   22  C   UNL     1      -4.787  -4.577 -34.405  1.00  0.00     0.001 A 
HETATM   23  C   UNL     1      -6.117  -4.529 -34.850  1.00  0.00     0.003 A 
ENDBRANCH  14  15
ENDBRANCH  11  14
ENDBRANCH   1  10
BRANCH   3  24
HETATM   24  N   UNL     1      -4.093   5.367 -30.549  1.00  0.00    -0.323 N 
HETATM   25  C   UNL     1      -4.413   6.575 -29.946  1.00  0.00     0.246 C 
HETATM   26  O   UNL     1      -5.364   7.303 -30.204  1.00  0.00    -0.271 OA
HETATM   27  H   UNL     1      -3.290   4.916 -30.133  1.00  0.00     0.169 HD
BRANCH  25  28
HETATM   28  C   UNL     1      -3.449   6.905 -28.800  1.00  0.00     0.270 C 
BRANCH  28  29
HETATM   29  O   UNL     1      -4.077   7.625 -27.737  1.00  0.00    -0.387 OA
HETATM   30  C   UNL     1      -4.626   6.742 -26.759  1.00  0.00     0.202 C 
ENDBRANCH  28  29
ENDBRANCH  25  28
ENDBRANCH   3  24
BRANCH   8  31
HETATM   31  C   UNL     1      -2.098   6.494 -32.878  1.00  0.00     0.134 C 
BRANCH  31  32
HETATM   32  C   UNL     1      -0.971   5.568 -32.413  1.00  0.00     0.058 C 
BRANCH  32  33
HETATM   33  C   UNL     1      -0.380   5.933 -31.071  1.00  0.00    -0.057 A 
HETATM   34  C   UNL     1       0.120   4.966 -30.189  1.00  0.00     0.007 A 
HETATM   35  C   UNL     1       0.651   5.340 -28.951  1.00  0.00     0.001 A 
HETATM   36  C   UNL     1       0.669   6.680 -28.572  1.00  0.00     0.000 A 
HETATM   37  C   UNL     1       0.153   7.650 -29.428  1.00  0.00     0.001 A 
HETATM   38  C   UNL     1      -0.371   7.278 -30.667  1.00  0.00     0.007 A 
ENDBRANCH  32  33
ENDBRANCH  31  32
ENDBRANCH   8  31
TORSDOF 9
ENDMDL
MODEL 2
REMARK VINA RESULT:      -9.4      3.455      8.100
REMARK  9 active torsions:
REMARK  status: ('A' for Active; 'I' for Inactive)
REMARK       I    between atoms: N_2  and  C_3 
REMARK    1  A    between atoms: N_2  and  C_28 
REMARK    2  A    between atoms: C_3  and  C_4 
REMARK    3  A    between atoms: C_6  and  N_7 
REMARK       I    between atoms: N_7  and  C_8 
REMARK    4  A    between atoms: C_8  and  C_9 
REMARK    5  A    between atoms: C_9  and  O_10 
REMARK    6  A    between atoms: N_17  and  C_18 
REMARK    7  A    between atoms: C_18  and  C_19 
REMARK    8  A    between atoms: C_19  and  C_20 
REMARK    9  A    between atoms: C_28  and  C_29 
ROOT
HETATM    1  C   UNL     1      -9.397   4.021 -32.013  1.00  0.00     0.036 A 
HETATM    2  C   UNL     1      -8.003   4.072 -32.148  1.00  0.00     0.049 A 
HETATM    3  C   UNL     1      -7.241   2.939 -32.488  1.00  0.00     0.065 A 
HETATM    4  C   UNL     1      -7.955   1.727 -32.647  1.00  0.00     0.091 A 
HETATM    5  C   UNL     1      -9.352   1.680 -32.532  1.00  0.00     0.088 A 
HETATM    6  N   UNL     1      -9.841   0.416 -32.730  1.00  0.00    -0.242 NA
HETATM    7  C   UNL     1      -8.784  -0.325 -32.942  1.00  0.00     0.210 A 
HETATM    8  N   UNL     1      -7.628   0.412 -32.914  1.00  0.00    -0.337 N 
HETATM    9  C   UNL     1     -10.088   2.836 -32.251  1.00  0.00     0.051 A 
ENDROOT
BRANCH   1  10
HETATM   10  C   UNL     1     -10.126   5.280 -31.732  1.00  0.00     0.253 C 
HETATM   11  N   UNL     1     -10.643   6.045 -32.785  1.00  0.00    -0.350 N 
HETATM   12  C   UNL     1     -11.196   7.350 -32.450  1.00  0.00     0.153 C 
HETATM   13  O   UNL     1     -10.229   5.601 -30.548  1.00  0.00    -0.267 OA
BRANCH  11  14
HETATM   14  C   UNL     1     -10.580   5.654 -34.208  1.00  0.00     0.158 C 
BRANCH  14  15
HETATM   15  C   UNL     1     -11.877   5.117 -34.847  1.00  0.00     0.151 A 
HETATM   16  O   UNL     1     -12.834   4.797 -33.802  1.00  0.00    -0.343 OA
HETATM   17  C   UNL     1     -13.044   3.449 -33.903  1.00  0.00     0.075 A 
HETATM   18  C   UNL     1     -12.369   2.848 -34.950  1.00  0.00    -0.022 A 
HETATM   19  C   UNL     1     -13.858   2.729 -33.054  1.00  0.00     0.037 A 
HETATM   20  C   UNL     1     -11.601   3.861 -35.700  1.00  0.00     0.075 A 
HETATM   21  C   UNL     1     -12.488   1.490 -35.187  1.00  0.00     0.010 A 
HETATM   22  C   UNL     1     -13.307   0.740 -34.339  1.00  0.00     0.001 A 
HETATM   23  C   UNL     1     -13.989   1.357 -33.279  1.00  0.00     0.003 A 
ENDBRANCH  14  15
ENDBRANCH  11  14
ENDBRANCH   1  10
BRANCH   3  24
HETATM   24  N   UNL     1      -5.854   3.008 -32.707  1.00  0.00    -0.323 N 
HETATM   25  C   UNL     1      -4.830   2.817 -31.791  1.00  0.00     0.246 C 
HETATM   26  O   UNL     1      -4.933   2.421 -30.636  1.00  0.00    -0.271 OA
HETATM   27  H   UNL     1      -5.524   3.289 -33.619  1.00  0.00     0.169 HD
BRANCH  25  28
HETATM   28  C   UNL     1      -3.457   3.093 -32.416  1.00  0.00     0.270 C 
BRANCH  28  29
HETATM   29  O   UNL     1      -2.477   3.483 -31.452  1.00  0.00    -0.387 OA
HETATM   30  C   UNL     1      -1.802   4.677 -31.845  1.00  0.00     0.202 C 
ENDBRANCH  28  29
ENDBRANCH  25  28
ENDBRANCH   3  24
BRANCH   8  31
HETATM   31  C   UNL     1      -6.326  -0.200 -33.112  1.00  0.00     0.134 C 
BRANCH  31  32
HETATM   32  C   UNL     1      -6.190  -0.800 -34.513  1.00  0.00     0.058 C 
BRANCH  32  33
HETATM   33  C   UNL     1      -5.813  -2.263 -34.528  1.00  0.00    -0.057 A 
HETATM   34  C   UNL     1      -6.734  -3.267 -34.859  1.00  0.00     0.007 A 
HETATM   35  C   UNL     1      -6.351  -4.611 -34.853  1.00  0.00     0.001 A 
HETATM   36  C   UNL     1      -5.053  -4.970 -34.498  1.00  0.00     0.000 A 
HETATM   37  C   UNL     1      -4.134  -3.985 -34.143  1.00  0.00     0.001 A 
HETATM   38  C   UNL     1      -4.512  -2.642 -34.156  1.00  0.00     0.007 A 
ENDBRANCH  32  33
ENDBRANCH  31  32
ENDBRANCH   8  31
TORSDOF 9
ENDMDL
MODEL 3
REMARK VINA RESULT:      -9.3      2.656      8.494
REMARK  9 active torsions:
REMARK  status: ('A' for Active; 'I' for Inactive)
REMARK       I    between atoms: N_2  and  C_3 
REMARK    1  A    between atoms: N_2  and  C_28 
REMARK    2  A    between atoms: C_3  and  C_4 
REMARK    3  A    between atoms: C_6  and  N_7 
REMARK       I    between atoms: N_7  and  C_8 
REMARK    4  A    between atoms: C_8  and  C_9 
REMARK    5  A    between atoms: C_9  and  O_10 
REMARK    6  A    between atoms: N_17  and  C_18 
REMARK    7  A    between atoms: C_18  and  C_19 
REMARK    8  A    between atoms: C_19  and  C_20 
REMARK    9  A    between atoms: C_28  and  C_29 
ROOT
HETATM    1  C   UNL     1      -7.037   4.023 -30.114  1.00  0.00     0.036 A 
HETATM    2  C   UNL     1      -8.144   3.445 -30.748  1.00  0.00     0.049 A 
HETATM    3  C   UNL     1      -8.057   2.220 -31.436  1.00  0.00     0.065 A 
HETATM    4  C   UNL     1      -6.778   1.619 -31.489  1.00  0.00     0.091 A 
HETATM    5  C   UNL     1      -5.674   2.188 -30.835  1.00  0.00     0.088 A 
HETATM    6  N   UNL     1      -4.537   1.443 -31.006  1.00  0.00    -0.242 NA
HETATM    7  C   UNL     1      -4.900   0.442 -31.765  1.00  0.00     0.210 A 
HETATM    8  N   UNL     1      -6.235   0.492 -32.075  1.00  0.00    -0.337 N 
HETATM    9  C   UNL     1      -5.804   3.376 -30.110  1.00  0.00     0.051 A 
ENDROOT
BRANCH   1  10
HETATM   10  C   UNL     1      -7.239   5.275 -29.344  1.00  0.00     0.253 C 
HETATM   11  N   UNL     1      -7.389   6.496 -30.012  1.00  0.00    -0.350 N 
HETATM   12  C   UNL     1      -7.412   7.701 -29.195  1.00  0.00     0.153 C 
HETATM   13  O   UNL     1      -7.252   5.167 -28.118  1.00  0.00    -0.267 OA
BRANCH  11  14
HETATM   14  C   UNL     1      -7.432   6.643 -31.481  1.00  0.00     0.158 C 
BRANCH  14  15
HETATM   15  C   UNL     1      -6.112   7.017 -32.188  1.00  0.00     0.151 A 
HETATM   16  O   UNL     1      -5.810   6.023 -33.205  1.00  0.00    -0.343 OA
HETATM   17  C   UNL     1      -4.633   5.448 -32.811  1.00  0.00     0.075 A 
HETATM   18  C   UNL     1      -4.089   6.000 -31.666  1.00  0.00    -0.022 A 
HETATM   19  C   UNL     1      -4.017   4.413 -33.483  1.00  0.00     0.037 A 
HETATM   20  C   UNL     1      -4.945   7.101 -31.183  1.00  0.00     0.075 A 
HETATM   21  C   UNL     1      -2.893   5.531 -31.149  1.00  0.00     0.010 A 
HETATM   22  C   UNL     1      -2.252   4.482 -31.812  1.00  0.00     0.001 A 
HETATM   23  C   UNL     1      -2.811   3.926 -32.974  1.00  0.00     0.003 A 
ENDBRANCH  14  15
ENDBRANCH  11  14
ENDBRANCH   1  10
BRANCH   3  24
HETATM   24  N   UNL     1      -9.184   1.597 -32.000  1.00  0.00    -0.323 N 
HETATM   25  C   UNL     1      -9.655   1.689 -33.302  1.00  0.00     0.246 C 
HETATM   26  O   UNL     1      -9.104   2.232 -34.252  1.00  0.00    -0.271 OA
HETATM   27  H   UNL     1      -9.787   1.055 -31.397  1.00  0.00     0.169 HD
BRANCH  25  28
HETATM   28  C   UNL     1     -10.981   0.939 -33.476  1.00  0.00     0.270 C 
BRANCH  28  29
HETATM   29  O   UNL     1     -12.070   1.805 -33.799  1.00  0.00    -0.387 OA
HETATM   30  C   UNL     1     -12.530   1.595 -35.133  1.00  0.00     0.202 C 
ENDBRANCH  28  29
ENDBRANCH  25  28
ENDBRANCH   3  24
BRANCH   8  31
HETATM   31  C   UNL     1      -6.863  -0.510 -32.918  1.00  0.00     0.134 C 
BRANCH  31  32
HETATM   32  C   UNL     1      -6.008  -0.833 -34.146  1.00  0.00     0.058 C 
BRANCH  32  33
HETATM   33  C   UNL     1      -5.681  -2.299 -34.308  1.00  0.00    -0.057 A 
HETATM   34  C   UNL     1      -6.620  -3.223 -34.784  1.00  0.00     0.007 A 
HETATM   35  C   UNL     1      -6.285  -4.574 -34.911  1.00  0.00     0.001 A 
HETATM   36  C   UNL     1      -5.017  -5.020 -34.547  1.00  0.00     0.000 A 
HETATM   37  C   UNL     1      -4.081  -4.117 -34.049  1.00  0.00     0.001 A 
HETATM   38  C   UNL     1      -4.412  -2.766 -33.928  1.00  0.00     0.007 A 
ENDBRANCH  32  33
ENDBRANCH  31  32
ENDBRANCH   8  31
TORSDOF 9
ENDMDL
MODEL 4
REMARK VINA RESULT:      -9.2      1.468      1.910
REMARK  9 active torsions:
REMARK  status: ('A' for Active; 'I' for Inactive)
REMARK       I    between atoms: N_2  and  C_3 
REMARK    1  A    between atoms: N_2  and  C_28 
REMARK    2  A    between atoms: C_3  and  C_4 
REMARK    3  A    between atoms: C_6  and  N_7 
REMARK       I    between atoms: N_7  and  C_8 
REMARK    4  A    between atoms: C_8  and  C_9 
REMARK    5  A    between atoms: C_9  and  O_10 
REMARK    6  A    between atoms: N_17  and  C_18 
REMARK    7  A    between atoms: C_18  and  C_19 
REMARK    8  A    between atoms: C_19  and  C_20 
REMARK    9  A    between atoms: C_28  and  C_29 
ROOT
HETATM    1  C   UNL     1      -5.664   4.841 -33.420  1.00  0.00     0.036 A 
HETATM    2  C   UNL     1      -5.266   5.437 -32.217  1.00  0.00     0.049 A 
HETATM    3  C   UNL     1      -3.971   5.955 -32.029  1.00  0.00     0.065 A 
HETATM    4  C   UNL     1      -3.072   5.804 -33.112  1.00  0.00     0.091 A 
HETATM    5  C   UNL     1      -3.477   5.226 -34.325  1.00  0.00     0.088 A 
HETATM    6  N   UNL     1      -2.458   5.185 -35.239  1.00  0.00    -0.242 NA
HETATM    7  C   UNL     1      -1.428   5.701 -34.619  1.00  0.00     0.210 A 
HETATM    8  N   UNL     1      -1.743   6.099 -33.345  1.00  0.00    -0.337 N 
HETATM    9  C   UNL     1      -4.788   4.774 -34.501  1.00  0.00     0.051 A 
ENDROOT
BRANCH   1  10
HETATM   10  C   UNL     1      -7.072   4.396 -33.556  1.00  0.00     0.253 C 
HETATM   11  N   UNL     1      -7.364   3.053 -33.823  1.00  0.00    -0.350 N 
HETATM   12  C   UNL     1      -8.752   2.719 -34.112  1.00  0.00     0.153 C 
HETATM   13  O   UNL     1      -7.935   5.265 -33.435  1.00  0.00    -0.267 OA
BRANCH  11  14
HETATM   14  C   UNL     1      -6.350   1.982 -33.919  1.00  0.00     0.158 C 
BRANCH  14  15
HETATM   15  C   UNL     1      -6.633   0.676 -33.150  1.00  0.00     0.151 A 
HETATM   16  O   UNL     1      -5.379   0.100 -32.697  1.00  0.00    -0.343 OA
HETATM   17  C   UNL     1      -5.284  -1.107 -33.334  1.00  0.00     0.075 A 
HETATM   18  C   UNL     1      -6.377  -1.421 -34.120  1.00  0.00    -0.022 A 
HETATM   19  C   UNL     1      -4.206  -1.960 -33.214  1.00  0.00     0.037 A 
HETATM   20  C   UNL     1      -7.381  -0.343 -34.036  1.00  0.00     0.075 A 
HETATM   21  C   UNL     1      -6.431  -2.614 -34.820  1.00  0.00     0.010 A 
HETATM   22  C   UNL     1      -5.350  -3.492 -34.714  1.00  0.00     0.001 A 
HETATM   23  C   UNL     1      -4.244  -3.167 -33.915  1.00  0.00     0.003 A 
ENDBRANCH  14  15
ENDBRANCH  11  14
ENDBRANCH   1  10
BRANCH   3  24
HETATM   24  N   UNL     1      -3.597   6.629 -30.854  1.00  0.00    -0.323 N 
HETATM   25  C   UNL     1      -3.437   7.993 -30.660  1.00  0.00     0.246 C 
HETATM   26  O   UNL     1      -3.716   8.891 -31.445  1.00  0.00    -0.271 OA
HETATM   27  H   UNL     1      -3.346   6.080 -30.043  1.00  0.00     0.169 HD
BRANCH  25  28
HETATM   28  C   UNL     1      -2.911   8.304 -29.253  1.00  0.00     0.270 C 
BRANCH  28  29
HETATM   29  O   UNL     1      -2.709   7.130 -28.465  1.00  0.00    -0.387 OA
HETATM   30  C   UNL     1      -2.679   7.433 -27.071  1.00  0.00     0.202 C 
ENDBRANCH  28  29
ENDBRANCH  25  28
ENDBRANCH   3  24
BRANCH   8  31
HETATM   31  C   UNL     1      -0.754   6.690 -32.461  1.00  0.00     0.134 C 
BRANCH  31  32
HETATM   32  C   UNL     1      -0.130   5.647 -31.531  1.00  0.00     0.058 C 
BRANCH  32  33
HETATM   33  C   UNL     1       0.270   6.182 -30.176  1.00  0.00    -0.057 A 
HETATM   34  C   UNL     1       0.393   5.351 -29.054  1.00  0.00     0.007 A 
HETATM   35  C   UNL     1       0.755   5.883 -27.813  1.00  0.00     0.001 A 
HETATM   36  C   UNL     1       0.979   7.251 -27.674  1.00  0.00     0.000 A 
HETATM   37  C   UNL     1       0.837   8.092 -28.775  1.00  0.00     0.001 A 
HETATM   38  C   UNL     1       0.482   7.561 -30.017  1.00  0.00     0.007 A 
ENDBRANCH  32  33
ENDBRANCH  31  32
ENDBRANCH   8  31
TORSDOF 9
ENDMDL
MODEL 5
REMARK VINA RESULT:      -9.2      1.902      8.905
REMARK  9 active torsions:
REMARK  status: ('A' for Active; 'I' for Inactive)
REMARK       I    between atoms: N_2  and  C_3 
REMARK    1  A    between atoms: N_2  and  C_28 
REMARK    2  A    between atoms: C_3  and  C_4 
REMARK    3  A    between atoms: C_6  and  N_7 
REMARK       I    between atoms: N_7  and  C_8 
REMARK    4  A    between atoms: C_8  and  C_9 
REMARK    5  A    between atoms: C_9  and  O_10 
REMARK    6  A    between atoms: N_17  and  C_18 
REMARK    7  A    between atoms: C_18  and  C_19 
REMARK    8  A    between atoms: C_19  and  C_20 
REMARK    9  A    between atoms: C_28  and  C_29 
ROOT
HETATM    1  C   UNL     1      -5.586   4.129 -31.426  1.00  0.00     0.036 A 
HETATM    2  C   UNL     1      -6.660   3.911 -32.299  1.00  0.00     0.049 A 
HETATM    3  C   UNL     1      -7.075   2.618 -32.668  1.00  0.00     0.065 A 
HETATM    4  C   UNL     1      -6.321   1.543 -32.141  1.00  0.00     0.091 A 
HETATM    5  C   UNL     1      -5.259   1.760 -31.251  1.00  0.00     0.088 A 
HETATM    6  N   UNL     1      -4.671   0.587 -30.857  1.00  0.00    -0.242 NA
HETATM    7  C   UNL     1      -5.325  -0.348 -31.496  1.00  0.00     0.210 A 
HETATM    8  N   UNL     1      -6.331   0.168 -32.271  1.00  0.00    -0.337 N 
HETATM    9  C   UNL     1      -4.907   3.055 -30.856  1.00  0.00     0.051 A 
ENDROOT
BRANCH   1  10
HETATM   10  C   UNL     1      -5.270   5.522 -31.029  1.00  0.00     0.253 C 
HETATM   11  N   UNL     1      -4.588   6.369 -31.911  1.00  0.00    -0.350 N 
HETATM   12  C   UNL     1      -4.163   7.663 -31.395  1.00  0.00     0.153 C 
HETATM   13  O   UNL     1      -5.627   5.864 -29.901  1.00  0.00    -0.267 OA
BRANCH  11  14
HETATM   14  C   UNL     1      -4.199   6.000 -33.287  1.00  0.00     0.158 C 
BRANCH  14  15
HETATM   15  C   UNL     1      -2.744   5.535 -33.504  1.00  0.00     0.151 A 
HETATM   16  O   UNL     1      -2.360   4.631 -32.432  1.00  0.00    -0.343 OA
HETATM   17  C   UNL     1      -1.335   5.258 -31.780  1.00  0.00     0.075 A 
HETATM   18  C   UNL     1      -0.955   6.461 -32.345  1.00  0.00    -0.022 A 
HETATM   19  C   UNL     1      -0.710   4.752 -30.659  1.00  0.00     0.037 A 
HETATM   20  C   UNL     1      -1.774   6.735 -33.542  1.00  0.00     0.075 A 
HETATM   21  C   UNL     1       0.077   7.209 -31.803  1.00  0.00     0.010 A 
HETATM   22  C   UNL     1       0.723   6.716 -30.667  1.00  0.00     0.001 A 
HETATM   23  C   UNL     1       0.332   5.494 -30.098  1.00  0.00     0.003 A 
ENDBRANCH  14  15
ENDBRANCH  11  14
ENDBRANCH   1  10
BRANCH   3  24
HETATM   24  N   UNL     1      -8.205   2.396 -33.475  1.00  0.00    -0.323 N 
HETATM   25  C   UNL     1      -9.521   2.214 -33.077  1.00  0.00     0.246 C 
HETATM   26  O   UNL     1      -9.979   2.340 -31.948  1.00  0.00    -0.271 OA
HETATM   27  H   UNL     1      -8.071   2.289 -34.470  1.00  0.00     0.169 HD
BRANCH  25  28
HETATM   28  C   UNL     1     -10.430   1.890 -34.270  1.00  0.00     0.270 C 
BRANCH  28  29
HETATM   29  O   UNL     1     -11.645   1.247 -33.882  1.00  0.00    -0.387 OA
HETATM   30  C   UNL     1     -12.770   2.109 -34.045  1.00  0.00     0.202 C 
ENDBRANCH  28  29
ENDBRANCH  25  28
ENDBRANCH   3  24
BRANCH   8  31
HETATM   31  C   UNL     1      -7.185  -0.682 -33.082  1.00  0.00     0.134 C 
BRANCH  31  32
HETATM   32  C   UNL     1      -6.529  -1.032 -34.420  1.00  0.00     0.058 C 
BRANCH  32  33
HETATM   33  C   UNL     1      -5.969  -2.433 -34.489  1.00  0.00    -0.057 A 
HETATM   34  C   UNL     1      -6.745  -3.527 -34.897  1.00  0.00     0.007 A 
HETATM   35  C   UNL     1      -6.195  -4.811 -34.939  1.00  0.00     0.001 A 
HETATM   36  C   UNL     1      -4.872  -5.022 -34.557  1.00  0.00     0.000 A 
HETATM   37  C   UNL     1      -4.096  -3.948 -34.127  1.00  0.00     0.001 A 
HETATM   38  C   UNL     1      -4.642  -2.664 -34.091  1.00  0.00     0.007 A 
ENDBRANCH  32  33
ENDBRANCH  31  32
ENDBRANCH   8  31
TORSDOF 9
ENDMDL
MODEL 6
REMARK VINA RESULT:      -9.1      1.584      2.307
REMARK  9 active torsions:
REMARK  status: ('A' for Active; 'I' for Inactive)
REMARK       I    between atoms: N_2  and  C_3 
REMARK    1  A    between atoms: N_2  and  C_28 
REMARK    2  A    between atoms: C_3  and  C_4 
REMARK    3  A    between atoms: C_6  and  N_7 
REMARK       I    between atoms: N_7  and  C_8 
REMARK    4  A    between atoms: C_8  and  C_9 
REMARK    5  A    between atoms: C_9  and  O_10 
REMARK    6  A    between atoms: N_17  and  C_18 
REMARK    7  A    between atoms: C_18  and  C_19 
REMARK    8  A    between atoms: C_19  and  C_20 
REMARK    9  A    between atoms: C_28  and  C_29 
ROOT
HETATM    1  C   UNL     1      -5.030   3.716 -32.175  1.00  0.00     0.036 A 
HETATM    2  C   UNL     1      -5.091   4.486 -31.006  1.00  0.00     0.049 A 
HETATM    3  C   UNL     1      -4.083   5.406 -30.661  1.00  0.00     0.065 A 
HETATM    4  C   UNL     1      -2.978   5.485 -31.541  1.00  0.00     0.091 A 
HETATM    5  C   UNL     1      -2.927   4.731 -32.723  1.00  0.00     0.088 A 
HETATM    6  N   UNL     1      -1.778   4.963 -33.431  1.00  0.00    -0.242 NA
HETATM    7  C   UNL     1      -1.106   5.824 -32.710  1.00  0.00     0.210 A 
HETATM    8  N   UNL     1      -1.784   6.179 -31.572  1.00  0.00    -0.337 N 
HETATM    9  C   UNL     1      -3.972   3.867 -33.068  1.00  0.00     0.051 A 
ENDROOT
BRANCH   1  10
HETATM   10  C   UNL     1      -6.174   2.832 -32.499  1.00  0.00     0.253 C 
HETATM   11  N   UNL     1      -6.134   1.474 -32.160  1.00  0.00    -0.350 N 
HETATM   12  C   UNL     1      -7.213   0.632 -32.657  1.00  0.00     0.153 C 
HETATM   13  O   UNL     1      -7.125   3.356 -33.079  1.00  0.00    -0.267 OA
BRANCH  11  14
HETATM   14  C   UNL     1      -5.030   0.833 -31.416  1.00  0.00     0.158 C 
BRANCH  14  15
HETATM   15  C   UNL     1      -3.881   0.228 -32.248  1.00  0.00     0.151 A 
HETATM   16  O   UNL     1      -4.423  -0.369 -33.457  1.00  0.00    -0.343 OA
HETATM   17  C   UNL     1      -4.135  -1.703 -33.362  1.00  0.00     0.075 A 
HETATM   18  C   UNL     1      -3.403  -2.047 -32.241  1.00  0.00    -0.022 A 
HETATM   19  C   UNL     1      -4.522  -2.644 -34.294  1.00  0.00     0.037 A 
HETATM   20  C   UNL     1      -3.111  -0.840 -31.443  1.00  0.00     0.075 A 
HETATM   21  C   UNL     1      -3.027  -3.359 -32.011  1.00  0.00     0.010 A 
HETATM   22  C   UNL     1      -3.408  -4.329 -32.941  1.00  0.00     0.001 A 
HETATM   23  C   UNL     1      -4.152  -3.973 -34.077  1.00  0.00     0.003 A 
ENDBRANCH  14  15
ENDBRANCH  11  14
ENDBRANCH   1  10
BRANCH   3  24
HETATM   24  N   UNL     1      -4.185   6.239 -29.533  1.00  0.00    -0.323 N 
HETATM   25  C   UNL     1      -4.598   7.562 -29.478  1.00  0.00     0.246 C 
HETATM   26  O   UNL     1      -5.080   8.227 -30.387  1.00  0.00    -0.271 OA
HETATM   27  H   UNL     1      -3.868   5.883 -28.642  1.00  0.00     0.169 HD
BRANCH  25  28
HETATM   28  C   UNL     1      -4.456   8.137 -28.063  1.00  0.00     0.270 C 
BRANCH  28  29
HETATM   29  O   UNL     1      -3.165   7.902 -27.496  1.00  0.00    -0.387 OA
HETATM   30  C   UNL     1      -3.259   7.484 -26.134  1.00  0.00     0.202 C 
ENDBRANCH  28  29
ENDBRANCH  25  28
ENDBRANCH   3  24
BRANCH   8  31
HETATM   31  C   UNL     1      -1.228   7.115 -30.611  1.00  0.00     0.134 C 
BRANCH  31  32
HETATM   32  C   UNL     1       0.163   6.682 -30.140  1.00  0.00     0.058 C 
BRANCH  32  33
HETATM   33  C   UNL     1       0.510   7.124 -28.738  1.00  0.00    -0.057 A 
HETATM   34  C   UNL     1       1.307   8.249 -28.487  1.00  0.00     0.007 A 
HETATM   35  C   UNL     1       1.616   8.623 -27.176  1.00  0.00     0.001 A 
HETATM   36  C   UNL     1       1.150   7.868 -26.102  1.00  0.00     0.000 A 
HETATM   37  C   UNL     1       0.377   6.733 -26.337  1.00  0.00     0.001 A 
HETATM   38  C   UNL     1       0.062   6.363 -27.646  1.00  0.00     0.007 A 
ENDBRANCH  32  33
ENDBRANCH  31  32
ENDBRANCH   8  31
TORSDOF 9
ENDMDL
MODEL 7
REMARK VINA RESULT:      -9.1      2.113      3.467
REMARK  9 active torsions:
REMARK  status: ('A' for Active; 'I' for Inactive)
REMARK       I    between atoms: N_2  and  C_3 
REMARK    1  A    between atoms: N_2  and  C_28 
REMARK    2  A    between atoms: C_3  and  C_4 
REMARK    3  A    between atoms: C_6  and  N_7 
REMARK       I    between atoms: N_7  and  C_8 
REMARK    4  A    between atoms: C_8  and  C_9 
REMARK    5  A    between atoms: C_9  and  O_10 
REMARK    6  A    between atoms: N_17  and  C_18 
REMARK    7  A    between atoms: C_18  and  C_19 
REMARK    8  A    between atoms: C_19  and  C_20 
REMARK    9  A    between atoms: C_28  and  C_29 
ROOT
HETATM    1  C   UNL     1      -6.572   3.072 -32.339  1.00  0.00     0.036 A 
HETATM    2  C   UNL     1      -5.394   3.469 -32.983  1.00  0.00     0.049 A 
HETATM    3  C   UNL     1      -4.481   4.363 -32.393  1.00  0.00     0.065 A 
HETATM    4  C   UNL     1      -4.839   4.877 -31.124  1.00  0.00     0.091 A 
HETATM    5  C   UNL     1      -6.008   4.463 -30.469  1.00  0.00     0.088 A 
HETATM    6  N   UNL     1      -6.159   5.074 -29.252  1.00  0.00    -0.242 NA
HETATM    7  C   UNL     1      -5.128   5.870 -29.145  1.00  0.00     0.210 A 
HETATM    8  N   UNL     1      -4.298   5.784 -30.234  1.00  0.00    -0.337 N 
HETATM    9  C   UNL     1      -6.866   3.527 -31.056  1.00  0.00     0.051 A 
ENDROOT
BRANCH   1  10
HETATM   10  C   UNL     1      -7.434   2.064 -33.001  1.00  0.00     0.253 C 
HETATM   11  N   UNL     1      -7.174   0.698 -32.839  1.00  0.00    -0.350 N 
HETATM   12  C   UNL     1      -7.951  -0.228 -33.651  1.00  0.00     0.153 C 
HETATM   13  O   UNL     1      -8.356   2.500 -33.691  1.00  0.00    -0.267 OA
BRANCH  11  14
HETATM   14  C   UNL     1      -6.109   0.150 -31.974  1.00  0.00     0.158 C 
BRANCH  14  15
HETATM   15  C   UNL     1      -4.770  -0.210 -32.651  1.00  0.00     0.151 A 
HETATM   16  O   UNL     1      -5.030  -0.975 -33.859  1.00  0.00    -0.343 OA
HETATM   17  C   UNL     1      -4.458  -2.199 -33.643  1.00  0.00     0.075 A 
HETATM   18  C   UNL     1      -3.791  -2.308 -32.437  1.00  0.00    -0.022 A 
HETATM   19  C   UNL     1      -4.520  -3.247 -34.538  1.00  0.00     0.037 A 
HETATM   20  C   UNL     1      -3.868  -1.029 -31.704  1.00  0.00     0.075 A 
HETATM   21  C   UNL     1      -3.153  -3.483 -32.080  1.00  0.00     0.010 A 
HETATM   22  C   UNL     1      -3.203  -4.559 -32.970  1.00  0.00     0.001 A 
HETATM   23  C   UNL     1      -3.883  -4.441 -34.193  1.00  0.00     0.003 A 
ENDBRANCH  14  15
ENDBRANCH  11  14
ENDBRANCH   1  10
BRANCH   3  24
HETATM   24  N   UNL     1      -3.259   4.696 -33.001  1.00  0.00    -0.323 N 
HETATM   25  C   UNL     1      -3.047   5.253 -34.254  1.00  0.00     0.246 C 
HETATM   26  O   UNL     1      -3.894   5.686 -35.026  1.00  0.00    -0.271 OA
HETATM   27  H   UNL     1      -2.402   4.458 -32.522  1.00  0.00     0.169 HD
BRANCH  25  28
HETATM   28  C   UNL     1      -1.551   5.354 -34.580  1.00  0.00     0.270 C 
BRANCH  28  29
HETATM   29  O   UNL     1      -1.057   6.693 -34.503  1.00  0.00    -0.387 OA
HETATM   30  C   UNL     1      -0.837   7.094 -33.152  1.00  0.00     0.202 C 
ENDBRANCH  28  29
ENDBRANCH  25  28
ENDBRANCH   3  24
BRANCH   8  31
HETATM   31  C   UNL     1      -3.092   6.587 -30.342  1.00  0.00     0.134 C 
BRANCH  31  32
HETATM   32  C   UNL     1      -2.913   7.505 -29.131  1.00  0.00     0.058 C 
BRANCH  32  33
HETATM   33  C   UNL     1      -1.543   7.436 -28.497  1.00  0.00    -0.057 A 
HETATM   34  C   UNL     1      -0.375   7.732 -29.213  1.00  0.00     0.007 A 
HETATM   35  C   UNL     1       0.876   7.648 -28.596  1.00  0.00     0.001 A 
HETATM   36  C   UNL     1       0.978   7.250 -27.265  1.00  0.00     0.000 A 
HETATM   37  C   UNL     1      -0.173   6.929 -26.549  1.00  0.00     0.001 A 
HETATM   38  C   UNL     1      -1.423   7.019 -27.161  1.00  0.00     0.007 A 
ENDBRANCH  32  33
ENDBRANCH  31  32
ENDBRANCH   8  31
TORSDOF 9
ENDMDL
MODEL 8
REMARK VINA RESULT:      -9.0      2.857      8.382
REMARK  9 active torsions:
REMARK  status: ('A' for Active; 'I' for Inactive)
REMARK       I    between atoms: N_2  and  C_3 
REMARK    1  A    between atoms: N_2  and  C_28 
REMARK    2  A    between atoms: C_3  and  C_4 
REMARK    3  A    between atoms: C_6  and  N_7 
REMARK       I    between atoms: N_7  and  C_8 
REMARK    4  A    between atoms: C_8  and  C_9 
REMARK    5  A    between atoms: C_9  and  O_10 
REMARK    6  A    between atoms: N_17  and  C_18 
REMARK    7  A    between atoms: C_18  and  C_19 
REMARK    8  A    between atoms: C_19  and  C_20 
REMARK    9  A    between atoms: C_28  and  C_29 
ROOT
HETATM    1  C   UNL     1      -8.413   4.263 -31.240  1.00  0.00     0.036 A 
HETATM    2  C   UNL     1      -7.405   3.413 -30.769  1.00  0.00     0.049 A 
HETATM    3  C   UNL     1      -7.172   2.143 -31.330  1.00  0.00     0.065 A 
HETATM    4  C   UNL     1      -8.042   1.750 -32.374  1.00  0.00     0.091 A 
HETATM    5  C   UNL     1      -9.038   2.610 -32.861  1.00  0.00     0.088 A 
HETATM    6  N   UNL     1      -9.759   2.038 -33.876  1.00  0.00    -0.242 NA
HETATM    7  C   UNL     1      -9.252   0.840 -34.015  1.00  0.00     0.210 A 
HETATM    8  N   UNL     1      -8.213   0.619 -33.148  1.00  0.00    -0.337 N 
HETATM    9  C   UNL     1      -9.206   3.889 -32.322  1.00  0.00     0.051 A 
ENDROOT
BRANCH   1  10
HETATM   10  C   UNL     1      -8.533   5.614 -30.643  1.00  0.00     0.253 C 
HETATM   11  N   UNL     1      -7.557   6.586 -30.895  1.00  0.00    -0.350 N 
HETATM   12  C   UNL     1      -7.648   7.830 -30.144  1.00  0.00     0.153 C 
HETATM   13  O   UNL     1      -9.514   5.811 -29.925  1.00  0.00    -0.267 OA
BRANCH  11  14
HETATM   14  C   UNL     1      -6.402   6.393 -31.796  1.00  0.00     0.158 C 
BRANCH  14  15
HETATM   15  C   UNL     1      -5.002   6.375 -31.149  1.00  0.00     0.151 A 
HETATM   16  O   UNL     1      -4.199   7.452 -31.704  1.00  0.00    -0.343 OA
HETATM   17  C   UNL     1      -3.157   6.836 -32.339  1.00  0.00     0.075 A 
HETATM   18  C   UNL     1      -3.150   5.459 -32.214  1.00  0.00    -0.022 A 
HETATM   19  C   UNL     1      -2.179   7.507 -33.044  1.00  0.00     0.037 A 
HETATM   20  C   UNL     1      -4.293   5.025 -31.388  1.00  0.00     0.075 A 
HETATM   21  C   UNL     1      -2.151   4.696 -32.794  1.00  0.00     0.010 A 
HETATM   22  C   UNL     1      -1.151   5.354 -33.514  1.00  0.00     0.001 A 
HETATM   23  C   UNL     1      -1.165   6.752 -33.638  1.00  0.00     0.003 A 
ENDBRANCH  14  15
ENDBRANCH  11  14
ENDBRANCH   1  10
BRANCH   3  24
HETATM   24  N   UNL     1      -6.107   1.325 -30.914  1.00  0.00    -0.323 N 
HETATM   25  C   UNL     1      -4.865   1.163 -31.511  1.00  0.00     0.246 C 
HETATM   26  O   UNL     1      -4.405   1.803 -32.449  1.00  0.00    -0.271 OA
HETATM   27  H   UNL     1      -6.249   0.717 -30.120  1.00  0.00     0.169 HD
BRANCH  25  28
HETATM   28  C   UNL     1      -4.034   0.089 -30.798  1.00  0.00     0.270 C 
BRANCH  28  29
HETATM   29  O   UNL     1      -2.648   0.141 -31.144  1.00  0.00    -0.387 OA
HETATM   30  C   UNL     1      -2.192  -1.104 -31.671  1.00  0.00     0.202 C 
ENDBRANCH  28  29
ENDBRANCH  25  28
ENDBRANCH   3  24
BRANCH   8  31
HETATM   31  C   UNL     1      -7.502  -0.648 -33.113  1.00  0.00     0.134 C 
BRANCH  31  32
HETATM   32  C   UNL     1      -7.039  -1.075 -34.508  1.00  0.00     0.058 C 
BRANCH  32  33
HETATM   33  C   UNL     1      -6.249  -2.362 -34.533  1.00  0.00    -0.057 A 
HETATM   34  C   UNL     1      -6.809  -3.571 -34.969  1.00  0.00     0.007 A 
HETATM   35  C   UNL     1      -6.050  -4.745 -34.969  1.00  0.00     0.001 A 
HETATM   36  C   UNL     1      -4.733  -4.730 -34.516  1.00  0.00     0.000 A 
HETATM   37  C   UNL     1      -4.172  -3.541 -34.058  1.00  0.00     0.001 A 
HETATM   38  C   UNL     1      -4.925  -2.366 -34.064  1.00  0.00     0.007 A 
ENDBRANCH  32  33
ENDBRANCH  31  32
ENDBRANCH   8  31
TORSDOF 9
ENDMDL
MODEL 9
REMARK VINA RESULT:      -8.9      1.720      2.331
REMARK  9 active torsions:
REMARK  status: ('A' for Active; 'I' for Inactive)
REMARK       I    between atoms: N_2  and  C_3 
REMARK    1  A    between atoms: N_2  and  C_28 
REMARK    2  A    between atoms: C_3  and  C_4 
REMARK    3  A    between atoms: C_6  and  N_7 
REMARK       I    between atoms: N_7  and  C_8 
REMARK    4  A    between atoms: C_8  and  C_9 
REMARK    5  A    between atoms: C_9  and  O_10 
REMARK    6  A    between atoms: N_17  and  C_18 
REMARK    7  A    between atoms: C_18  and  C_19 
REMARK    8  A    between atoms: C_19  and  C_20 
REMARK    9  A    between atoms: C_28  and  C_29 
ROOT
HETATM    1  C   UNL     1      -6.199   4.883 -33.600  1.00  0.00     0.036 A 
HETATM    2  C   UNL     1      -6.025   5.794 -32.550  1.00  0.00     0.049 A 
HETATM    3  C   UNL     1      -4.827   6.509 -32.369  1.00  0.00     0.065 A 
HETATM    4  C   UNL     1      -3.785   6.228 -33.284  1.00  0.00     0.091 A 
HETATM    5  C   UNL     1      -3.966   5.332 -34.348  1.00  0.00     0.088 A 
HETATM    6  N   UNL     1      -2.838   5.213 -35.116  1.00  0.00    -0.242 NA
HETATM    7  C   UNL     1      -1.957   5.992 -34.545  1.00  0.00     0.210 A 
HETATM    8  N   UNL     1      -2.474   6.633 -33.448  1.00  0.00    -0.337 N 
HETATM    9  C   UNL     1      -5.189   4.681 -34.537  1.00  0.00     0.051 A 
ENDROOT
BRANCH   1  10
HETATM   10  C   UNL     1      -7.523   4.236 -33.761  1.00  0.00     0.253 C 
HETATM   11  N   UNL     1      -7.748   2.953 -33.246  1.00  0.00    -0.350 N 
HETATM   12  C   UNL     1      -9.010   2.312 -33.587  1.00  0.00     0.153 C 
HETATM   13  O   UNL     1      -8.377   4.880 -34.371  1.00  0.00    -0.267 OA
BRANCH  11  14
HETATM   14  C   UNL     1      -6.758   2.184 -32.465  1.00  0.00     0.158 C 
BRANCH  14  15
HETATM   15  C   UNL     1      -5.482   1.728 -33.203  1.00  0.00     0.151 A 
HETATM   16  O   UNL     1      -5.724   0.443 -33.836  1.00  0.00    -0.343 OA
HETATM   17  C   UNL     1      -4.856  -0.426 -33.234  1.00  0.00     0.075 A 
HETATM   18  C   UNL     1      -4.018   0.162 -32.306  1.00  0.00    -0.022 A 
HETATM   19  C   UNL     1      -4.795  -1.775 -33.517  1.00  0.00     0.037 A 
HETATM   20  C   UNL     1      -4.288   1.611 -32.232  1.00  0.00     0.075 A 
HETATM   21  C   UNL     1      -3.077  -0.587 -31.620  1.00  0.00     0.010 A 
HETATM   22  C   UNL     1      -2.998  -1.956 -31.889  1.00  0.00     0.001 A 
HETATM   23  C   UNL     1      -3.853  -2.547 -32.833  1.00  0.00     0.003 A 
ENDBRANCH  14  15
ENDBRANCH  11  14
ENDBRANCH   1  10
BRANCH   3  24
HETATM   24  N   UNL     1      -4.681   7.484 -31.367  1.00  0.00    -0.323 N 
HETATM   25  C   UNL     1      -4.103   7.348 -30.113  1.00  0.00     0.246 C 
HETATM   26  O   UNL     1      -3.487   6.380 -29.683  1.00  0.00    -0.271 OA
HETATM   27  H   UNL     1      -5.092   8.395 -31.519  1.00  0.00     0.169 HD
BRANCH  25  28
HETATM   28  C   UNL     1      -4.248   8.630 -29.284  1.00  0.00     0.270 C 
BRANCH  28  29
HETATM   29  O   UNL     1      -2.991   9.231 -28.968  1.00  0.00    -0.387 OA
HETATM   30  C   UNL     1      -2.710  10.340 -29.821  1.00  0.00     0.202 C 
ENDBRANCH  28  29
ENDBRANCH  25  28
ENDBRANCH   3  24
BRANCH   8  31
HETATM   31  C   UNL     1      -1.675   7.543 -32.646  1.00  0.00     0.134 C 
BRANCH  31  32
HETATM   32  C   UNL     1      -0.253   7.016 -32.442  1.00  0.00     0.058 C 
BRANCH  32  33
HETATM   33  C   UNL     1       0.057   6.595 -31.025  1.00  0.00    -0.057 A 
HETATM   34  C   UNL     1      -0.047   7.482 -29.944  1.00  0.00     0.007 A 
HETATM   35  C   UNL     1       0.258   7.059 -28.647  1.00  0.00     0.001 A 
HETATM   36  C   UNL     1       0.688   5.754 -28.417  1.00  0.00     0.000 A 
HETATM   37  C   UNL     1       0.819   4.870 -29.484  1.00  0.00     0.001 A 
HETATM   38  C   UNL     1       0.509   5.288 -30.779  1.00  0.00     0.007 A 
ENDBRANCH  32  33
ENDBRANCH  31  32
ENDBRANCH   8  31
TORSDOF 9
ENDMDL
MODEL 10
REMARK VINA RESULT:      -8.7      2.412      9.111
REMARK  9 active torsions:
REMARK  status: ('A' for Active; 'I' for Inactive)
REMARK       I    between atoms: N_2  and  C_3 
REMARK    1  A    between atoms: N_2  and  C_28 
REMARK    2  A    between atoms: C_3  and  C_4 
REMARK    3  A    between atoms: C_6  and  N_7 
REMARK       I    between atoms: N_7  and  C_8 
REMARK    4  A    between atoms: C_8  and  C_9 
REMARK    5  A    between atoms: C_9  and  O_10 
REMARK    6  A    between atoms: N_17  and  C_18 
REMARK    7  A    between atoms: C_18  and  C_19 
REMARK    8  A    between atoms: C_19  and  C_20 
REMARK    9  A    between atoms: C_28  and  C_29 
ROOT
HETATM    1  C   UNL     1      -6.206   6.020 -29.700  1.00  0.00     0.036 A 
HETATM    2  C   UNL     1      -5.222   5.997 -30.696  1.00  0.00     0.049 A 
HETATM    3  C   UNL     1      -4.967   4.851 -31.472  1.00  0.00     0.065 A 
HETATM    4  C   UNL     1      -5.733   3.702 -31.163  1.00  0.00     0.091 A 
HETATM    5  C   UNL     1      -6.734   3.731 -30.180  1.00  0.00     0.088 A 
HETATM    6  N   UNL     1      -7.358   2.519 -30.048  1.00  0.00    -0.242 NA
HETATM    7  C   UNL     1      -6.758   1.735 -30.905  1.00  0.00     0.210 A 
HETATM    8  N   UNL     1      -5.783   2.395 -31.608  1.00  0.00    -0.337 N 
HETATM    9  C   UNL     1      -7.004   4.903 -29.466  1.00  0.00     0.051 A 
ENDROOT
BRANCH   1  10
HETATM   10  C   UNL     1      -6.461   7.295 -28.988  1.00  0.00     0.253 C 
HETATM   11  N   UNL     1      -5.651   7.675 -27.911  1.00  0.00    -0.350 N 
HETATM   12  C   UNL     1      -6.061   8.850 -27.154  1.00  0.00     0.153 C 
HETATM   13  O   UNL     1      -7.412   7.967 -29.391  1.00  0.00    -0.267 OA
BRANCH  11  14
HETATM   14  C   UNL     1      -4.474   6.915 -27.445  1.00  0.00     0.158 C 
BRANCH  14  15
HETATM   15  C   UNL     1      -3.395   7.698 -26.667  1.00  0.00     0.151 A 
HETATM   16  O   UNL     1      -2.680   8.572 -27.581  1.00  0.00    -0.343 OA
HETATM   17  C   UNL     1      -1.386   8.129 -27.567  1.00  0.00     0.075 A 
HETATM   18  C   UNL     1      -1.153   7.086 -26.690  1.00  0.00    -0.022 A 
HETATM   19  C   UNL     1      -0.379   8.665 -28.343  1.00  0.00     0.037 A 
HETATM   20  C   UNL     1      -2.399   6.741 -25.979  1.00  0.00     0.075 A 
HETATM   21  C   UNL     1       0.110   6.536 -26.557  1.00  0.00     0.010 A 
HETATM   22  C   UNL     1       1.145   7.061 -27.334  1.00  0.00     0.001 A 
HETATM   23  C   UNL     1       0.902   8.121 -28.222  1.00  0.00     0.003 A 
ENDBRANCH  14  15
ENDBRANCH  11  14
ENDBRANCH   1  10
BRANCH   3  24
HETATM   24  N   UNL     1      -4.039   4.852 -32.528  1.00  0.00    -0.323 N 
HETATM   25  C   UNL     1      -2.705   4.471 -32.499  1.00  0.00     0.246 C 
HETATM   26  O   UNL     1      -2.108   3.934 -31.574  1.00  0.00    -0.271 OA
HETATM   27  H   UNL     1      -4.326   5.230 -33.420  1.00  0.00     0.169 HD
BRANCH  25  28
HETATM   28  C   UNL     1      -2.016   4.733 -33.844  1.00  0.00     0.270 C 
BRANCH  28  29
HETATM   29  O   UNL     1      -2.396   5.980 -34.428  1.00  0.00    -0.387 OA
HETATM   30  C   UNL     1      -1.639   7.063 -33.891  1.00  0.00     0.202 C 
ENDBRANCH  28  29
ENDBRANCH  25  28
ENDBRANCH   3  24
BRANCH   8  31
HETATM   31  C   UNL     1      -4.973   1.723 -32.609  1.00  0.00     0.134 C 
BRANCH  31  32
HETATM   32  C   UNL     1      -4.620   0.295 -32.185  1.00  0.00     0.058 C 
BRANCH  32  33
HETATM   33  C   UNL     1      -5.105  -0.773 -33.136  1.00  0.00    -0.057 A 
HETATM   34  C   UNL     1      -6.427  -0.813 -33.601  1.00  0.00     0.007 A 
HETATM   35  C   UNL     1      -6.843  -1.823 -34.473  1.00  0.00     0.001 A 
HETATM   36  C   UNL     1      -5.951  -2.815 -34.875  1.00  0.00     0.000 A 
HETATM   37  C   UNL     1      -4.642  -2.803 -34.401  1.00  0.00     0.001 A 
HETATM   38  C   UNL     1      -4.223  -1.791 -33.536  1.00  0.00     0.007 A 
ENDBRANCH  32  33
ENDBRANCH  31  32
ENDBRANCH   8  31
TORSDOF 9
ENDMDL
