MODEL 1
REMARK VINA RESULT:      -8.7      0.000      0.000
REMARK  5 active torsions:
REMARK  status: ('A' for Active; 'I' for Inactive)
REMARK    1  A    between atoms: C_2  and  C_3 
REMARK    2  A    between atoms: C_3  and  C_4 
REMARK    3  A    between atoms: C_8  and  N_9 
REMARK       I    between atoms: N_9  and  C_10 
REMARK    4  A    between atoms: C_10  and  C_11 
REMARK    5  A    between atoms: N_13  and  C_14 
ROOT
HETATM    1  C   UNL     1      -7.851   3.291 -33.103  1.00  0.00     0.106 C 
HETATM    2  C   UNL     1      -6.791   2.496 -33.852  1.00  0.00     0.148 C 
HETATM    3  N   UNL     1      -6.124   1.717 -32.844  1.00  0.00    -0.299 N 
HETATM    4  C   UNL     1      -6.310   2.281 -31.577  1.00  0.00     0.226 C 
HETATM    5  O   UNL     1      -5.831   1.978 -30.495  1.00  0.00    -0.273 OA
HETATM    6  C   UNL     1      -7.218   3.478 -31.733  1.00  0.00     0.119 C 
ENDROOT
BRANCH   1   7
HETATM    7  C   UNL     1      -8.149   4.608 -33.795  1.00  0.00     0.242 C 
HETATM    8  N   UNL     1      -9.391   4.899 -34.277  1.00  0.00    -0.156 N 
HETATM    9  H   UNL     1      -9.477   5.836 -34.649  1.00  0.00     0.187 HD
HETATM   10  O   UNL     1      -7.281   5.478 -33.925  1.00  0.00    -0.272 OA
BRANCH   8  11
HETATM   11  C   UNL     1     -10.444   4.033 -34.390  1.00  0.00     0.725 A 
HETATM   12  N   UNL     1     -10.783   3.451 -35.583  1.00  0.00    -0.106 N 
HETATM   13  N   UNL     1     -11.849   2.647 -35.455  1.00  0.00    -0.144 NA
HETATM   14  H   UNL     1     -10.356   3.565 -36.493  1.00  0.00     0.208 HD
HETATM   15  C   UNL     1     -12.110   2.758 -34.148  1.00  0.00     0.166 A 
HETATM   16  N   UNL     1     -11.266   3.598 -33.467  1.00  0.00    -0.046 NA
BRANCH  15  17
HETATM   17  C   UNL     1     -13.234   2.049 -33.478  1.00  0.00     0.087 C 
BRANCH  17  18
HETATM   18  C   UNL     1     -13.727   0.814 -34.256  1.00  0.00    -0.016 C 
HETATM   19  C   UNL     1     -15.255   0.750 -34.321  1.00  0.00     0.010 C 
HETATM   20  C   UNL     1     -13.188  -0.461 -33.605  1.00  0.00     0.010 C 
ENDBRANCH  17  18
ENDBRANCH  15  17
ENDBRANCH   8  11
ENDBRANCH   1   7
BRANCH   3  21
HETATM   21  C   UNL     1      -5.310   0.609 -33.073  1.00  0.00     0.165 A 
HETATM   22  N   UNL     1      -4.011   0.597 -32.759  1.00  0.00    -0.155 NA
HETATM   23  N   UNL     1      -3.578  -0.618 -33.093  1.00  0.00    -0.275 N 
HETATM   24  H   UNL     1      -2.600  -0.833 -32.933  1.00  0.00     0.189 HD
HETATM   25  C   UNL     1      -4.537  -1.431 -33.620  1.00  0.00     0.065 A 
HETATM   26  C   UNL     1      -5.698  -0.659 -33.634  1.00  0.00     0.040 A 
HETATM   27  C   UNL     1      -4.474  -2.753 -34.078  1.00  0.00     0.051 A 
HETATM   28  C   UNL     1      -6.869  -1.246 -34.163  1.00  0.00     0.019 A 
HETATM   29  C   UNL     1      -6.834  -2.568 -34.632  1.00  0.00     0.020 A 
HETATM   30  C   UNL     1      -5.654  -3.303 -34.584  1.00  0.00     0.013 A 
HETATM   31 BR   UNL     1      -5.639  -5.085 -35.223  1.00  0.00    -0.051 Br
ENDBRANCH   3  21
TORSDOF 5
ENDMDL
MODEL 2
REMARK VINA RESULT:      -8.7      4.018      6.846
REMARK  5 active torsions:
REMARK  status: ('A' for Active; 'I' for Inactive)
REMARK    1  A    between atoms: C_2  and  C_3 
REMARK    2  A    between atoms: C_3  and  C_4 
REMARK    3  A    between atoms: C_8  and  N_9 
REMARK       I    between atoms: N_9  and  C_10 
REMARK    4  A    between atoms: C_10  and  C_11 
REMARK    5  A    between atoms: N_13  and  C_14 
ROOT
HETATM    1  C   UNL     1      -7.893   2.884 -33.517  1.00  0.00     0.106 C 
HETATM    2  C   UNL     1      -6.655   3.095 -34.376  1.00  0.00     0.148 C 
HETATM    3  N   UNL     1      -6.045   4.293 -33.868  1.00  0.00    -0.299 N 
HETATM    4  C   UNL     1      -6.979   5.066 -33.169  1.00  0.00     0.226 C 
HETATM    5  O   UNL     1      -6.878   6.182 -32.680  1.00  0.00    -0.273 OA
HETATM    6  C   UNL     1      -8.283   4.306 -33.144  1.00  0.00     0.119 C 
ENDROOT
BRANCH   1   7
HETATM    7  C   UNL     1      -8.985   2.161 -34.285  1.00  0.00     0.242 C 
HETATM    8  N   UNL     1      -8.951   0.810 -34.476  1.00  0.00    -0.156 N 
HETATM    9  H   UNL     1      -9.772   0.442 -34.938  1.00  0.00     0.187 HD
HETATM   10  O   UNL     1      -9.959   2.766 -34.746  1.00  0.00    -0.272 OA
BRANCH   8  11
HETATM   11  C   UNL     1      -7.902  -0.024 -34.203  1.00  0.00     0.725 A 
HETATM   12  N   UNL     1      -7.447  -0.231 -32.928  1.00  0.00    -0.106 N 
HETATM   13  N   UNL     1      -6.408  -1.079 -32.904  1.00  0.00    -0.144 NA
HETATM   14  H   UNL     1      -7.777   0.172 -32.060  1.00  0.00     0.208 HD
HETATM   15  C   UNL     1      -6.283  -1.381 -34.201  1.00  0.00     0.166 A 
HETATM   16  N   UNL     1      -7.185  -0.753 -35.023  1.00  0.00    -0.046 NA
BRANCH  15  17
HETATM   17  C   UNL     1      -5.242  -2.306 -34.726  1.00  0.00     0.087 C 
BRANCH  17  18
HETATM   18  C   UNL     1      -5.486  -3.778 -34.345  1.00  0.00    -0.016 C 
HETATM   19  C   UNL     1      -4.176  -4.538 -34.121  1.00  0.00     0.010 C 
HETATM   20  C   UNL     1      -6.300  -4.472 -35.440  1.00  0.00     0.010 C 
ENDBRANCH  17  18
ENDBRANCH  15  17
ENDBRANCH   8  11
ENDBRANCH   1   7
BRANCH   3  21
HETATM   21  C   UNL     1      -4.737   4.711 -34.110  1.00  0.00     0.165 A 
HETATM   22  N   UNL     1      -4.345   5.188 -35.296  1.00  0.00    -0.155 NA
HETATM   23  N   UNL     1      -3.060   5.504 -35.141  1.00  0.00    -0.275 N 
HETATM   24  H   UNL     1      -2.567   5.888 -35.940  1.00  0.00     0.189 HD
HETATM   25  C   UNL     1      -2.568   5.261 -33.893  1.00  0.00     0.065 A 
HETATM   26  C   UNL     1      -3.640   4.729 -33.179  1.00  0.00     0.040 A 
HETATM   27  C   UNL     1      -1.292   5.460 -33.351  1.00  0.00     0.051 A 
HETATM   28  C   UNL     1      -3.410   4.350 -31.837  1.00  0.00     0.019 A 
HETATM   29  C   UNL     1      -2.140   4.536 -31.269  1.00  0.00     0.020 A 
HETATM   30  C   UNL     1      -1.105   5.085 -32.020  1.00  0.00     0.013 A 
HETATM   31 BR   UNL     1       0.596   5.325 -31.224  1.00  0.00    -0.051 Br
ENDBRANCH   3  21
TORSDOF 5
ENDMDL
MODEL 3
REMARK VINA RESULT:      -8.5      1.876      2.694
REMARK  5 active torsions:
REMARK  status: ('A' for Active; 'I' for Inactive)
REMARK    1  A    between atoms: C_2  and  C_3 
REMARK    2  A    between atoms: C_3  and  C_4 
REMARK    3  A    between atoms: C_8  and  N_9 
REMARK       I    between atoms: N_9  and  C_10 
REMARK    4  A    between atoms: C_10  and  C_11 
REMARK    5  A    between atoms: N_13  and  C_14 
ROOT
HETATM    1  C   UNL     1      -6.597   3.408 -30.903  1.00  0.00     0.106 C 
HETATM    2  C   UNL     1      -6.327   1.915 -31.023  1.00  0.00     0.148 C 
HETATM    3  N   UNL     1      -5.789   1.736 -32.344  1.00  0.00    -0.299 N 
HETATM    4  C   UNL     1      -6.143   2.806 -33.173  1.00  0.00     0.226 C 
HETATM    5  O   UNL     1      -5.966   2.974 -34.370  1.00  0.00    -0.273 OA
HETATM    6  C   UNL     1      -6.909   3.804 -32.338  1.00  0.00     0.119 C 
ENDROOT
BRANCH   1   7
HETATM    7  C   UNL     1      -7.748   3.690 -29.955  1.00  0.00     0.242 C 
HETATM    8  N   UNL     1      -8.950   3.058 -30.081  1.00  0.00    -0.156 N 
HETATM    9  H   UNL     1      -9.607   3.279 -29.344  1.00  0.00     0.187 HD
HETATM   10  O   UNL     1      -7.630   4.485 -29.016  1.00  0.00    -0.272 OA
BRANCH   8  11
HETATM   11  C   UNL     1      -9.353   2.278 -31.130  1.00  0.00     0.725 A 
HETATM   12  N   UNL     1      -9.235   0.913 -31.110  1.00  0.00    -0.106 N 
HETATM   13  N   UNL     1      -9.685   0.361 -32.247  1.00  0.00    -0.144 NA
HETATM   14  H   UNL     1      -8.855   0.316 -30.387  1.00  0.00     0.208 HD
HETATM   15  C   UNL     1     -10.092   1.441 -32.923  1.00  0.00     0.166 A 
HETATM   16  N   UNL     1      -9.905   2.630 -32.265  1.00  0.00    -0.046 NA
BRANCH  15  17
HETATM   17  C   UNL     1     -10.685   1.374 -34.286  1.00  0.00     0.087 C 
BRANCH  17  18
HETATM   18  C   UNL     1     -12.159   1.818 -34.334  1.00  0.00    -0.016 C 
HETATM   19  C   UNL     1     -13.120   0.631 -34.222  1.00  0.00     0.010 C 
HETATM   20  C   UNL     1     -12.432   2.578 -35.634  1.00  0.00     0.010 C 
ENDBRANCH  17  18
ENDBRANCH  15  17
ENDBRANCH   8  11
ENDBRANCH   1   7
BRANCH   3  21
HETATM   21  C   UNL     1      -5.098   0.614 -32.799  1.00  0.00     0.165 A 
HETATM   22  N   UNL     1      -3.775   0.482 -32.659  1.00  0.00    -0.155 NA
HETATM   23  N   UNL     1      -3.482  -0.709 -33.179  1.00  0.00    -0.275 N 
HETATM   24  H   UNL     1      -2.512  -1.004 -33.173  1.00  0.00     0.189 HD
HETATM   25  C   UNL     1      -4.559  -1.391 -33.664  1.00  0.00     0.065 A 
HETATM   26  C   UNL     1      -5.649  -0.551 -33.441  1.00  0.00     0.040 A 
HETATM   27  C   UNL     1      -4.656  -2.649 -34.271  1.00  0.00     0.051 A 
HETATM   28  C   UNL     1      -6.918  -0.994 -33.876  1.00  0.00     0.019 A 
HETATM   29  C   UNL     1      -7.044  -2.250 -34.490  1.00  0.00     0.020 A 
HETATM   30  C   UNL     1      -5.927  -3.058 -34.677  1.00  0.00     0.013 A 
HETATM   31 BR   UNL     1      -6.130  -4.748 -35.506  1.00  0.00    -0.051 Br
ENDBRANCH   3  21
TORSDOF 5
ENDMDL
MODEL 4
REMARK VINA RESULT:      -8.3      5.272      8.598
REMARK  5 active torsions:
REMARK  status: ('A' for Active; 'I' for Inactive)
REMARK    1  A    between atoms: C_2  and  C_3 
REMARK    2  A    between atoms: C_3  and  C_4 
REMARK    3  A    between atoms: C_8  and  N_9 
REMARK       I    between atoms: N_9  and  C_10 
REMARK    4  A    between atoms: C_10  and  C_11 
REMARK    5  A    between atoms: N_13  and  C_14 
ROOT
HETATM    1  C   UNL     1      -3.662   4.800 -32.742  1.00  0.00     0.106 C 
HETATM    2  C   UNL     1      -4.752   3.965 -33.399  1.00  0.00     0.148 C 
HETATM    3  N   UNL     1      -4.737   2.710 -32.698  1.00  0.00    -0.299 N 
HETATM    4  C   UNL     1      -3.506   2.513 -32.061  1.00  0.00     0.226 C 
HETATM    5  O   UNL     1      -3.073   1.543 -31.457  1.00  0.00    -0.273 OA
HETATM    6  C   UNL     1      -2.665   3.745 -32.289  1.00  0.00     0.119 C 
ENDROOT
BRANCH   1   7
HETATM    7  C   UNL     1      -3.060   5.794 -33.719  1.00  0.00     0.242 C 
HETATM    8  N   UNL     1      -2.055   6.640 -33.351  1.00  0.00    -0.156 N 
HETATM    9  H   UNL     1      -1.693   7.199 -34.112  1.00  0.00     0.187 HD
HETATM   10  O   UNL     1      -3.441   5.856 -34.893  1.00  0.00    -0.272 OA
BRANCH   8  11
HETATM   11  C   UNL     1      -1.600   6.858 -32.080  1.00  0.00     0.725 A 
HETATM   12  N   UNL     1      -2.373   7.459 -31.121  1.00  0.00    -0.106 N 
HETATM   13  N   UNL     1      -1.716   7.575 -29.958  1.00  0.00    -0.144 NA
HETATM   14  H   UNL     1      -3.317   7.815 -31.195  1.00  0.00     0.208 HD
HETATM   15  C   UNL     1      -0.544   7.004 -30.256  1.00  0.00     0.166 A 
HETATM   16  N   UNL     1      -0.442   6.553 -31.548  1.00  0.00    -0.046 NA
BRANCH  15  17
HETATM   17  C   UNL     1       0.573   6.879 -29.281  1.00  0.00     0.087 C 
BRANCH  17  18
HETATM   18  C   UNL     1       0.383   7.742 -28.020  1.00  0.00    -0.016 C 
HETATM   19  C   UNL     1       1.592   8.642 -27.752  1.00  0.00     0.010 C 
HETATM   20  C   UNL     1       0.133   6.844 -26.806  1.00  0.00     0.010 C 
ENDBRANCH  17  18
ENDBRANCH  15  17
ENDBRANCH   8  11
ENDBRANCH   1   7
BRANCH   3  21
HETATM   21  C   UNL     1      -5.749   1.751 -32.717  1.00  0.00     0.165 A 
HETATM   22  N   UNL     1      -6.965   1.984 -32.214  1.00  0.00    -0.155 NA
HETATM   23  N   UNL     1      -7.657   0.866 -32.433  1.00  0.00    -0.275 N 
HETATM   24  H   UNL     1      -8.620   0.835 -32.119  1.00  0.00     0.189 HD
HETATM   25  C   UNL     1      -6.954  -0.114 -33.070  1.00  0.00     0.065 A 
HETATM   26  C   UNL     1      -5.684   0.424 -33.271  1.00  0.00     0.040 A 
HETATM   27  C   UNL     1      -7.328  -1.402 -33.471  1.00  0.00     0.051 A 
HETATM   28  C   UNL     1      -4.717  -0.394 -33.897  1.00  0.00     0.019 A 
HETATM   29  C   UNL     1      -5.063  -1.691 -34.307  1.00  0.00     0.020 A 
HETATM   30  C   UNL     1      -6.349  -2.177 -34.097  1.00  0.00     0.013 A 
HETATM   31 BR   UNL     1      -6.786  -3.930 -34.664  1.00  0.00    -0.051 Br
ENDBRANCH   3  21
TORSDOF 5
ENDMDL
MODEL 5
REMARK VINA RESULT:      -8.2      1.216      1.595
REMARK  5 active torsions:
REMARK  status: ('A' for Active; 'I' for Inactive)
REMARK    1  A    between atoms: C_2  and  C_3 
REMARK    2  A    between atoms: C_3  and  C_4 
REMARK    3  A    between atoms: C_8  and  N_9 
REMARK       I    between atoms: N_9  and  C_10 
REMARK    4  A    between atoms: C_10  and  C_11 
REMARK    5  A    between atoms: N_13  and  C_14 
ROOT
HETATM    1  C   UNL     1      -7.308   3.380 -31.442  1.00  0.00     0.106 C 
HETATM    2  C   UNL     1      -6.289   2.800 -32.412  1.00  0.00     0.148 C 
HETATM    3  N   UNL     1      -5.804   1.605 -31.777  1.00  0.00    -0.299 N 
HETATM    4  C   UNL     1      -6.027   1.651 -30.397  1.00  0.00     0.226 C 
HETATM    5  O   UNL     1      -5.678   0.886 -29.511  1.00  0.00    -0.273 OA
HETATM    6  C   UNL     1      -6.773   2.928 -30.092  1.00  0.00     0.119 C 
ENDROOT
BRANCH   1   7
HETATM    7  C   UNL     1      -7.391   4.890 -31.562  1.00  0.00     0.242 C 
HETATM    8  N   UNL     1      -8.418   5.501 -32.222  1.00  0.00    -0.156 N 
HETATM    9  H   UNL     1      -8.396   6.510 -32.167  1.00  0.00     0.187 HD
HETATM   10  O   UNL     1      -6.545   5.626 -31.043  1.00  0.00    -0.272 OA
BRANCH   8  11
HETATM   11  C   UNL     1      -9.360   4.890 -33.003  1.00  0.00     0.725 A 
HETATM   12  N   UNL     1      -9.279   4.880 -34.370  1.00  0.00    -0.106 N 
HETATM   13  N   UNL     1     -10.315   4.232 -34.923  1.00  0.00    -0.144 NA
HETATM   14  H   UNL     1      -8.578   5.294 -34.971  1.00  0.00     0.208 HD
HETATM   15  C   UNL     1     -10.994   3.843 -33.838  1.00  0.00     0.166 A 
HETATM   16  N   UNL     1     -10.433   4.228 -32.646  1.00  0.00    -0.046 NA
BRANCH  15  17
HETATM   17  C   UNL     1     -12.264   3.070 -33.904  1.00  0.00     0.087 C 
BRANCH  17  18
HETATM   18  C   UNL     1     -12.084   1.646 -34.462  1.00  0.00    -0.016 C 
HETATM   19  C   UNL     1     -13.409   0.881 -34.519  1.00  0.00     0.010 C 
HETATM   20  C   UNL     1     -11.082   0.872 -33.603  1.00  0.00     0.010 C 
ENDBRANCH  17  18
ENDBRANCH  15  17
ENDBRANCH   8  11
ENDBRANCH   1   7
BRANCH   3  21
HETATM   21  C   UNL     1      -5.108   0.572 -32.404  1.00  0.00     0.165 A 
HETATM   22  N   UNL     1      -3.773   0.505 -32.404  1.00  0.00    -0.155 NA
HETATM   23  N   UNL     1      -3.476  -0.615 -33.064  1.00  0.00    -0.275 N 
HETATM   24  H   UNL     1      -2.497  -0.852 -33.180  1.00  0.00     0.189 HD
HETATM   25  C   UNL     1      -4.562  -1.310 -33.508  1.00  0.00     0.065 A 
HETATM   26  C   UNL     1      -5.664  -0.559 -33.101  1.00  0.00     0.040 A 
HETATM   27  C   UNL     1      -4.658  -2.510 -34.223  1.00  0.00     0.051 A 
HETATM   28  C   UNL     1      -6.947  -1.033 -33.454  1.00  0.00     0.019 A 
HETATM   29  C   UNL     1      -7.072  -2.232 -34.172  1.00  0.00     0.020 A 
HETATM   30  C   UNL     1      -5.942  -2.953 -34.543  1.00  0.00     0.013 A 
HETATM   31 BR   UNL     1      -6.145  -4.569 -35.510  1.00  0.00    -0.051 Br
ENDBRANCH   3  21
TORSDOF 5
ENDMDL
MODEL 6
REMARK VINA RESULT:      -7.9      5.804      9.202
REMARK  5 active torsions:
REMARK  status: ('A' for Active; 'I' for Inactive)
REMARK    1  A    between atoms: C_2  and  C_3 
REMARK    2  A    between atoms: C_3  and  C_4 
REMARK    3  A    between atoms: C_8  and  N_9 
REMARK       I    between atoms: N_9  and  C_10 
REMARK    4  A    between atoms: C_10  and  C_11 
REMARK    5  A    between atoms: N_13  and  C_14 
ROOT
HETATM    1  C   UNL     1      -3.335   5.005 -32.506  1.00  0.00     0.106 C 
HETATM    2  C   UNL     1      -4.820   4.675 -32.507  1.00  0.00     0.148 C 
HETATM    3  N   UNL     1      -4.897   3.286 -32.145  1.00  0.00    -0.299 N 
HETATM    4  C   UNL     1      -3.681   2.641 -32.394  1.00  0.00     0.226 C 
HETATM    5  O   UNL     1      -3.379   1.460 -32.313  1.00  0.00    -0.273 OA
HETATM    6  C   UNL     1      -2.701   3.677 -32.891  1.00  0.00     0.119 C 
ENDROOT
BRANCH   1   7
HETATM    7  C   UNL     1      -3.012   6.114 -33.491  1.00  0.00     0.242 C 
HETATM    8  N   UNL     1      -2.125   7.105 -33.187  1.00  0.00    -0.156 N 
HETATM    9  H   UNL     1      -1.943   7.740 -33.953  1.00  0.00     0.187 HD
HETATM   10  O   UNL     1      -3.522   6.146 -34.616  1.00  0.00    -0.272 OA
BRANCH   8  11
HETATM   11  C   UNL     1      -1.577   7.359 -31.959  1.00  0.00     0.725 A 
HETATM   12  N   UNL     1      -2.147   8.236 -31.074  1.00  0.00    -0.106 N 
HETATM   13  N   UNL     1      -1.433   8.330 -29.943  1.00  0.00    -0.144 NA
HETATM   14  H   UNL     1      -2.984   8.794 -31.179  1.00  0.00     0.208 HD
HETATM   15  C   UNL     1      -0.440   7.466 -30.183  1.00  0.00     0.166 A 
HETATM   16  N   UNL     1      -0.502   6.853 -31.409  1.00  0.00    -0.046 NA
BRANCH  15  17
HETATM   17  C   UNL     1       0.657   7.196 -29.215  1.00  0.00     0.087 C 
BRANCH  17  18
HETATM   18  C   UNL     1       0.488   7.940 -27.877  1.00  0.00    -0.016 C 
HETATM   19  C   UNL     1       1.685   8.843 -27.567  1.00  0.00     0.010 C 
HETATM   20  C   UNL     1       0.299   6.933 -26.741  1.00  0.00     0.010 C 
ENDBRANCH  17  18
ENDBRANCH  15  17
ENDBRANCH   8  11
ENDBRANCH   1   7
BRANCH   3  21
HETATM   21  C   UNL     1      -6.039   2.619 -31.703  1.00  0.00     0.165 A 
HETATM   22  N   UNL     1      -6.154   2.144 -30.460  1.00  0.00    -0.155 NA
HETATM   23  N   UNL     1      -7.372   1.604 -30.400  1.00  0.00    -0.275 N 
HETATM   24  H   UNL     1      -7.660   1.179 -29.526  1.00  0.00     0.189 HD
HETATM   25  C   UNL     1      -8.085   1.699 -31.558  1.00  0.00     0.065 A 
HETATM   26  C   UNL     1      -7.240   2.356 -32.451  1.00  0.00     0.040 A 
HETATM   27  C   UNL     1      -9.376   1.264 -31.882  1.00  0.00     0.051 A 
HETATM   28  C   UNL     1      -7.715   2.572 -33.764  1.00  0.00     0.019 A 
HETATM   29  C   UNL     1      -9.004   2.145 -34.117  1.00  0.00     0.020 A 
HETATM   30  C   UNL     1      -9.815   1.505 -33.186  1.00  0.00     0.013 A 
HETATM   31 BR   UNL     1     -11.550   0.942 -33.693  1.00  0.00    -0.051 Br
ENDBRANCH   3  21
TORSDOF 5
ENDMDL
MODEL 7
REMARK VINA RESULT:      -7.9      4.964      7.856
REMARK  5 active torsions:
REMARK  status: ('A' for Active; 'I' for Inactive)
REMARK    1  A    between atoms: C_2  and  C_3 
REMARK    2  A    between atoms: C_3  and  C_4 
REMARK    3  A    between atoms: C_8  and  N_9 
REMARK       I    between atoms: N_9  and  C_10 
REMARK    4  A    between atoms: C_10  and  C_11 
REMARK    5  A    between atoms: N_13  and  C_14 
ROOT
HETATM    1  C   UNL     1      -4.963   3.767 -30.007  1.00  0.00     0.106 C 
HETATM    2  C   UNL     1      -5.240   2.331 -30.427  1.00  0.00     0.148 C 
HETATM    3  N   UNL     1      -4.133   1.966 -31.269  1.00  0.00    -0.299 N 
HETATM    4  C   UNL     1      -3.505   3.105 -31.784  1.00  0.00     0.226 C 
HETATM    5  O   UNL     1      -2.605   3.213 -32.603  1.00  0.00    -0.273 OA
HETATM    6  C   UNL     1      -4.189   4.316 -31.196  1.00  0.00     0.119 C 
ENDROOT
BRANCH   1   7
HETATM    7  C   UNL     1      -6.250   4.527 -29.745  1.00  0.00     0.242 C 
HETATM    8  N   UNL     1      -6.276   5.643 -28.962  1.00  0.00    -0.156 N 
HETATM    9  H   UNL     1      -7.178   6.098 -28.927  1.00  0.00     0.187 HD
HETATM   10  O   UNL     1      -7.320   4.177 -30.254  1.00  0.00    -0.272 OA
BRANCH   8  11
HETATM   11  C   UNL     1      -5.258   6.109 -28.175  1.00  0.00     0.725 A 
HETATM   12  N   UNL     1      -4.978   5.565 -26.949  1.00  0.00    -0.106 N 
HETATM   13  N   UNL     1      -3.947   6.186 -26.356  1.00  0.00    -0.144 NA
HETATM   14  H   UNL     1      -5.443   4.807 -26.466  1.00  0.00     0.208 HD
HETATM   15  C   UNL     1      -3.617   7.094 -27.281  1.00  0.00     0.166 A 
HETATM   16  N   UNL     1      -4.400   7.071 -28.408  1.00  0.00    -0.046 NA
BRANCH  15  17
HETATM   17  C   UNL     1      -2.506   8.068 -27.107  1.00  0.00     0.087 C 
BRANCH  17  18
HETATM   18  C   UNL     1      -1.929   8.580 -28.440  1.00  0.00    -0.016 C 
HETATM   19  C   UNL     1      -0.663   7.821 -28.846  1.00  0.00     0.010 C 
HETATM   20  C   UNL     1      -1.617  10.075 -28.333  1.00  0.00     0.010 C 
ENDBRANCH  17  18
ENDBRANCH  15  17
ENDBRANCH   8  11
ENDBRANCH   1   7
BRANCH   3  21
HETATM   21  C   UNL     1      -3.774   0.668 -31.630  1.00  0.00     0.165 A 
HETATM   22  N   UNL     1      -2.697   0.057 -31.126  1.00  0.00    -0.155 NA
HETATM   23  N   UNL     1      -2.693  -1.159 -31.672  1.00  0.00    -0.275 N 
HETATM   24  H   UNL     1      -1.943  -1.791 -31.418  1.00  0.00     0.189 HD
HETATM   25  C   UNL     1      -3.730  -1.394 -32.526  1.00  0.00     0.065 A 
HETATM   26  C   UNL     1      -4.467  -0.211 -32.535  1.00  0.00     0.040 A 
HETATM   27  C   UNL     1      -4.066  -2.528 -33.276  1.00  0.00     0.051 A 
HETATM   28  C   UNL     1      -5.606  -0.154 -33.370  1.00  0.00     0.019 A 
HETATM   29  C   UNL     1      -5.965  -1.275 -34.134  1.00  0.00     0.020 A 
HETATM   30  C   UNL     1      -5.204  -2.439 -34.080  1.00  0.00     0.013 A 
HETATM   31 BR   UNL     1      -5.716  -3.934 -35.122  1.00  0.00    -0.051 Br
ENDBRANCH   3  21
TORSDOF 5
ENDMDL
MODEL 8
REMARK VINA RESULT:      -7.8      3.726      6.502
REMARK  5 active torsions:
REMARK  status: ('A' for Active; 'I' for Inactive)
REMARK    1  A    between atoms: C_2  and  C_3 
REMARK    2  A    between atoms: C_3  and  C_4 
REMARK    3  A    between atoms: C_8  and  N_9 
REMARK       I    between atoms: N_9  and  C_10 
REMARK    4  A    between atoms: C_10  and  C_11 
REMARK    5  A    between atoms: N_13  and  C_14 
ROOT
HETATM    1  C   UNL     1      -7.029   3.880 -32.454  1.00  0.00     0.106 C 
HETATM    2  C   UNL     1      -6.139   3.018 -33.339  1.00  0.00     0.148 C 
HETATM    3  N   UNL     1      -5.552   2.051 -32.451  1.00  0.00    -0.299 N 
HETATM    4  C   UNL     1      -5.589   2.505 -31.128  1.00  0.00     0.226 C 
HETATM    5  O   UNL     1      -5.110   2.025 -30.112  1.00  0.00    -0.273 OA
HETATM    6  C   UNL     1      -6.310   3.832 -31.115  1.00  0.00     0.119 C 
ENDROOT
BRANCH   1   7
HETATM    7  C   UNL     1      -7.154   5.290 -33.000  1.00  0.00     0.242 C 
HETATM    8  N   UNL     1      -6.079   5.961 -33.505  1.00  0.00    -0.156 N 
HETATM    9  H   UNL     1      -6.309   6.862 -33.903  1.00  0.00     0.187 HD
HETATM   10  O   UNL     1      -8.243   5.875 -33.031  1.00  0.00    -0.272 OA
BRANCH   8  11
HETATM   11  C   UNL     1      -4.768   5.579 -33.420  1.00  0.00     0.725 A 
HETATM   12  N   UNL     1      -4.068   5.129 -34.508  1.00  0.00    -0.106 N 
HETATM   13  N   UNL     1      -2.807   4.804 -34.185  1.00  0.00    -0.144 NA
HETATM   14  H   UNL     1      -4.381   5.009 -35.462  1.00  0.00     0.208 HD
HETATM   15  C   UNL     1      -2.784   5.098 -32.880  1.00  0.00     0.166 A 
HETATM   16  N   UNL     1      -3.969   5.577 -32.382  1.00  0.00    -0.046 NA
BRANCH  15  17
HETATM   17  C   UNL     1      -1.582   4.908 -32.024  1.00  0.00     0.087 C 
BRANCH  17  18
HETATM   18  C   UNL     1      -0.940   6.233 -31.570  1.00  0.00    -0.016 C 
HETATM   19  C   UNL     1      -0.795   7.226 -32.726  1.00  0.00     0.010 C 
HETATM   20  C   UNL     1       0.433   5.962 -30.951  1.00  0.00     0.010 C 
ENDBRANCH  17  18
ENDBRANCH  15  17
ENDBRANCH   8  11
ENDBRANCH   1   7
BRANCH   3  21
HETATM   21  C   UNL     1      -4.928   0.864 -32.834  1.00  0.00     0.165 A 
HETATM   22  N   UNL     1      -3.622   0.651 -32.651  1.00  0.00    -0.155 NA
HETATM   23  N   UNL     1      -3.398  -0.582 -33.106  1.00  0.00    -0.275 N 
HETATM   24  H   UNL     1      -2.451  -0.941 -33.059  1.00  0.00     0.189 HD
HETATM   25  C   UNL     1      -4.507  -1.212 -33.589  1.00  0.00     0.065 A 
HETATM   26  C   UNL     1      -5.542  -0.290 -33.437  1.00  0.00     0.040 A 
HETATM   27  C   UNL     1      -4.675  -2.488 -34.139  1.00  0.00     0.051 A 
HETATM   28  C   UNL     1      -6.827  -0.667 -33.886  1.00  0.00     0.019 A 
HETATM   29  C   UNL     1      -7.023  -1.941 -34.443  1.00  0.00     0.020 A 
HETATM   30  C   UNL     1      -5.961  -2.831 -34.561  1.00  0.00     0.013 A 
HETATM   31 BR   UNL     1      -6.258  -4.541 -35.316  1.00  0.00    -0.051 Br
ENDBRANCH   3  21
TORSDOF 5
ENDMDL
MODEL 9
REMARK VINA RESULT:      -7.8      0.962      1.010
REMARK  5 active torsions:
REMARK  status: ('A' for Active; 'I' for Inactive)
REMARK    1  A    between atoms: C_2  and  C_3 
REMARK    2  A    between atoms: C_3  and  C_4 
REMARK    3  A    between atoms: C_8  and  N_9 
REMARK       I    between atoms: N_9  and  C_10 
REMARK    4  A    between atoms: C_10  and  C_11 
REMARK    5  A    between atoms: N_13  and  C_14 
ROOT
HETATM    1  C   UNL     1      -7.834   4.146 -32.506  1.00  0.00     0.106 C 
HETATM    2  C   UNL     1      -6.876   3.297 -33.330  1.00  0.00     0.148 C 
HETATM    3  N   UNL     1      -6.266   2.399 -32.388  1.00  0.00    -0.299 N 
HETATM    4  C   UNL     1      -6.364   2.904 -31.086  1.00  0.00     0.226 C 
HETATM    5  O   UNL     1      -5.890   2.492 -30.038  1.00  0.00    -0.273 OA
HETATM    6  C   UNL     1      -7.153   4.190 -31.148  1.00  0.00     0.119 C 
ENDROOT
BRANCH   1   7
HETATM    7  C   UNL     1      -8.017   5.524 -33.115  1.00  0.00     0.242 C 
HETATM    8  N   UNL     1      -9.159   5.869 -33.777  1.00  0.00    -0.156 N 
HETATM    9  H   UNL     1      -9.186   6.836 -34.070  1.00  0.00     0.187 HD
HETATM   10  O   UNL     1      -7.147   6.395 -33.010  1.00  0.00    -0.272 OA
BRANCH   8  11
HETATM   11  C   UNL     1     -10.168   5.025 -34.153  1.00  0.00     0.725 A 
HETATM   12  N   UNL     1     -10.268   4.529 -35.426  1.00  0.00    -0.106 N 
HETATM   13  N   UNL     1     -11.338   3.732 -35.564  1.00  0.00    -0.144 NA
HETATM   14  H   UNL     1      -9.672   4.700 -36.225  1.00  0.00     0.208 HD
HETATM   15  C   UNL     1     -11.849   3.757 -34.328  1.00  0.00     0.166 A 
HETATM   16  N   UNL     1     -11.154   4.538 -33.439  1.00  0.00    -0.046 NA
BRANCH  15  17
HETATM   17  C   UNL     1     -13.080   3.018 -33.939  1.00  0.00     0.087 C 
BRANCH  17  18
HETATM   18  C   UNL     1     -13.117   1.572 -34.470  1.00  0.00    -0.016 C 
HETATM   19  C   UNL     1     -14.518   0.962 -34.375  1.00  0.00     0.010 C 
HETATM   20  C   UNL     1     -12.127   0.705 -33.690  1.00  0.00     0.010 C 
ENDBRANCH  17  18
ENDBRANCH  15  17
ENDBRANCH   8  11
ENDBRANCH   1   7
BRANCH   3  21
HETATM   21  C   UNL     1      -5.571   1.232 -32.703  1.00  0.00     0.165 A 
HETATM   22  N   UNL     1      -4.268   1.083 -32.444  1.00  0.00    -0.155 NA
HETATM   23  N   UNL     1      -3.966  -0.150 -32.852  1.00  0.00    -0.275 N 
HETATM   24  H   UNL     1      -3.008  -0.464 -32.744  1.00  0.00     0.189 HD
HETATM   25  C   UNL     1      -5.018  -0.841 -33.377  1.00  0.00     0.065 A 
HETATM   26  C   UNL     1      -6.099   0.037 -33.306  1.00  0.00     0.040 A 
HETATM   27  C   UNL     1      -5.099  -2.137 -33.900  1.00  0.00     0.051 A 
HETATM   28  C   UNL     1      -7.340  -0.409 -33.813  1.00  0.00     0.019 A 
HETATM   29  C   UNL     1      -7.449  -1.703 -34.345  1.00  0.00     0.020 A 
HETATM   30  C   UNL     1      -6.344  -2.547 -34.381  1.00  0.00     0.013 A 
HETATM   31 BR   UNL     1      -6.525  -4.288 -35.103  1.00  0.00    -0.051 Br
ENDBRANCH   3  21
TORSDOF 5
ENDMDL
MODEL 10
REMARK VINA RESULT:      -7.6      2.452      7.416
REMARK  5 active torsions:
REMARK  status: ('A' for Active; 'I' for Inactive)
REMARK    1  A    between atoms: C_2  and  C_3 
REMARK    2  A    between atoms: C_3  and  C_4 
REMARK    3  A    between atoms: C_8  and  N_9 
REMARK       I    between atoms: N_9  and  C_10 
REMARK    4  A    between atoms: C_10  and  C_11 
REMARK    5  A    between atoms: N_13  and  C_14 
ROOT
HETATM    1  C   UNL     1      -6.520   2.074 -32.648  1.00  0.00     0.106 C 
HETATM    2  C   UNL     1      -8.041   2.047 -32.692  1.00  0.00     0.148 C 
HETATM    3  N   UNL     1      -8.411   3.134 -33.557  1.00  0.00    -0.299 N 
HETATM    4  C   UNL     1      -7.377   4.074 -33.642  1.00  0.00     0.226 C 
HETATM    5  O   UNL     1      -7.342   5.166 -34.187  1.00  0.00    -0.273 OA
HETATM    6  C   UNL     1      -6.210   3.550 -32.840  1.00  0.00     0.119 C 
ENDROOT
BRANCH   1   7
HETATM    7  C   UNL     1      -5.993   1.532 -31.332  1.00  0.00     0.242 C 
HETATM    8  N   UNL     1      -5.133   0.474 -31.287  1.00  0.00    -0.156 N 
HETATM    9  H   UNL     1      -4.800   0.258 -30.357  1.00  0.00     0.187 HD
HETATM   10  O   UNL     1      -6.305   2.045 -30.252  1.00  0.00    -0.272 OA
BRANCH   8  11
HETATM   11  C   UNL     1      -4.790  -0.342 -32.330  1.00  0.00     0.725 A 
HETATM   12  N   UNL     1      -3.501  -0.444 -32.782  1.00  0.00    -0.106 N 
HETATM   13  N   UNL     1      -3.405  -1.294 -33.816  1.00  0.00    -0.144 NA
HETATM   14  H   UNL     1      -2.670   0.031 -32.454  1.00  0.00     0.208 HD
HETATM   15  C   UNL     1      -4.672  -1.703 -33.941  1.00  0.00     0.166 A 
HETATM   16  N   UNL     1      -5.545  -1.140 -33.044  1.00  0.00    -0.046 NA
BRANCH  15  17
HETATM   17  C   UNL     1      -5.117  -2.675 -34.976  1.00  0.00     0.087 C 
BRANCH  17  18
HETATM   18  C   UNL     1      -5.641  -3.998 -34.387  1.00  0.00    -0.016 C 
HETATM   19  C   UNL     1      -4.516  -5.011 -34.160  1.00  0.00     0.010 C 
HETATM   20  C   UNL     1      -6.695  -4.602 -35.317  1.00  0.00     0.010 C 
ENDBRANCH  17  18
ENDBRANCH  15  17
ENDBRANCH   8  11
ENDBRANCH   1   7
BRANCH   3  21
HETATM   21  C   UNL     1      -9.656   3.313 -34.157  1.00  0.00     0.165 A 
HETATM   22  N   UNL     1      -9.917   4.339 -34.974  1.00  0.00    -0.155 NA
HETATM   23  N   UNL     1     -11.178   4.165 -35.369  1.00  0.00    -0.275 N 
HETATM   24  H   UNL     1     -11.575   4.849 -36.002  1.00  0.00     0.189 HD
HETATM   25  C   UNL     1     -11.779   3.056 -34.851  1.00  0.00     0.065 A 
HETATM   26  C   UNL     1     -10.814   2.466 -34.037  1.00  0.00     0.040 A 
HETATM   27  C   UNL     1     -13.070   2.541 -35.028  1.00  0.00     0.051 A 
HETATM   28  C   UNL     1     -11.173   1.293 -33.338  1.00  0.00     0.019 A 
HETATM   29  C   UNL     1     -12.461   0.756 -33.495  1.00  0.00     0.020 A 
HETATM   30  C   UNL     1     -13.386   1.374 -34.330  1.00  0.00     0.013 A 
HETATM   31 BR   UNL     1     -15.114   0.625 -34.522  1.00  0.00    -0.051 Br
ENDBRANCH   3  21
TORSDOF 5
ENDMDL
