MODEL 1
REMARK VINA RESULT:      -9.0      0.000      0.000
REMARK  7 active torsions:
REMARK  status: ('A' for Active; 'I' for Inactive)
REMARK    1  A    between atoms: C_7  and  C_8 
REMARK    2  A    between atoms: C_8  and  C_9 
REMARK    3  A    between atoms: C_9  and  C_10 
REMARK    4  A    between atoms: C_10  and  O_11 
REMARK    5  A    between atoms: C_13  and  C_14 
REMARK    6  A    between atoms: C_21  and  C_22 
REMARK       I    between atoms: C_22  and  N_23 
REMARK    7  A    between atoms: N_23  and  C_24 
ROOT
HETATM    1  C   UNL     1      -8.793   4.266 -30.349  1.00  0.00     0.070 C 
HETATM    2  C   UNL     1      -7.956   4.049 -31.586  1.00  0.00     0.037 A 
HETATM    3  N   UNL     1      -6.801   4.818 -31.672  1.00  0.00    -0.192 N 
HETATM    4  C   UNL     1      -5.974   4.798 -32.734  1.00  0.00     0.726 A 
HETATM    5  N   UNL     1      -6.239   3.946 -33.769  1.00  0.00    -0.083 N 
HETATM    6  N   UNL     1      -5.396   4.154 -34.803  1.00  0.00    -0.140 NA
HETATM    7  C   UNL     1      -4.568   5.065 -34.269  1.00  0.00     0.166 A 
HETATM    8  N   UNL     1      -4.905   5.499 -33.009  1.00  0.00    -0.046 NA
HETATM    9  C   UNL     1      -7.372   3.014 -33.802  1.00  0.00     0.202 A 
HETATM   10  C   UNL     1      -8.273   3.189 -32.586  1.00  0.00     0.062 A 
HETATM   11  H   UNL     1      -6.597   5.455 -30.907  1.00  0.00     0.184 HD
ENDROOT
BRANCH  10  12
HETATM   12  C   UNL     1      -9.470   2.309 -32.469  1.00  0.00     0.256 C 
HETATM   13  N   UNL     1     -10.521   2.694 -33.275  1.00  0.00    -0.323 N 
HETATM   14  H   UNL     1     -10.397   3.493 -33.879  1.00  0.00     0.169 HD
HETATM   15  O   UNL     1      -9.437   1.352 -31.706  1.00  0.00    -0.267 OA
BRANCH  13  16
HETATM   16  C   UNL     1     -11.798   2.093 -33.345  1.00  0.00     0.035 A 
HETATM   17  C   UNL     1     -12.023   0.782 -33.768  1.00  0.00     0.029 A 
HETATM   18  C   UNL     1     -13.319   0.255 -33.786  1.00  0.00     0.002 A 
HETATM   19  C   UNL     1     -14.401   1.037 -33.391  1.00  0.00     0.000 A 
HETATM   20  C   UNL     1     -14.189   2.346 -32.972  1.00  0.00     0.002 A 
HETATM   21  C   UNL     1     -12.893   2.870 -32.943  1.00  0.00     0.029 A 
ENDBRANCH  13  16
ENDBRANCH  10  12
BRANCH   9  22
HETATM   22  C   UNL     1      -6.857   1.592 -34.012  1.00  0.00    -0.028 A 
HETATM   23  C   UNL     1      -7.379   0.753 -35.011  1.00  0.00     0.011 A 
HETATM   24  C   UNL     1      -6.912  -0.556 -35.158  1.00  0.00     0.019 A 
HETATM   25  C   UNL     1      -5.930  -1.043 -34.298  1.00  0.00     0.011 A 
HETATM   26 BR   UNL     1      -5.308  -2.818 -34.488  1.00  0.00    -0.051 Br
HETATM   27  C   UNL     1      -5.410  -0.233 -33.293  1.00  0.00     0.019 A 
HETATM   28  C   UNL     1      -5.870   1.077 -33.151  1.00  0.00     0.011 A 
ENDBRANCH   9  22
BRANCH   7  29
HETATM   29  C   UNL     1      -3.366   5.560 -34.984  1.00  0.00     0.085 C 
BRANCH  29  30
HETATM   30  C   UNL     1      -2.063   5.248 -34.251  1.00  0.00     0.034 C 
BRANCH  30  31
HETATM   31  C   UNL     1      -1.464   6.461 -33.548  1.00  0.00     0.164 C 
BRANCH  31  32
HETATM   32  O   UNL     1      -1.693   7.627 -34.333  1.00  0.00    -0.401 OA
HETATM   33  H   UNL     1      -1.942   7.335 -35.226  1.00  0.00     0.209 HD
ENDBRANCH  31  32
ENDBRANCH  30  31
ENDBRANCH  29  30
ENDBRANCH   7  29
TORSDOF 7
ENDMDL
MODEL 2
REMARK VINA RESULT:      -8.9      0.233      1.265
REMARK  7 active torsions:
REMARK  status: ('A' for Active; 'I' for Inactive)
REMARK    1  A    between atoms: C_7  and  C_8 
REMARK    2  A    between atoms: C_8  and  C_9 
REMARK    3  A    between atoms: C_9  and  C_10 
REMARK    4  A    between atoms: C_10  and  O_11 
REMARK    5  A    between atoms: C_13  and  C_14 
REMARK    6  A    between atoms: C_21  and  C_22 
REMARK       I    between atoms: C_22  and  N_23 
REMARK    7  A    between atoms: N_23  and  C_24 
ROOT
HETATM    1  C   UNL     1      -8.592   4.558 -30.268  1.00  0.00     0.070 C 
HETATM    2  C   UNL     1      -7.798   4.271 -31.519  1.00  0.00     0.037 A 
HETATM    3  N   UNL     1      -6.616   4.989 -31.658  1.00  0.00    -0.192 N 
HETATM    4  C   UNL     1      -5.819   4.904 -32.740  1.00  0.00     0.726 A 
HETATM    5  N   UNL     1      -6.145   4.032 -33.740  1.00  0.00    -0.083 N 
HETATM    6  N   UNL     1      -5.323   4.175 -34.802  1.00  0.00    -0.140 NA
HETATM    7  C   UNL     1      -4.445   5.067 -34.318  1.00  0.00     0.166 A 
HETATM    8  N   UNL     1      -4.731   5.552 -33.064  1.00  0.00    -0.046 NA
HETATM    9  C   UNL     1      -7.314   3.146 -33.716  1.00  0.00     0.202 A 
HETATM   10  C   UNL     1      -8.175   3.394 -32.483  1.00  0.00     0.062 A 
HETATM   11  H   UNL     1      -6.366   5.640 -30.919  1.00  0.00     0.184 HD
ENDROOT
BRANCH  10  12
HETATM   12  C   UNL     1      -9.402   2.567 -32.308  1.00  0.00     0.256 C 
HETATM   13  N   UNL     1     -10.423   2.901 -33.173  1.00  0.00    -0.323 N 
HETATM   14  H   UNL     1     -10.260   3.632 -33.852  1.00  0.00     0.169 HD
HETATM   15  O   UNL     1      -9.417   1.691 -31.453  1.00  0.00    -0.267 OA
BRANCH  13  16
HETATM   16  C   UNL     1     -11.717   2.336 -33.215  1.00  0.00     0.035 A 
HETATM   17  C   UNL     1     -12.869   2.985 -32.765  1.00  0.00     0.029 A 
HETATM   18  C   UNL     1     -14.118   2.363 -32.864  1.00  0.00     0.002 A 
HETATM   19  C   UNL     1     -14.226   1.084 -33.403  1.00  0.00     0.000 A 
HETATM   20  C   UNL     1     -13.084   0.425 -33.850  1.00  0.00     0.002 A 
HETATM   21  C   UNL     1     -11.837   1.051 -33.762  1.00  0.00     0.029 A 
ENDBRANCH  13  16
ENDBRANCH  10  12
BRANCH   9  22
HETATM   22  C   UNL     1      -6.862   1.699 -33.894  1.00  0.00    -0.028 A 
HETATM   23  C   UNL     1      -5.858   1.130 -33.092  1.00  0.00     0.011 A 
HETATM   24  C   UNL     1      -5.440  -0.187 -33.301  1.00  0.00     0.019 A 
HETATM   25  C   UNL     1      -6.011  -0.942 -34.322  1.00  0.00     0.011 A 
HETATM   26 BR   UNL     1      -5.437  -2.720 -34.613  1.00  0.00    -0.051 Br
HETATM   27  C   UNL     1      -6.998  -0.393 -35.138  1.00  0.00     0.019 A 
HETATM   28  C   UNL     1      -7.420   0.920 -34.925  1.00  0.00     0.011 A 
ENDBRANCH   9  22
BRANCH   7  29
HETATM   29  C   UNL     1      -3.244   5.491 -35.078  1.00  0.00     0.085 C 
BRANCH  29  30
HETATM   30  C   UNL     1      -1.936   5.164 -34.361  1.00  0.00     0.034 C 
BRANCH  30  31
HETATM   31  C   UNL     1      -1.194   6.404 -33.871  1.00  0.00     0.164 C 
BRANCH  31  32
HETATM   32  O   UNL     1      -1.819   7.570 -34.396  1.00  0.00    -0.401 OA
HETATM   33  H   UNL     1      -2.417   7.288 -35.108  1.00  0.00     0.209 HD
ENDBRANCH  31  32
ENDBRANCH  30  31
ENDBRANCH  29  30
ENDBRANCH   7  29
TORSDOF 7
ENDMDL
MODEL 3
REMARK VINA RESULT:      -8.7      2.071      7.747
REMARK  7 active torsions:
REMARK  status: ('A' for Active; 'I' for Inactive)
REMARK    1  A    between atoms: C_7  and  C_8 
REMARK    2  A    between atoms: C_8  and  C_9 
REMARK    3  A    between atoms: C_9  and  C_10 
REMARK    4  A    between atoms: C_10  and  O_11 
REMARK    5  A    between atoms: C_13  and  C_14 
REMARK    6  A    between atoms: C_21  and  C_22 
REMARK       I    between atoms: C_22  and  N_23 
REMARK    7  A    between atoms: N_23  and  C_24 
ROOT
HETATM    1  C   UNL     1      -8.990   5.605 -34.489  1.00  0.00     0.070 C 
HETATM    2  C   UNL     1      -9.426   4.219 -34.085  1.00  0.00     0.037 A 
HETATM    3  N   UNL     1     -10.669   3.816 -34.562  1.00  0.00    -0.192 N 
HETATM    4  C   UNL     1     -11.240   2.639 -34.246  1.00  0.00     0.726 A 
HETATM    5  N   UNL     1     -10.555   1.756 -33.460  1.00  0.00    -0.083 N 
HETATM    6  N   UNL     1     -11.323   0.696 -33.130  1.00  0.00    -0.140 NA
HETATM    7  C   UNL     1     -12.420   0.948 -33.859  1.00  0.00     0.166 A 
HETATM    8  N   UNL     1     -12.413   2.143 -34.539  1.00  0.00    -0.046 NA
HETATM    9  C   UNL     1      -9.204   1.991 -32.937  1.00  0.00     0.202 A 
HETATM   10  C   UNL     1      -8.703   3.385 -33.295  1.00  0.00     0.062 A 
HETATM   11  H   UNL     1     -11.186   4.468 -35.147  1.00  0.00     0.184 HD
ENDROOT
BRANCH  10  12
HETATM   12  C   UNL     1      -7.340   3.778 -32.839  1.00  0.00     0.256 C 
HETATM   13  N   UNL     1      -6.395   3.767 -33.843  1.00  0.00    -0.323 N 
HETATM   14  H   UNL     1      -6.691   3.530 -34.780  1.00  0.00     0.169 HD
HETATM   15  O   UNL     1      -7.164   4.072 -31.663  1.00  0.00    -0.267 OA
BRANCH  13  16
HETATM   16  C   UNL     1      -5.015   4.040 -33.712  1.00  0.00     0.035 A 
HETATM   17  C   UNL     1      -4.171   3.387 -32.811  1.00  0.00     0.029 A 
HETATM   18  C   UNL     1      -2.809   3.701 -32.760  1.00  0.00     0.002 A 
HETATM   19  C   UNL     1      -2.281   4.677 -33.601  1.00  0.00     0.000 A 
HETATM   20  C   UNL     1      -3.113   5.337 -34.500  1.00  0.00     0.002 A 
HETATM   21  C   UNL     1      -4.473   5.016 -34.559  1.00  0.00     0.029 A 
ENDBRANCH  13  16
ENDBRANCH  10  12
BRANCH   9  22
HETATM   22  C   UNL     1      -8.283   0.854 -33.372  1.00  0.00    -0.028 A 
HETATM   23  C   UNL     1      -7.490   0.147 -32.452  1.00  0.00     0.011 A 
HETATM   24  C   UNL     1      -6.631  -0.867 -32.884  1.00  0.00     0.019 A 
HETATM   25  C   UNL     1      -6.544  -1.173 -34.239  1.00  0.00     0.011 A 
HETATM   26 BR   UNL     1      -5.372  -2.535 -34.825  1.00  0.00    -0.051 Br
HETATM   27  C   UNL     1      -7.310  -0.474 -35.170  1.00  0.00     0.019 A 
HETATM   28  C   UNL     1      -8.174   0.533 -34.738  1.00  0.00     0.011 A 
ENDBRANCH   9  22
BRANCH   7  29
HETATM   29  C   UNL     1     -13.558  -0.001 -33.935  1.00  0.00     0.085 C 
BRANCH  29  30
HETATM   30  C   UNL     1     -14.880   0.677 -34.289  1.00  0.00     0.034 C 
BRANCH  30  31
HETATM   31  C   UNL     1     -15.446   1.520 -33.151  1.00  0.00     0.164 C 
BRANCH  31  32
HETATM   32  O   UNL     1     -16.777   1.915 -33.468  1.00  0.00    -0.401 OA
HETATM   33  H   UNL     1     -17.226   2.129 -32.633  1.00  0.00     0.209 HD
ENDBRANCH  31  32
ENDBRANCH  30  31
ENDBRANCH  29  30
ENDBRANCH   7  29
TORSDOF 7
ENDMDL
MODEL 4
REMARK VINA RESULT:      -7.7      3.468      6.203
REMARK  7 active torsions:
REMARK  status: ('A' for Active; 'I' for Inactive)
REMARK    1  A    between atoms: C_7  and  C_8 
REMARK    2  A    between atoms: C_8  and  C_9 
REMARK    3  A    between atoms: C_9  and  C_10 
REMARK    4  A    between atoms: C_10  and  O_11 
REMARK    5  A    between atoms: C_13  and  C_14 
REMARK    6  A    between atoms: C_21  and  C_22 
REMARK       I    between atoms: C_22  and  N_23 
REMARK    7  A    between atoms: N_23  and  C_24 
ROOT
HETATM    1  C   UNL     1      -5.238   2.955 -30.089  1.00  0.00     0.070 C 
HETATM    2  C   UNL     1      -5.683   2.118 -31.264  1.00  0.00     0.037 A 
HETATM    3  N   UNL     1      -5.086   0.867 -31.372  1.00  0.00    -0.192 N 
HETATM    4  C   UNL     1      -5.318   0.020 -32.391  1.00  0.00     0.726 A 
HETATM    5  N   UNL     1      -6.225   0.366 -33.352  1.00  0.00    -0.083 N 
HETATM    6  N   UNL     1      -6.232  -0.528 -34.365  1.00  0.00    -0.140 NA
HETATM    7  C   UNL     1      -5.390  -1.455 -33.882  1.00  0.00     0.166 A 
HETATM    8  N   UNL     1      -4.794  -1.142 -32.684  1.00  0.00    -0.046 NA
HETATM    9  C   UNL     1      -6.999   1.613 -33.347  1.00  0.00     0.202 A 
HETATM   10  C   UNL     1      -6.588   2.518 -32.192  1.00  0.00     0.062 A 
HETATM   11  H   UNL     1      -4.409   0.602 -30.661  1.00  0.00     0.184 HD
ENDROOT
BRANCH  10  12
HETATM   12  C   UNL     1      -7.287   3.826 -32.045  1.00  0.00     0.256 C 
HETATM   13  N   UNL     1      -8.306   3.808 -31.116  1.00  0.00    -0.323 N 
HETATM   14  H   UNL     1      -8.477   2.953 -30.606  1.00  0.00     0.169 HD
HETATM   15  O   UNL     1      -6.923   4.779 -32.723  1.00  0.00    -0.267 OA
BRANCH  13  16
HETATM   16  C   UNL     1      -9.177   4.872 -30.794  1.00  0.00     0.035 A 
HETATM   17  C   UNL     1      -8.883   5.870 -29.863  1.00  0.00     0.029 A 
HETATM   18  C   UNL     1      -9.792   6.904 -29.619  1.00  0.00     0.002 A 
HETATM   19  C   UNL     1     -11.009   6.944 -30.296  1.00  0.00     0.000 A 
HETATM   20  C   UNL     1     -11.315   5.953 -31.223  1.00  0.00     0.002 A 
HETATM   21  C   UNL     1     -10.401   4.926 -31.475  1.00  0.00     0.029 A 
ENDBRANCH  13  16
ENDBRANCH  10  12
BRANCH   9  22
HETATM   22  C   UNL     1      -8.489   1.289 -33.402  1.00  0.00    -0.028 A 
HETATM   23  C   UNL     1      -9.044   0.219 -32.678  1.00  0.00     0.011 A 
HETATM   24  C   UNL     1     -10.407  -0.075 -32.774  1.00  0.00     0.019 A 
HETATM   25  C   UNL     1     -11.224   0.688 -33.605  1.00  0.00     0.011 A 
HETATM   26 BR   UNL     1     -13.065   0.282 -33.745  1.00  0.00    -0.051 Br
HETATM   27  C   UNL     1     -10.692   1.743 -34.341  1.00  0.00     0.019 A 
HETATM   28  C   UNL     1      -9.333   2.041 -34.240  1.00  0.00     0.011 A 
ENDBRANCH   9  22
BRANCH   7  29
HETATM   29  C   UNL     1      -5.130  -2.734 -34.588  1.00  0.00     0.085 C 
BRANCH  29  30
HETATM   30  C   UNL     1      -6.405  -3.513 -34.904  1.00  0.00     0.034 C 
BRANCH  30  31
HETATM   31  C   UNL     1      -6.138  -4.950 -35.339  1.00  0.00     0.164 C 
BRANCH  31  32
HETATM   32  O   UNL     1      -4.981  -5.442 -34.669  1.00  0.00    -0.401 OA
HETATM   33  H   UNL     1      -4.490  -4.676 -34.331  1.00  0.00     0.209 HD
ENDBRANCH  31  32
ENDBRANCH  30  31
ENDBRANCH  29  30
ENDBRANCH   7  29
TORSDOF 7
ENDMDL
MODEL 5
REMARK VINA RESULT:      -7.7      3.586      7.067
REMARK  7 active torsions:
REMARK  status: ('A' for Active; 'I' for Inactive)
REMARK    1  A    between atoms: C_7  and  C_8 
REMARK    2  A    between atoms: C_8  and  C_9 
REMARK    3  A    between atoms: C_9  and  C_10 
REMARK    4  A    between atoms: C_10  and  O_11 
REMARK    5  A    between atoms: C_13  and  C_14 
REMARK    6  A    between atoms: C_21  and  C_22 
REMARK       I    between atoms: C_22  and  N_23 
REMARK    7  A    between atoms: N_23  and  C_24 
ROOT
HETATM    1  C   UNL     1     -10.530  -0.815 -32.572  1.00  0.00     0.070 C 
HETATM    2  C   UNL     1     -10.103   0.515 -33.144  1.00  0.00     0.037 A 
HETATM    3  N   UNL     1     -11.117   1.453 -33.306  1.00  0.00    -0.192 N 
HETATM    4  C   UNL     1     -10.926   2.664 -33.861  1.00  0.00     0.726 A 
HETATM    5  N   UNL     1      -9.667   3.030 -34.243  1.00  0.00    -0.083 N 
HETATM    6  N   UNL     1      -9.677   4.209 -34.902  1.00  0.00    -0.140 NA
HETATM    7  C   UNL     1     -10.967   4.556 -34.768  1.00  0.00     0.166 A 
HETATM    8  N   UNL     1     -11.766   3.622 -34.153  1.00  0.00    -0.046 NA
HETATM    9  C   UNL     1      -8.475   2.192 -34.073  1.00  0.00     0.202 A 
HETATM   10  C   UNL     1      -8.833   0.821 -33.512  1.00  0.00     0.062 A 
HETATM   11  H   UNL     1     -12.057   1.188 -33.025  1.00  0.00     0.184 HD
ENDROOT
BRANCH  10  12
HETATM   12  C   UNL     1      -7.729  -0.150 -33.275  1.00  0.00     0.256 C 
HETATM   13  N   UNL     1      -7.468  -0.966 -34.356  1.00  0.00    -0.323 N 
HETATM   14  H   UNL     1      -8.003  -0.831 -35.202  1.00  0.00     0.169 HD
HETATM   15  O   UNL     1      -7.156  -0.154 -32.193  1.00  0.00    -0.267 OA
BRANCH  13  16
HETATM   16  C   UNL     1      -6.520  -2.012 -34.419  1.00  0.00     0.035 A 
HETATM   17  C   UNL     1      -5.154  -1.846 -34.181  1.00  0.00     0.029 A 
HETATM   18  C   UNL     1      -4.286  -2.941 -34.240  1.00  0.00     0.002 A 
HETATM   19  C   UNL     1      -4.773  -4.209 -34.546  1.00  0.00     0.000 A 
HETATM   20  C   UNL     1      -6.131  -4.386 -34.789  1.00  0.00     0.002 A 
HETATM   21  C   UNL     1      -7.001  -3.294 -34.719  1.00  0.00     0.029 A 
ENDBRANCH  13  16
ENDBRANCH  10  12
BRANCH   9  22
HETATM   22  C   UNL     1      -7.425   2.953 -33.267  1.00  0.00    -0.028 A 
HETATM   23  C   UNL     1      -7.676   3.406 -31.961  1.00  0.00     0.011 A 
HETATM   24  C   UNL     1      -6.708   4.131 -31.260  1.00  0.00     0.019 A 
HETATM   25  C   UNL     1      -5.488   4.422 -31.863  1.00  0.00     0.011 A 
HETATM   26 BR   UNL     1      -4.184   5.414 -30.920  1.00  0.00    -0.051 Br
HETATM   27  C   UNL     1      -5.224   3.994 -33.162  1.00  0.00     0.019 A 
HETATM   28  C   UNL     1      -6.187   3.265 -33.860  1.00  0.00     0.011 A 
ENDBRANCH   9  22
BRANCH   7  29
HETATM   29  C   UNL     1     -11.490   5.861 -35.240  1.00  0.00     0.085 C 
BRANCH  29  30
HETATM   30  C   UNL     1     -12.941   5.788 -35.714  1.00  0.00     0.034 C 
BRANCH  30  31
HETATM   31  C   UNL     1     -13.923   6.431 -34.740  1.00  0.00     0.164 C 
BRANCH  31  32
HETATM   32  O   UNL     1     -14.287   5.485 -33.739  1.00  0.00    -0.401 OA
HETATM   33  H   UNL     1     -14.734   4.746 -34.183  1.00  0.00     0.209 HD
ENDBRANCH  31  32
ENDBRANCH  30  31
ENDBRANCH  29  30
ENDBRANCH   7  29
TORSDOF 7
ENDMDL
MODEL 6
REMARK VINA RESULT:      -7.7      1.668      1.963
REMARK  7 active torsions:
REMARK  status: ('A' for Active; 'I' for Inactive)
REMARK    1  A    between atoms: C_7  and  C_8 
REMARK    2  A    between atoms: C_8  and  C_9 
REMARK    3  A    between atoms: C_9  and  C_10 
REMARK    4  A    between atoms: C_10  and  O_11 
REMARK    5  A    between atoms: C_13  and  C_14 
REMARK    6  A    between atoms: C_21  and  C_22 
REMARK       I    between atoms: C_22  and  N_23 
REMARK    7  A    between atoms: N_23  and  C_24 
ROOT
HETATM    1  C   UNL     1      -7.509   4.369 -29.023  1.00  0.00     0.070 C 
HETATM    2  C   UNL     1      -6.709   4.177 -30.288  1.00  0.00     0.037 A 
HETATM    3  N   UNL     1      -5.372   4.552 -30.217  1.00  0.00    -0.192 N 
HETATM    4  C   UNL     1      -4.532   4.508 -31.268  1.00  0.00     0.726 A 
HETATM    5  N   UNL     1      -4.984   4.023 -32.462  1.00  0.00    -0.083 N 
HETATM    6  N   UNL     1      -4.061   4.179 -33.436  1.00  0.00    -0.140 NA
HETATM    7  C   UNL     1      -3.028   4.653 -32.723  1.00  0.00     0.166 A 
HETATM    8  N   UNL     1      -3.287   4.887 -31.393  1.00  0.00    -0.046 NA
HETATM    9  C   UNL     1      -6.342   3.515 -32.687  1.00  0.00     0.202 A 
HETATM   10  C   UNL     1      -7.215   3.693 -31.451  1.00  0.00     0.062 A 
HETATM   11  H   UNL     1      -5.028   4.914 -29.332  1.00  0.00     0.184 HD
ENDROOT
BRANCH  10  12
HETATM   12  C   UNL     1      -8.627   3.222 -31.517  1.00  0.00     0.256 C 
HETATM   13  N   UNL     1      -9.508   4.174 -31.985  1.00  0.00    -0.323 N 
HETATM   14  H   UNL     1      -9.142   5.073 -32.263  1.00  0.00     0.169 HD
HETATM   15  O   UNL     1      -8.893   2.077 -31.170  1.00  0.00    -0.267 OA
BRANCH  13  16
HETATM   16  C   UNL     1     -10.909   4.043 -32.111  1.00  0.00     0.035 A 
HETATM   17  C   UNL     1     -11.563   3.753 -33.310  1.00  0.00     0.029 A 
HETATM   18  C   UNL     1     -12.954   3.616 -33.344  1.00  0.00     0.002 A 
HETATM   19  C   UNL     1     -13.705   3.778 -32.183  1.00  0.00     0.000 A 
HETATM   20  C   UNL     1     -13.065   4.072 -30.983  1.00  0.00     0.002 A 
HETATM   21  C   UNL     1     -11.673   4.197 -30.946  1.00  0.00     0.029 A 
ENDBRANCH  13  16
ENDBRANCH  10  12
BRANCH   9  22
HETATM   22  C   UNL     1      -6.272   2.085 -33.215  1.00  0.00    -0.028 A 
HETATM   23  C   UNL     1      -6.826   1.722 -34.455  1.00  0.00     0.011 A 
HETATM   24  C   UNL     1      -6.777   0.397 -34.897  1.00  0.00     0.019 A 
HETATM   25  C   UNL     1      -6.187  -0.579 -34.098  1.00  0.00     0.011 A 
HETATM   26 BR   UNL     1      -6.133  -2.373 -34.690  1.00  0.00    -0.051 Br
HETATM   27  C   UNL     1      -5.646  -0.244 -32.860  1.00  0.00     0.019 A 
HETATM   28  C   UNL     1      -5.688   1.080 -32.421  1.00  0.00     0.011 A 
ENDBRANCH   9  22
BRANCH   7  29
HETATM   29  C   UNL     1      -1.694   4.895 -33.325  1.00  0.00     0.085 C 
BRANCH  29  30
HETATM   30  C   UNL     1      -0.975   6.101 -32.722  1.00  0.00     0.034 C 
BRANCH  30  31
HETATM   31  C   UNL     1      -1.663   7.426 -33.032  1.00  0.00     0.164 C 
BRANCH  31  32
HETATM   32  O   UNL     1      -1.805   7.570 -34.442  1.00  0.00    -0.401 OA
HETATM   33  H   UNL     1      -1.282   6.867 -34.863  1.00  0.00     0.209 HD
ENDBRANCH  31  32
ENDBRANCH  30  31
ENDBRANCH  29  30
ENDBRANCH   7  29
TORSDOF 7
ENDMDL
MODEL 7
REMARK VINA RESULT:      -7.6      3.552      6.168
REMARK  7 active torsions:
REMARK  status: ('A' for Active; 'I' for Inactive)
REMARK    1  A    between atoms: C_7  and  C_8 
REMARK    2  A    between atoms: C_8  and  C_9 
REMARK    3  A    between atoms: C_9  and  C_10 
REMARK    4  A    between atoms: C_10  and  O_11 
REMARK    5  A    between atoms: C_13  and  C_14 
REMARK    6  A    between atoms: C_21  and  C_22 
REMARK       I    between atoms: C_22  and  N_23 
REMARK    7  A    between atoms: N_23  and  C_24 
ROOT
HETATM    1  C   UNL     1      -3.378   1.843 -32.315  1.00  0.00     0.070 C 
HETATM    2  C   UNL     1      -4.703   2.439 -31.907  1.00  0.00     0.037 A 
HETATM    3  N   UNL     1      -4.715   3.819 -31.735  1.00  0.00    -0.192 N 
HETATM    4  C   UNL     1      -5.792   4.505 -31.312  1.00  0.00     0.726 A 
HETATM    5  N   UNL     1      -6.961   3.835 -31.084  1.00  0.00    -0.083 N 
HETATM    6  N   UNL     1      -7.892   4.646 -30.535  1.00  0.00    -0.140 NA
HETATM    7  C   UNL     1      -7.250   5.824 -30.578  1.00  0.00     0.166 A 
HETATM    8  N   UNL     1      -5.953   5.771 -31.029  1.00  0.00    -0.046 NA
HETATM    9  C   UNL     1      -7.141   2.394 -31.289  1.00  0.00     0.202 A 
HETATM   10  C   UNL     1      -5.834   1.720 -31.689  1.00  0.00     0.062 A 
HETATM   11  H   UNL     1      -3.849   4.324 -31.902  1.00  0.00     0.184 HD
ENDROOT
BRANCH  10  12
HETATM   12  C   UNL     1      -5.850   0.252 -31.940  1.00  0.00     0.256 C 
HETATM   13  N   UNL     1      -5.612  -0.087 -33.256  1.00  0.00    -0.323 N 
HETATM   14  H   UNL     1      -5.424   0.652 -33.918  1.00  0.00     0.169 HD
HETATM   15  O   UNL     1      -6.060  -0.513 -31.007  1.00  0.00    -0.267 OA
BRANCH  13  16
HETATM   16  C   UNL     1      -5.615  -1.388 -33.809  1.00  0.00     0.035 A 
HETATM   17  C   UNL     1      -4.472  -2.174 -33.965  1.00  0.00     0.029 A 
HETATM   18  C   UNL     1      -4.565  -3.463 -34.501  1.00  0.00     0.002 A 
HETATM   19  C   UNL     1      -5.799  -3.973 -34.894  1.00  0.00     0.000 A 
HETATM   20  C   UNL     1      -6.945  -3.197 -34.747  1.00  0.00     0.002 A 
HETATM   21  C   UNL     1      -6.854  -1.913 -34.201  1.00  0.00     0.029 A 
ENDBRANCH  13  16
ENDBRANCH  10  12
BRANCH   9  22
HETATM   22  C   UNL     1      -8.299   2.156 -32.255  1.00  0.00    -0.028 A 
HETATM   23  C   UNL     1      -8.479   2.941 -33.407  1.00  0.00     0.011 A 
HETATM   24  C   UNL     1      -9.568   2.723 -34.255  1.00  0.00     0.019 A 
HETATM   25  C   UNL     1     -10.495   1.729 -33.952  1.00  0.00     0.011 A 
HETATM   26 BR   UNL     1     -11.976   1.442 -35.092  1.00  0.00    -0.051 Br
HETATM   27  C   UNL     1     -10.344   0.949 -32.808  1.00  0.00     0.019 A 
HETATM   28  C   UNL     1      -9.252   1.162 -31.965  1.00  0.00     0.011 A 
ENDBRANCH   9  22
BRANCH   7  29
HETATM   29  C   UNL     1      -7.900   7.096 -30.178  1.00  0.00     0.085 C 
BRANCH  29  30
HETATM   30  C   UNL     1      -9.015   6.901 -29.151  1.00  0.00     0.034 C 
BRANCH  30  31
HETATM   31  C   UNL     1     -10.411   6.985 -29.759  1.00  0.00     0.164 C 
BRANCH  31  32
HETATM   32  O   UNL     1     -10.849   5.680 -30.125  1.00  0.00    -0.401 OA
HETATM   33  H   UNL     1     -10.069   5.101 -30.132  1.00  0.00     0.209 HD
ENDBRANCH  31  32
ENDBRANCH  30  31
ENDBRANCH  29  30
ENDBRANCH   7  29
TORSDOF 7
ENDMDL
MODEL 8
REMARK VINA RESULT:      -7.6      3.452      6.697
REMARK  7 active torsions:
REMARK  status: ('A' for Active; 'I' for Inactive)
REMARK    1  A    between atoms: C_7  and  C_8 
REMARK    2  A    between atoms: C_8  and  C_9 
REMARK    3  A    between atoms: C_9  and  C_10 
REMARK    4  A    between atoms: C_10  and  O_11 
REMARK    5  A    between atoms: C_13  and  C_14 
REMARK    6  A    between atoms: C_21  and  C_22 
REMARK       I    between atoms: C_22  and  N_23 
REMARK    7  A    between atoms: N_23  and  C_24 
ROOT
HETATM    1  C   UNL     1     -10.431  -0.387 -32.797  1.00  0.00     0.070 C 
HETATM    2  C   UNL     1      -9.973   1.043 -32.948  1.00  0.00     0.037 A 
HETATM    3  N   UNL     1     -10.745   1.994 -32.290  1.00  0.00    -0.192 N 
HETATM    4  C   UNL     1     -10.519   3.318 -32.370  1.00  0.00     0.726 A 
HETATM    5  N   UNL     1      -9.447   3.769 -33.087  1.00  0.00    -0.083 N 
HETATM    6  N   UNL     1      -9.449   5.116 -33.177  1.00  0.00    -0.140 NA
HETATM    7  C   UNL     1     -10.487   5.416 -32.382  1.00  0.00     0.166 A 
HETATM    8  N   UNL     1     -11.180   4.337 -31.886  1.00  0.00    -0.046 NA
HETATM    9  C   UNL     1      -8.489   2.897 -33.776  1.00  0.00     0.202 A 
HETATM   10  C   UNL     1      -8.899   1.432 -33.679  1.00  0.00     0.062 A 
HETATM   11  H   UNL     1     -11.546   1.667 -31.754  1.00  0.00     0.184 HD
ENDROOT
BRANCH  10  12
HETATM   12  C   UNL     1      -8.024   0.416 -34.328  1.00  0.00     0.256 C 
HETATM   13  N   UNL     1      -7.352  -0.389 -33.431  1.00  0.00    -0.323 N 
HETATM   14  H   UNL     1      -7.517  -0.253 -32.445  1.00  0.00     0.169 HD
HETATM   15  O   UNL     1      -7.967   0.366 -35.550  1.00  0.00    -0.267 OA
BRANCH  13  16
HETATM   16  C   UNL     1      -6.417  -1.402 -33.739  1.00  0.00     0.035 A 
HETATM   17  C   UNL     1      -6.719  -2.546 -34.481  1.00  0.00     0.029 A 
HETATM   18  C   UNL     1      -5.727  -3.491 -34.762  1.00  0.00     0.002 A 
HETATM   19  C   UNL     1      -4.428  -3.308 -34.295  1.00  0.00     0.000 A 
HETATM   20  C   UNL     1      -4.117  -2.174 -33.551  1.00  0.00     0.002 A 
HETATM   21  C   UNL     1      -5.105  -1.223 -33.280  1.00  0.00     0.029 A 
ENDBRANCH  13  16
ENDBRANCH  10  12
BRANCH   9  22
HETATM   22  C   UNL     1      -7.077   3.196 -33.280  1.00  0.00    -0.028 A 
HETATM   23  C   UNL     1      -6.108   3.787 -34.108  1.00  0.00     0.011 A 
HETATM   24  C   UNL     1      -4.813   4.018 -33.637  1.00  0.00     0.019 A 
HETATM   25  C   UNL     1      -4.470   3.646 -32.339  1.00  0.00     0.011 A 
HETATM   26 BR   UNL     1      -2.714   3.946 -31.706  1.00  0.00    -0.051 Br
HETATM   27  C   UNL     1      -5.411   3.046 -31.507  1.00  0.00     0.019 A 
HETATM   28  C   UNL     1      -6.707   2.822 -31.975  1.00  0.00     0.011 A 
ENDBRANCH   9  22
BRANCH   7  29
HETATM   29  C   UNL     1     -10.854   6.815 -32.050  1.00  0.00     0.085 C 
BRANCH  29  30
HETATM   30  C   UNL     1     -12.334   6.981 -31.710  1.00  0.00     0.034 C 
BRANCH  30  31
HETATM   31  C   UNL     1     -12.601   7.049 -30.210  1.00  0.00     0.164 C 
BRANCH  31  32
HETATM   32  O   UNL     1     -12.903   5.746 -29.722  1.00  0.00    -0.401 OA
HETATM   33  H   UNL     1     -13.623   5.834 -29.076  1.00  0.00     0.209 HD
ENDBRANCH  31  32
ENDBRANCH  30  31
ENDBRANCH  29  30
ENDBRANCH   7  29
TORSDOF 7
ENDMDL
MODEL 9
REMARK VINA RESULT:      -7.5      3.563      6.703
REMARK  7 active torsions:
REMARK  status: ('A' for Active; 'I' for Inactive)
REMARK    1  A    between atoms: C_7  and  C_8 
REMARK    2  A    between atoms: C_8  and  C_9 
REMARK    3  A    between atoms: C_9  and  C_10 
REMARK    4  A    between atoms: C_10  and  O_11 
REMARK    5  A    between atoms: C_13  and  C_14 
REMARK    6  A    between atoms: C_21  and  C_22 
REMARK       I    between atoms: C_22  and  N_23 
REMARK    7  A    between atoms: N_23  and  C_24 
ROOT
HETATM    1  C   UNL     1      -5.746   1.609 -29.740  1.00  0.00     0.070 C 
HETATM    2  C   UNL     1      -6.168   1.082 -31.090  1.00  0.00     0.037 A 
HETATM    3  N   UNL     1      -5.657  -0.164 -31.435  1.00  0.00    -0.192 N 
HETATM    4  C   UNL     1      -5.877  -0.754 -32.625  1.00  0.00     0.726 A 
HETATM    5  N   UNL     1      -6.687  -0.135 -33.534  1.00  0.00    -0.083 N 
HETATM    6  N   UNL     1      -6.689  -0.790 -34.715  1.00  0.00    -0.140 NA
HETATM    7  C   UNL     1      -5.952  -1.867 -34.402  1.00  0.00     0.166 A 
HETATM    8  N   UNL     1      -5.420  -1.868 -33.134  1.00  0.00    -0.046 NA
HETATM    9  C   UNL     1      -7.367   1.144 -33.300  1.00  0.00     0.202 A 
HETATM   10  C   UNL     1      -6.974   1.746 -31.956  1.00  0.00     0.062 A 
HETATM   11  H   UNL     1      -5.052  -0.631 -30.764  1.00  0.00     0.184 HD
ENDROOT
BRANCH  10  12
HETATM   12  C   UNL     1      -7.585   3.047 -31.566  1.00  0.00     0.256 C 
HETATM   13  N   UNL     1      -6.944   4.143 -32.105  1.00  0.00    -0.323 N 
HETATM   14  H   UNL     1      -6.158   3.988 -32.720  1.00  0.00     0.169 HD
HETATM   15  O   UNL     1      -8.566   3.053 -30.834  1.00  0.00    -0.267 OA
BRANCH  13  16
HETATM   16  C   UNL     1      -7.255   5.503 -31.878  1.00  0.00     0.035 A 
HETATM   17  C   UNL     1      -8.267   6.195 -32.546  1.00  0.00     0.029 A 
HETATM   18  C   UNL     1      -8.527   7.536 -32.245  1.00  0.00     0.002 A 
HETATM   19  C   UNL     1      -7.771   8.200 -31.281  1.00  0.00     0.000 A 
HETATM   20  C   UNL     1      -6.757   7.521 -30.613  1.00  0.00     0.002 A 
HETATM   21  C   UNL     1      -6.505   6.177 -30.905  1.00  0.00     0.029 A 
ENDBRANCH  13  16
ENDBRANCH  10  12
BRANCH   9  22
HETATM   22  C   UNL     1      -8.870   0.968 -33.502  1.00  0.00    -0.028 A 
HETATM   23  C   UNL     1      -9.613   1.822 -34.336  1.00  0.00     0.011 A 
HETATM   24  C   UNL     1     -10.994   1.658 -34.475  1.00  0.00     0.019 A 
HETATM   25  C   UNL     1     -11.647   0.650 -33.771  1.00  0.00     0.011 A 
HETATM   26 BR   UNL     1     -13.517   0.437 -33.949  1.00  0.00    -0.051 Br
HETATM   27  C   UNL     1     -10.932  -0.198 -32.929  1.00  0.00     0.019 A 
HETATM   28  C   UNL     1      -9.552  -0.040 -32.795  1.00  0.00     0.011 A 
ENDBRANCH   9  22
BRANCH   7  29
HETATM   29  C   UNL     1      -5.736  -2.985 -35.353  1.00  0.00     0.085 C 
BRANCH  29  30
HETATM   30  C   UNL     1      -5.999  -4.357 -34.734  1.00  0.00     0.034 C 
BRANCH  30  31
HETATM   31  C   UNL     1      -4.725  -5.161 -34.495  1.00  0.00     0.164 C 
BRANCH  31  32
HETATM   32  O   UNL     1      -3.952  -4.534 -33.477  1.00  0.00    -0.401 OA
HETATM   33  H   UNL     1      -3.185  -4.119 -33.905  1.00  0.00     0.209 HD
ENDBRANCH  31  32
ENDBRANCH  30  31
ENDBRANCH  29  30
ENDBRANCH   7  29
TORSDOF 7
ENDMDL
MODEL 10
REMARK VINA RESULT:      -7.4     16.522     19.106
REMARK  7 active torsions:
REMARK  status: ('A' for Active; 'I' for Inactive)
REMARK    1  A    between atoms: C_7  and  C_8 
REMARK    2  A    between atoms: C_8  and  C_9 
REMARK    3  A    between atoms: C_9  and  C_10 
REMARK    4  A    between atoms: C_10  and  O_11 
REMARK    5  A    between atoms: C_13  and  C_14 
REMARK    6  A    between atoms: C_21  and  C_22 
REMARK       I    between atoms: C_22  and  N_23 
REMARK    7  A    between atoms: N_23  and  C_24 
ROOT
HETATM    1  C   UNL     1      -2.594 -12.094 -38.327  1.00  0.00     0.070 C 
HETATM    2  C   UNL     1      -3.787 -12.843 -37.786  1.00  0.00     0.037 A 
HETATM    3  N   UNL     1      -4.008 -12.715 -36.419  1.00  0.00    -0.192 N 
HETATM    4  C   UNL     1      -4.986 -13.365 -35.762  1.00  0.00     0.726 A 
HETATM    5  N   UNL     1      -5.850 -14.155 -36.465  1.00  0.00    -0.083 N 
HETATM    6  N   UNL     1      -6.675 -14.836 -35.640  1.00  0.00    -0.140 NA
HETATM    7  C   UNL     1      -6.330 -14.307 -34.455  1.00  0.00     0.166 A 
HETATM    8  N   UNL     1      -5.283 -13.418 -34.490  1.00  0.00    -0.046 NA
HETATM    9  C   UNL     1      -5.805 -14.338 -37.920  1.00  0.00     0.202 A 
HETATM   10  C   UNL     1      -4.610 -13.619 -38.535  1.00  0.00     0.062 A 
HETATM   11  H   UNL     1      -3.369 -12.129 -35.888  1.00  0.00     0.184 HD
ENDROOT
BRANCH  10  12
HETATM   12  C   UNL     1      -4.425 -13.705 -40.010  1.00  0.00     0.256 C 
HETATM   13  N   UNL     1      -4.007 -14.945 -40.445  1.00  0.00    -0.323 N 
HETATM   14  H   UNL     1      -3.890 -15.680 -39.763  1.00  0.00     0.169 HD
HETATM   15  O   UNL     1      -4.648 -12.718 -40.700  1.00  0.00    -0.267 OA
BRANCH  13  16
HETATM   16  C   UNL     1      -3.698 -15.318 -41.773  1.00  0.00     0.035 A 
HETATM   17  C   UNL     1      -4.349 -14.811 -42.899  1.00  0.00     0.029 A 
HETATM   18  C   UNL     1      -3.966 -15.214 -44.182  1.00  0.00     0.002 A 
HETATM   19  C   UNL     1      -2.935 -16.136 -44.350  1.00  0.00     0.000 A 
HETATM   20  C   UNL     1      -2.282 -16.651 -43.235  1.00  0.00     0.002 A 
HETATM   21  C   UNL     1      -2.658 -16.239 -41.953  1.00  0.00     0.029 A 
ENDBRANCH  13  16
ENDBRANCH  10  12
BRANCH   9  22
HETATM   22  C   UNL     1      -7.154 -13.959 -38.525  1.00  0.00    -0.028 A 
HETATM   23  C   UNL     1      -7.596 -12.626 -38.581  1.00  0.00     0.011 A 
HETATM   24  C   UNL     1      -8.851 -12.313 -39.109  1.00  0.00     0.019 A 
HETATM   25  C   UNL     1      -9.682 -13.329 -39.573  1.00  0.00     0.011 A 
HETATM   26 BR   UNL     1     -11.385 -12.906 -40.276  1.00  0.00    -0.051 Br
HETATM   27  C   UNL     1      -9.270 -14.658 -39.514  1.00  0.00     0.019 A 
HETATM   28  C   UNL     1      -8.014 -14.971 -38.993  1.00  0.00     0.011 A 
ENDBRANCH   9  22
BRANCH   7  29
HETATM   29  C   UNL     1      -7.038 -14.651 -33.198  1.00  0.00     0.085 C 
BRANCH  29  30
HETATM   30  C   UNL     1      -6.324 -15.728 -32.384  1.00  0.00     0.034 C 
BRANCH  30  31
HETATM   31  C   UNL     1      -5.247 -15.167 -31.461  1.00  0.00     0.164 C 
BRANCH  31  32
HETATM   32  O   UNL     1      -5.708 -15.205 -30.114  1.00  0.00    -0.401 OA
HETATM   33  H   UNL     1      -5.644 -16.125 -29.808  1.00  0.00     0.209 HD
ENDBRANCH  31  32
ENDBRANCH  30  31
ENDBRANCH  29  30
ENDBRANCH   7  29
TORSDOF 7
ENDMDL
