MODEL 1
REMARK VINA RESULT:      -8.3      0.000      0.000
REMARK  8 active torsions:
REMARK  status: ('A' for Active; 'I' for Inactive)
REMARK    1  A    between atoms: C_2  and  C_3 
REMARK    2  A    between atoms: C_3  and  C_4 
REMARK       I    between atoms: C_4  and  N_5 
REMARK    3  A    between atoms: N_8  and  C_9 
REMARK    4  A    between atoms: C_13  and  N_14 
REMARK    5  A    between atoms: N_14  and  C_15 
REMARK    6  A    between atoms: C_15  and  N_16 
REMARK       I    between atoms: N_16  and  C_17 
REMARK    7  A    between atoms: C_17  and  C_18 
REMARK    8  A    between atoms: C_19  and  O_20 
ROOT
HETATM    1  C   UNL     1      -5.010   4.213 -32.262  1.00  0.00     0.052 A 
HETATM    2  C   UNL     1      -5.986   3.536 -31.489  1.00  0.00     0.062 A 
HETATM    3 CL   UNL     1      -5.778   3.251 -29.787  1.00  0.00    -0.082 Cl
HETATM    4  C   UNL     1      -7.129   2.962 -32.075  1.00  0.00     0.055 A 
HETATM    5  C   UNL     1      -7.289   2.982 -33.458  1.00  0.00     0.036 A 
HETATM    6  C   UNL     1      -6.372   3.687 -34.231  1.00  0.00     0.032 A 
HETATM    7  C   UNL     1      -5.261   4.298 -33.641  1.00  0.00     0.033 A 
ENDROOT
BRANCH   5   8
HETATM    8  N   UNL     1      -8.395   2.319 -34.026  1.00  0.00    -0.333 N 
HETATM    9  H   UNL     1      -8.982   2.859 -34.663  1.00  0.00     0.168 HD
BRANCH   8  10
HETATM   10  C   UNL     1      -8.946   1.115 -33.650  1.00  0.00     0.179 C 
HETATM   11  S   UNL     1     -10.494   0.814 -33.081  1.00  0.00    -0.040 SA
BRANCH  10  12
HETATM   12  N   UNL     1      -8.119   0.020 -33.772  1.00  0.00    -0.299 N 
HETATM   13  C   UNL     1      -7.122  -0.221 -34.704  1.00  0.00     0.260 C 
HETATM   14  O   UNL     1      -7.127   0.279 -35.826  1.00  0.00    -0.267 OA
HETATM   15  H   UNL     1      -8.111  -0.560 -32.941  1.00  0.00     0.171 HD
BRANCH  13  16
HETATM   16  C   UNL     1      -6.041  -1.179 -34.292  1.00  0.00     0.065 A 
HETATM   17  C   UNL     1      -4.965  -0.844 -33.446  1.00  0.00     0.084 A 
HETATM   18  C   UNL     1      -3.996  -1.805 -33.127  1.00  0.00     0.038 A 
HETATM   19  C   UNL     1      -4.062  -3.082 -33.681  1.00  0.00     0.003 A 
HETATM   20  C   UNL     1      -5.105  -3.415 -34.541  1.00  0.00     0.001 A 
HETATM   21  C   UNL     1      -6.090  -2.472 -34.842  1.00  0.00     0.020 A 
BRANCH  17  22
HETATM   22  O   UNL     1      -4.913   0.402 -32.872  1.00  0.00    -0.355 OA
HETATM   23  C   UNL     1      -3.629   0.728 -32.330  1.00  0.00     0.210 C 
ENDBRANCH  17  22
ENDBRANCH  13  16
ENDBRANCH  10  12
ENDBRANCH   8  10
ENDBRANCH   5   8
BRANCH   1  24
HETATM   24  N   UNL     1      -3.820   4.713 -31.712  1.00  0.00    -0.376 N 
HETATM   25  C   UNL     1      -3.797   6.155 -31.390  1.00  0.00     0.143 C 
HETATM   26  C   UNL     1      -2.671   6.435 -30.371  1.00  0.00     0.145 C 
HETATM   27  N   UNL     1      -1.362   5.901 -30.788  1.00  0.00    -0.349 N 
HETATM   28  C   UNL     1      -0.150   6.325 -30.248  1.00  0.00     0.219 C 
HETATM   29  C   UNL     1      -1.384   4.536 -31.331  1.00  0.00     0.145 C 
HETATM   30  O   UNL     1       0.905   5.731 -30.478  1.00  0.00    -0.273 OA
HETATM   31  C   UNL     1      -2.539   4.272 -32.305  1.00  0.00     0.143 C 
BRANCH  28  32
HETATM   32  C   UNL     1      -0.183   7.559 -29.359  1.00  0.00     0.103 C 
BRANCH  32  33
HETATM   33  C   UNL     1       0.632   7.359 -28.080  1.00  0.00     0.005 C 
HETATM   34  C   UNL     1       1.548   8.540 -27.807  1.00  0.00     0.005 C 
ENDBRANCH  32  33
ENDBRANCH  28  32
ENDBRANCH   1  24
TORSDOF 8
ENDMDL
MODEL 2
REMARK VINA RESULT:      -8.2      1.393      1.865
REMARK  8 active torsions:
REMARK  status: ('A' for Active; 'I' for Inactive)
REMARK    1  A    between atoms: C_2  and  C_3 
REMARK    2  A    between atoms: C_3  and  C_4 
REMARK       I    between atoms: C_4  and  N_5 
REMARK    3  A    between atoms: N_8  and  C_9 
REMARK    4  A    between atoms: C_13  and  N_14 
REMARK    5  A    between atoms: N_14  and  C_15 
REMARK    6  A    between atoms: C_15  and  N_16 
REMARK       I    between atoms: N_16  and  C_17 
REMARK    7  A    between atoms: C_17  and  C_18 
REMARK    8  A    between atoms: C_19  and  O_20 
ROOT
HETATM    1  C   UNL     1      -5.288   4.439 -32.035  1.00  0.00     0.052 A 
HETATM    2  C   UNL     1      -5.335   4.325 -33.446  1.00  0.00     0.062 A 
HETATM    3 CL   UNL     1      -4.247   5.203 -34.479  1.00  0.00    -0.082 Cl
HETATM    4  C   UNL     1      -6.333   3.577 -34.097  1.00  0.00     0.055 A 
HETATM    5  C   UNL     1      -7.356   2.987 -33.359  1.00  0.00     0.036 A 
HETATM    6  C   UNL     1      -7.300   3.041 -31.970  1.00  0.00     0.032 A 
HETATM    7  C   UNL     1      -6.280   3.745 -31.323  1.00  0.00     0.033 A 
ENDROOT
BRANCH   5   8
HETATM    8  N   UNL     1      -8.394   2.323 -34.041  1.00  0.00    -0.333 N 
HETATM    9  H   UNL     1      -8.921   2.868 -34.726  1.00  0.00     0.168 HD
BRANCH   8  10
HETATM   10  C   UNL     1      -8.968   1.110 -33.738  1.00  0.00     0.179 C 
HETATM   11  S   UNL     1     -10.552   0.794 -33.289  1.00  0.00    -0.040 SA
BRANCH  10  12
HETATM   12  N   UNL     1      -8.132   0.019 -33.830  1.00  0.00    -0.299 N 
HETATM   13  C   UNL     1      -7.089  -0.210 -34.712  1.00  0.00     0.260 C 
HETATM   14  O   UNL     1      -7.038   0.303 -35.827  1.00  0.00    -0.267 OA
HETATM   15  H   UNL     1      -8.165  -0.570 -33.005  1.00  0.00     0.171 HD
BRANCH  13  16
HETATM   16  C   UNL     1      -6.026  -1.169 -34.256  1.00  0.00     0.065 A 
HETATM   17  C   UNL     1      -5.083  -0.887 -33.246  1.00  0.00     0.084 A 
HETATM   18  C   UNL     1      -4.121  -1.844 -32.897  1.00  0.00     0.038 A 
HETATM   19  C   UNL     1      -4.058  -3.059 -33.576  1.00  0.00     0.003 A 
HETATM   20  C   UNL     1      -4.966  -3.336 -34.593  1.00  0.00     0.001 A 
HETATM   21  C   UNL     1      -5.946  -2.400 -34.929  1.00  0.00     0.020 A 
BRANCH  17  22
HETATM   22  O   UNL     1      -5.163   0.295 -32.553  1.00  0.00    -0.355 OA
HETATM   23  C   UNL     1      -3.911   0.982 -32.453  1.00  0.00     0.210 C 
ENDBRANCH  17  22
ENDBRANCH  13  16
ENDBRANCH  10  12
ENDBRANCH   8  10
ENDBRANCH   5   8
BRANCH   1  24
HETATM   24  N   UNL     1      -4.357   5.252 -31.371  1.00  0.00    -0.376 N 
HETATM   25  C   UNL     1      -2.978   4.730 -31.271  1.00  0.00     0.143 C 
HETATM   26  C   UNL     1      -2.007   5.896 -30.988  1.00  0.00     0.145 C 
HETATM   27  N   UNL     1      -2.411   6.724 -29.837  1.00  0.00    -0.349 N 
HETATM   28  C   UNL     1      -1.544   7.584 -29.165  1.00  0.00     0.219 C 
HETATM   29  C   UNL     1      -3.836   7.076 -29.785  1.00  0.00     0.145 C 
HETATM   30  O   UNL     1      -1.954   8.398 -28.335  1.00  0.00    -0.273 OA
HETATM   31  C   UNL     1      -4.777   5.910 -30.115  1.00  0.00     0.143 C 
BRANCH  28  32
HETATM   32  C   UNL     1      -0.065   7.474 -29.499  1.00  0.00     0.103 C 
BRANCH  32  33
HETATM   33  C   UNL     1       0.787   7.270 -28.245  1.00  0.00     0.005 C 
HETATM   34  C   UNL     1       1.519   8.541 -27.850  1.00  0.00     0.005 C 
ENDBRANCH  32  33
ENDBRANCH  28  32
ENDBRANCH   1  24
TORSDOF 8
ENDMDL
MODEL 3
REMARK VINA RESULT:      -8.1      3.300     10.184
REMARK  8 active torsions:
REMARK  status: ('A' for Active; 'I' for Inactive)
REMARK    1  A    between atoms: C_2  and  C_3 
REMARK    2  A    between atoms: C_3  and  C_4 
REMARK       I    between atoms: C_4  and  N_5 
REMARK    3  A    between atoms: N_8  and  C_9 
REMARK    4  A    between atoms: C_13  and  N_14 
REMARK    5  A    between atoms: N_14  and  C_15 
REMARK    6  A    between atoms: C_15  and  N_16 
REMARK       I    between atoms: N_16  and  C_17 
REMARK    7  A    between atoms: C_17  and  C_18 
REMARK    8  A    between atoms: C_19  and  O_20 
ROOT
HETATM    1  C   UNL     1      -6.983   1.967 -32.639  1.00  0.00     0.052 A 
HETATM    2  C   UNL     1      -5.811   1.260 -33.007  1.00  0.00     0.062 A 
HETATM    3 CL   UNL     1      -5.875  -0.254 -33.857  1.00  0.00    -0.082 Cl
HETATM    4  C   UNL     1      -4.531   1.691 -32.611  1.00  0.00     0.055 A 
HETATM    5  C   UNL     1      -4.393   2.794 -31.774  1.00  0.00     0.036 A 
HETATM    6  C   UNL     1      -5.525   3.533 -31.445  1.00  0.00     0.032 A 
HETATM    7  C   UNL     1      -6.792   3.131 -31.878  1.00  0.00     0.033 A 
ENDROOT
BRANCH   5   8
HETATM    8  N   UNL     1      -3.109   3.148 -31.317  1.00  0.00    -0.333 N 
HETATM    9  H   UNL     1      -2.750   2.643 -30.506  1.00  0.00     0.168 HD
BRANCH   8  10
HETATM   10  C   UNL     1      -2.365   4.256 -31.654  1.00  0.00     0.179 C 
HETATM   11  S   UNL     1      -2.021   4.850 -33.183  1.00  0.00    -0.040 SA
BRANCH  10  12
HETATM   12  N   UNL     1      -1.852   4.970 -30.594  1.00  0.00    -0.299 N 
HETATM   13  C   UNL     1      -0.540   5.339 -30.342  1.00  0.00     0.260 C 
HETATM   14  O   UNL     1       0.421   4.706 -30.772  1.00  0.00    -0.267 OA
HETATM   15  H   UNL     1      -2.568   5.458 -30.067  1.00  0.00     0.171 HD
BRANCH  13  16
HETATM   16  C   UNL     1      -0.341   6.541 -29.464  1.00  0.00     0.065 A 
HETATM   17  C   UNL     1      -1.140   7.701 -29.514  1.00  0.00     0.084 A 
HETATM   18  C   UNL     1      -0.868   8.778 -28.659  1.00  0.00     0.038 A 
HETATM   19  C   UNL     1       0.220   8.731 -27.790  1.00  0.00     0.003 A 
HETATM   20  C   UNL     1       1.032   7.601 -27.753  1.00  0.00     0.001 A 
HETATM   21  C   UNL     1       0.752   6.512 -28.580  1.00  0.00     0.020 A 
BRANCH  17  22
HETATM   22  O   UNL     1      -2.232   7.740 -30.345  1.00  0.00    -0.355 OA
HETATM   23  C   UNL     1      -2.026   8.530 -31.520  1.00  0.00     0.210 C 
ENDBRANCH  17  22
ENDBRANCH  13  16
ENDBRANCH  10  12
ENDBRANCH   8  10
ENDBRANCH   5   8
BRANCH   1  24
HETATM   24  N   UNL     1      -8.272   1.506 -32.945  1.00  0.00    -0.376 N 
HETATM   25  C   UNL     1      -9.266   2.532 -33.326  1.00  0.00     0.143 C 
HETATM   26  C   UNL     1     -10.427   1.862 -34.092  1.00  0.00     0.145 C 
HETATM   27  N   UNL     1     -11.009   0.711 -33.377  1.00  0.00    -0.349 N 
HETATM   28  C   UNL     1     -12.265   0.181 -33.665  1.00  0.00     0.219 C 
HETATM   29  C   UNL     1     -10.037  -0.218 -32.786  1.00  0.00     0.145 C 
HETATM   30  O   UNL     1     -12.642  -0.890 -33.185  1.00  0.00    -0.273 OA
HETATM   31  C   UNL     1      -8.870   0.474 -32.071  1.00  0.00     0.143 C 
BRANCH  28  32
HETATM   32  C   UNL     1     -13.156   0.983 -34.601  1.00  0.00     0.103 C 
BRANCH  32  33
HETATM   33  C   UNL     1     -14.455   1.413 -33.918  1.00  0.00     0.005 C 
HETATM   34  C   UNL     1     -14.195   2.370 -32.767  1.00  0.00     0.005 C 
ENDBRANCH  32  33
ENDBRANCH  28  32
ENDBRANCH   1  24
TORSDOF 8
ENDMDL
MODEL 4
REMARK VINA RESULT:      -8.0      5.468      9.857
REMARK  8 active torsions:
REMARK  status: ('A' for Active; 'I' for Inactive)
REMARK    1  A    between atoms: C_2  and  C_3 
REMARK    2  A    between atoms: C_3  and  C_4 
REMARK       I    between atoms: C_4  and  N_5 
REMARK    3  A    between atoms: N_8  and  C_9 
REMARK    4  A    between atoms: C_13  and  N_14 
REMARK    5  A    between atoms: N_14  and  C_15 
REMARK    6  A    between atoms: C_15  and  N_16 
REMARK       I    between atoms: N_16  and  C_17 
REMARK    7  A    between atoms: C_17  and  C_18 
REMARK    8  A    between atoms: C_19  and  O_20 
ROOT
HETATM    1  C   UNL     1     -11.898   2.688 -33.111  1.00  0.00     0.052 A 
HETATM    2  C   UNL     1     -11.386   2.088 -34.288  1.00  0.00     0.062 A 
HETATM    3 CL   UNL     1     -12.427   1.468 -35.535  1.00  0.00    -0.082 Cl
HETATM    4  C   UNL     1     -10.009   1.864 -34.467  1.00  0.00     0.055 A 
HETATM    5  C   UNL     1      -9.114   2.162 -33.443  1.00  0.00     0.036 A 
HETATM    6  C   UNL     1      -9.588   2.801 -32.302  1.00  0.00     0.032 A 
HETATM    7  C   UNL     1     -10.952   3.066 -32.145  1.00  0.00     0.033 A 
ENDROOT
BRANCH   5   8
HETATM    8  N   UNL     1      -7.753   1.842 -33.612  1.00  0.00    -0.333 N 
HETATM    9  H   UNL     1      -7.353   1.993 -34.539  1.00  0.00     0.168 HD
BRANCH   8  10
HETATM   10  C   UNL     1      -6.943   1.113 -32.770  1.00  0.00     0.179 C 
HETATM   11  S   UNL     1      -6.093   1.648 -31.428  1.00  0.00    -0.040 SA
BRANCH  10  12
HETATM   12  N   UNL     1      -6.833  -0.227 -33.067  1.00  0.00    -0.299 N 
HETATM   13  C   UNL     1      -6.762  -0.845 -34.305  1.00  0.00     0.260 C 
HETATM   14  O   UNL     1      -7.242  -0.350 -35.322  1.00  0.00    -0.267 OA
HETATM   15  H   UNL     1      -6.552  -0.783 -32.267  1.00  0.00     0.171 HD
BRANCH  13  16
HETATM   16  C   UNL     1      -6.102  -2.194 -34.342  1.00  0.00     0.065 A 
HETATM   17  C   UNL     1      -4.749  -2.424 -34.019  1.00  0.00     0.084 A 
HETATM   18  C   UNL     1      -4.220  -3.720 -34.094  1.00  0.00     0.038 A 
HETATM   19  C   UNL     1      -5.012  -4.779 -34.533  1.00  0.00     0.003 A 
HETATM   20  C   UNL     1      -6.341  -4.557 -34.881  1.00  0.00     0.001 A 
HETATM   21  C   UNL     1      -6.884  -3.275 -34.783  1.00  0.00     0.020 A 
BRANCH  17  22
HETATM   22  O   UNL     1      -3.974  -1.390 -33.555  1.00  0.00    -0.355 OA
HETATM   23  C   UNL     1      -3.580  -1.543 -32.188  1.00  0.00     0.210 C 
ENDBRANCH  17  22
ENDBRANCH  13  16
ENDBRANCH  10  12
ENDBRANCH   8  10
ENDBRANCH   5   8
BRANCH   1  24
HETATM   24  N   UNL     1     -13.273   2.838 -32.873  1.00  0.00    -0.376 N 
HETATM   25  C   UNL     1     -13.659   3.794 -31.814  1.00  0.00     0.143 C 
HETATM   26  C   UNL     1     -15.132   4.212 -32.012  1.00  0.00     0.145 C 
HETATM   27  N   UNL     1     -16.051   3.066 -32.138  1.00  0.00    -0.349 N 
HETATM   28  C   UNL     1     -17.429   3.161 -31.958  1.00  0.00     0.219 C 
HETATM   29  C   UNL     1     -15.589   1.984 -33.017  1.00  0.00     0.145 C 
HETATM   30  O   UNL     1     -18.186   2.234 -32.254  1.00  0.00    -0.273 OA
HETATM   31  C   UNL     1     -14.110   1.619 -32.832  1.00  0.00     0.143 C 
BRANCH  28  32
HETATM   32  C   UNL     1     -17.962   4.461 -31.376  1.00  0.00     0.103 C 
BRANCH  32  33
HETATM   33  C   UNL     1     -19.068   5.061 -32.246  1.00  0.00     0.005 C 
HETATM   34  C   UNL     1     -18.498   5.879 -33.393  1.00  0.00     0.005 C 
ENDBRANCH  32  33
ENDBRANCH  28  32
ENDBRANCH   1  24
TORSDOF 8
ENDMDL
MODEL 5
REMARK VINA RESULT:      -7.8      1.354      2.163
REMARK  8 active torsions:
REMARK  status: ('A' for Active; 'I' for Inactive)
REMARK    1  A    between atoms: C_2  and  C_3 
REMARK    2  A    between atoms: C_3  and  C_4 
REMARK       I    between atoms: C_4  and  N_5 
REMARK    3  A    between atoms: N_8  and  C_9 
REMARK    4  A    between atoms: C_13  and  N_14 
REMARK    5  A    between atoms: N_14  and  C_15 
REMARK    6  A    between atoms: C_15  and  N_16 
REMARK       I    between atoms: N_16  and  C_17 
REMARK    7  A    between atoms: C_17  and  C_18 
REMARK    8  A    between atoms: C_19  and  O_20 
ROOT
HETATM    1  C   UNL     1      -5.097   3.902 -31.400  1.00  0.00     0.052 A 
HETATM    2  C   UNL     1      -5.880   4.194 -32.545  1.00  0.00     0.062 A 
HETATM    3 CL   UNL     1      -5.411   5.409 -33.697  1.00  0.00    -0.082 Cl
HETATM    4  C   UNL     1      -7.134   3.593 -32.759  1.00  0.00     0.055 A 
HETATM    5  C   UNL     1      -7.674   2.743 -31.798  1.00  0.00     0.036 A 
HETATM    6  C   UNL     1      -6.901   2.400 -30.693  1.00  0.00     0.032 A 
HETATM    7  C   UNL     1      -5.634   2.962 -30.505  1.00  0.00     0.033 A 
ENDROOT
BRANCH   5   8
HETATM    8  N   UNL     1      -8.970   2.228 -31.994  1.00  0.00    -0.333 N 
HETATM    9  H   UNL     1      -9.701   2.563 -31.365  1.00  0.00     0.168 HD
BRANCH   8  10
HETATM   10  C   UNL     1      -9.346   1.144 -32.753  1.00  0.00     0.179 C 
HETATM   11  S   UNL     1     -10.841   0.828 -33.444  1.00  0.00    -0.040 SA
BRANCH  10  12
HETATM   12  N   UNL     1      -8.360   0.210 -32.983  1.00  0.00    -0.299 N 
HETATM   13  C   UNL     1      -7.560   0.042 -34.102  1.00  0.00     0.260 C 
HETATM   14  O   UNL     1      -7.909   0.394 -35.226  1.00  0.00    -0.267 OA
HETATM   15  H   UNL     1      -8.055  -0.254 -32.135  1.00  0.00     0.171 HD
BRANCH  13  16
HETATM   16  C   UNL     1      -6.243  -0.647 -33.884  1.00  0.00     0.065 A 
HETATM   17  C   UNL     1      -5.979  -1.984 -34.247  1.00  0.00     0.084 A 
HETATM   18  C   UNL     1      -4.720  -2.544 -33.993  1.00  0.00     0.038 A 
HETATM   19  C   UNL     1      -3.738  -1.803 -33.338  1.00  0.00     0.003 A 
HETATM   20  C   UNL     1      -3.999  -0.492 -32.951  1.00  0.00     0.001 A 
HETATM   21  C   UNL     1      -5.241   0.084 -33.225  1.00  0.00     0.020 A 
BRANCH  17  22
HETATM   22  O   UNL     1      -6.931  -2.707 -34.921  1.00  0.00    -0.355 OA
HETATM   23  C   UNL     1      -6.716  -4.121 -34.868  1.00  0.00     0.210 C 
ENDBRANCH  17  22
ENDBRANCH  13  16
ENDBRANCH  10  12
ENDBRANCH   8  10
ENDBRANCH   5   8
BRANCH   1  24
HETATM   24  N   UNL     1      -3.888   4.556 -31.122  1.00  0.00    -0.376 N 
HETATM   25  C   UNL     1      -3.989   5.949 -30.636  1.00  0.00     0.143 C 
HETATM   26  C   UNL     1      -2.678   6.339 -29.921  1.00  0.00     0.145 C 
HETATM   27  N   UNL     1      -1.473   6.080 -30.730  1.00  0.00    -0.349 N 
HETATM   28  C   UNL     1      -0.235   6.665 -30.475  1.00  0.00     0.219 C 
HETATM   29  C   UNL     1      -1.444   4.782 -31.416  1.00  0.00     0.145 C 
HETATM   30  O   UNL     1       0.790   6.287 -31.047  1.00  0.00    -0.273 OA
HETATM   31  C   UNL     1      -2.773   4.398 -32.079  1.00  0.00     0.143 C 
BRANCH  28  32
HETATM   32  C   UNL     1      -0.200   7.797 -29.459  1.00  0.00     0.103 C 
BRANCH  32  33
HETATM   33  C   UNL     1       0.662   7.444 -28.246  1.00  0.00     0.005 C 
HETATM   34  C   UNL     1       1.552   8.605 -27.833  1.00  0.00     0.005 C 
ENDBRANCH  32  33
ENDBRANCH  28  32
ENDBRANCH   1  24
TORSDOF 8
ENDMDL
MODEL 6
REMARK VINA RESULT:      -7.7      2.205      2.511
REMARK  8 active torsions:
REMARK  status: ('A' for Active; 'I' for Inactive)
REMARK    1  A    between atoms: C_2  and  C_3 
REMARK    2  A    between atoms: C_3  and  C_4 
REMARK       I    between atoms: C_4  and  N_5 
REMARK    3  A    between atoms: N_8  and  C_9 
REMARK    4  A    between atoms: C_13  and  N_14 
REMARK    5  A    between atoms: N_14  and  C_15 
REMARK    6  A    between atoms: C_15  and  N_16 
REMARK       I    between atoms: N_16  and  C_17 
REMARK    7  A    between atoms: C_17  and  C_18 
REMARK    8  A    between atoms: C_19  and  O_20 
ROOT
HETATM    1  C   UNL     1      -5.718   4.113 -31.037  1.00  0.00     0.052 A 
HETATM    2  C   UNL     1      -5.275   2.770 -31.110  1.00  0.00     0.062 A 
HETATM    3 CL   UNL     1      -3.594   2.361 -31.273  1.00  0.00    -0.082 Cl
HETATM    4  C   UNL     1      -6.179   1.693 -31.163  1.00  0.00     0.055 A 
HETATM    5  C   UNL     1      -7.549   1.933 -31.221  1.00  0.00     0.036 A 
HETATM    6  C   UNL     1      -8.008   3.241 -31.096  1.00  0.00     0.032 A 
HETATM    7  C   UNL     1      -7.109   4.307 -30.997  1.00  0.00     0.033 A 
ENDROOT
BRANCH   5   8
HETATM    8  N   UNL     1      -8.428   0.842 -31.367  1.00  0.00    -0.333 N 
HETATM    9  H   UNL     1      -8.521   0.212 -30.569  1.00  0.00     0.168 HD
BRANCH   8  10
HETATM   10  C   UNL     1      -8.992   0.357 -32.525  1.00  0.00     0.179 C 
HETATM   11  S   UNL     1     -10.364   0.902 -33.319  1.00  0.00    -0.040 SA
BRANCH  10  12
HETATM   12  N   UNL     1      -8.331  -0.702 -33.108  1.00  0.00    -0.299 N 
HETATM   13  C   UNL     1      -7.460  -0.701 -34.185  1.00  0.00     0.260 C 
HETATM   14  O   UNL     1      -7.494   0.154 -35.066  1.00  0.00    -0.267 OA
HETATM   15  H   UNL     1      -8.329  -1.531 -32.524  1.00  0.00     0.171 HD
BRANCH  13  16
HETATM   16  C   UNL     1      -6.483  -1.841 -34.255  1.00  0.00     0.065 A 
HETATM   17  C   UNL     1      -5.120  -1.739 -33.911  1.00  0.00     0.084 A 
HETATM   18  C   UNL     1      -4.283  -2.858 -34.021  1.00  0.00     0.038 A 
HETATM   19  C   UNL     1      -4.779  -4.063 -34.515  1.00  0.00     0.003 A 
HETATM   20  C   UNL     1      -6.117  -4.166 -34.884  1.00  0.00     0.001 A 
HETATM   21  C   UNL     1      -6.965  -3.064 -34.752  1.00  0.00     0.020 A 
BRANCH  17  22
HETATM   22  O   UNL     1      -4.634  -0.564 -33.393  1.00  0.00    -0.355 OA
HETATM   23  C   UNL     1      -3.298  -0.671 -32.894  1.00  0.00     0.210 C 
ENDBRANCH  17  22
ENDBRANCH  13  16
ENDBRANCH  10  12
ENDBRANCH   8  10
ENDBRANCH   5   8
BRANCH   1  24
HETATM   24  N   UNL     1      -4.838   5.205 -31.076  1.00  0.00    -0.376 N 
HETATM   25  C   UNL     1      -5.020   6.237 -30.034  1.00  0.00     0.143 C 
HETATM   26  C   UNL     1      -3.724   7.066 -29.900  1.00  0.00     0.145 C 
HETATM   27  N   UNL     1      -3.240   7.601 -31.184  1.00  0.00    -0.349 N 
HETATM   28  C   UNL     1      -2.332   8.653 -31.287  1.00  0.00     0.219 C 
HETATM   29  C   UNL     1      -3.258   6.655 -32.307  1.00  0.00     0.145 C 
HETATM   30  O   UNL     1      -1.804   8.951 -32.360  1.00  0.00    -0.273 OA
HETATM   31  C   UNL     1      -4.538   5.812 -32.390  1.00  0.00     0.143 C 
BRANCH  28  32
HETATM   32  C   UNL     1      -2.019   9.423 -30.013  1.00  0.00     0.103 C 
BRANCH  32  33
HETATM   33  C   UNL     1      -2.597  10.838 -30.048  1.00  0.00     0.005 C 
HETATM   34  C   UNL     1      -3.892  10.936 -29.258  1.00  0.00     0.005 C 
ENDBRANCH  32  33
ENDBRANCH  28  32
ENDBRANCH   1  24
TORSDOF 8
ENDMDL
MODEL 7
REMARK VINA RESULT:      -7.7      2.959      8.651
REMARK  8 active torsions:
REMARK  status: ('A' for Active; 'I' for Inactive)
REMARK    1  A    between atoms: C_2  and  C_3 
REMARK    2  A    between atoms: C_3  and  C_4 
REMARK       I    between atoms: C_4  and  N_5 
REMARK    3  A    between atoms: N_8  and  C_9 
REMARK    4  A    between atoms: C_13  and  N_14 
REMARK    5  A    between atoms: N_14  and  C_15 
REMARK    6  A    between atoms: C_15  and  N_16 
REMARK       I    between atoms: N_16  and  C_17 
REMARK    7  A    between atoms: C_17  and  C_18 
REMARK    8  A    between atoms: C_19  and  O_20 
ROOT
HETATM    1  C   UNL     1      -5.503   2.423 -31.554  1.00  0.00     0.052 A 
HETATM    2  C   UNL     1      -5.924   3.478 -32.400  1.00  0.00     0.062 A 
HETATM    3 CL   UNL     1      -5.989   3.304 -34.128  1.00  0.00    -0.082 Cl
HETATM    4  C   UNL     1      -6.213   4.760 -31.899  1.00  0.00     0.055 A 
HETATM    5  C   UNL     1      -6.014   5.044 -30.551  1.00  0.00     0.036 A 
HETATM    6  C   UNL     1      -5.653   4.010 -29.693  1.00  0.00     0.032 A 
HETATM    7  C   UNL     1      -5.412   2.724 -30.185  1.00  0.00     0.033 A 
ENDROOT
BRANCH   5   8
HETATM    8  N   UNL     1      -6.221   6.360 -30.093  1.00  0.00    -0.333 N 
HETATM    9  H   UNL     1      -7.011   6.513 -29.465  1.00  0.00     0.168 HD
BRANCH   8  10
HETATM   10  C   UNL     1      -5.658   7.522 -30.571  1.00  0.00     0.179 C 
HETATM   11  S   UNL     1      -6.435   8.903 -31.118  1.00  0.00    -0.040 SA
BRANCH  10  12
HETATM   12  N   UNL     1      -4.281   7.552 -30.585  1.00  0.00    -0.299 N 
HETATM   13  C   UNL     1      -3.388   7.091 -29.632  1.00  0.00     0.260 C 
HETATM   14  O   UNL     1      -3.675   7.004 -28.440  1.00  0.00    -0.267 OA
HETATM   15  H   UNL     1      -3.904   7.738 -31.507  1.00  0.00     0.171 HD
BRANCH  13  16
HETATM   16  C   UNL     1      -2.011   6.741 -30.120  1.00  0.00     0.065 A 
HETATM   17  C   UNL     1      -1.729   5.681 -31.006  1.00  0.00     0.084 A 
HETATM   18  C   UNL     1      -0.408   5.426 -31.397  1.00  0.00     0.038 A 
HETATM   19  C   UNL     1       0.640   6.183 -30.876  1.00  0.00     0.003 A 
HETATM   20  C   UNL     1       0.375   7.213 -29.979  1.00  0.00     0.001 A 
HETATM   21  C   UNL     1      -0.941   7.494 -29.606  1.00  0.00     0.020 A 
BRANCH  17  22
HETATM   22  O   UNL     1      -2.761   4.954 -31.546  1.00  0.00    -0.355 OA
HETATM   23  C   UNL     1      -2.493   4.484 -32.871  1.00  0.00     0.210 C 
ENDBRANCH  17  22
ENDBRANCH  13  16
ENDBRANCH  10  12
ENDBRANCH   8  10
ENDBRANCH   5   8
BRANCH   1  24
HETATM   24  N   UNL     1      -5.124   1.164 -32.043  1.00  0.00    -0.376 N 
HETATM   25  C   UNL     1      -6.062   0.510 -32.980  1.00  0.00     0.143 C 
HETATM   26  C   UNL     1      -5.311  -0.570 -33.788  1.00  0.00     0.145 C 
HETATM   27  N   UNL     1      -4.564  -1.517 -32.941  1.00  0.00    -0.349 N 
HETATM   28  C   UNL     1      -4.121  -2.762 -33.384  1.00  0.00     0.219 C 
HETATM   29  C   UNL     1      -3.792  -0.910 -31.849  1.00  0.00     0.145 C 
HETATM   30  O   UNL     1      -3.342  -3.447 -32.719  1.00  0.00    -0.273 OA
HETATM   31  C   UNL     1      -4.545   0.191 -31.092  1.00  0.00     0.143 C 
BRANCH  28  32
HETATM   32  C   UNL     1      -4.645  -3.244 -34.728  1.00  0.00     0.103 C 
BRANCH  32  33
HETATM   33  C   UNL     1      -5.396  -4.570 -34.603  1.00  0.00     0.005 C 
HETATM   34  C   UNL     1      -6.726  -4.534 -35.336  1.00  0.00     0.005 C 
ENDBRANCH  32  33
ENDBRANCH  28  32
ENDBRANCH   1  24
TORSDOF 8
ENDMDL
MODEL 8
REMARK VINA RESULT:      -7.6      3.221      9.893
REMARK  8 active torsions:
REMARK  status: ('A' for Active; 'I' for Inactive)
REMARK    1  A    between atoms: C_2  and  C_3 
REMARK    2  A    between atoms: C_3  and  C_4 
REMARK       I    between atoms: C_4  and  N_5 
REMARK    3  A    between atoms: N_8  and  C_9 
REMARK    4  A    between atoms: C_13  and  N_14 
REMARK    5  A    between atoms: N_14  and  C_15 
REMARK    6  A    between atoms: C_15  and  N_16 
REMARK       I    between atoms: N_16  and  C_17 
REMARK    7  A    between atoms: C_17  and  C_18 
REMARK    8  A    between atoms: C_19  and  O_20 
ROOT
HETATM    1  C   UNL     1      -4.641   2.545 -31.347  1.00  0.00     0.052 A 
HETATM    2  C   UNL     1      -3.900   3.667 -31.793  1.00  0.00     0.062 A 
HETATM    3 CL   UNL     1      -2.672   3.534 -33.017  1.00  0.00    -0.082 Cl
HETATM    4  C   UNL     1      -4.041   4.933 -31.196  1.00  0.00     0.055 A 
HETATM    5  C   UNL     1      -4.868   5.095 -30.088  1.00  0.00     0.036 A 
HETATM    6  C   UNL     1      -5.645   4.020 -29.668  1.00  0.00     0.032 A 
HETATM    7  C   UNL     1      -5.539   2.774 -30.292  1.00  0.00     0.033 A 
ENDROOT
BRANCH   5   8
HETATM    8  N   UNL     1      -4.919   6.350 -29.452  1.00  0.00    -0.333 N 
HETATM    9  H   UNL     1      -5.779   6.582 -28.952  1.00  0.00     0.168 HD
BRANCH   8  10
HETATM   10  C   UNL     1      -4.069   7.420 -29.619  1.00  0.00     0.179 C 
HETATM   11  S   UNL     1      -4.254   8.746 -30.628  1.00  0.00    -0.040 SA
BRANCH  10  12
HETATM   12  N   UNL     1      -2.931   7.399 -28.845  1.00  0.00    -0.299 N 
HETATM   13  C   UNL     1      -1.611   7.239 -29.236  1.00  0.00     0.260 C 
HETATM   14  O   UNL     1      -1.290   6.639 -30.260  1.00  0.00    -0.267 OA
HETATM   15  H   UNL     1      -3.085   7.765 -27.912  1.00  0.00     0.171 HD
BRANCH  13  16
HETATM   16  C   UNL     1      -0.567   7.799 -28.312  1.00  0.00     0.065 A 
HETATM   17  C   UNL     1      -0.482   9.156 -27.942  1.00  0.00     0.084 A 
HETATM   18  C   UNL     1       0.537   9.587 -27.081  1.00  0.00     0.038 A 
HETATM   19  C   UNL     1       1.499   8.688 -26.624  1.00  0.00     0.003 A 
HETATM   20  C   UNL     1       1.440   7.351 -27.006  1.00  0.00     0.001 A 
HETATM   21  C   UNL     1       0.412   6.908 -27.841  1.00  0.00     0.020 A 
BRANCH  17  22
HETATM   22  O   UNL     1      -1.446  10.039 -28.364  1.00  0.00    -0.355 OA
HETATM   23  C   UNL     1      -2.240  10.566 -27.297  1.00  0.00     0.210 C 
ENDBRANCH  17  22
ENDBRANCH  13  16
ENDBRANCH  10  12
ENDBRANCH   8  10
ENDBRANCH   5   8
BRANCH   1  24
HETATM   24  N   UNL     1      -4.450   1.256 -31.867  1.00  0.00    -0.376 N 
HETATM   25  C   UNL     1      -5.502   0.747 -32.772  1.00  0.00     0.143 C 
HETATM   26  C   UNL     1      -4.932  -0.409 -33.623  1.00  0.00     0.145 C 
HETATM   27  N   UNL     1      -4.285  -1.460 -32.819  1.00  0.00    -0.349 N 
HETATM   28  C   UNL     1      -4.028  -2.745 -33.294  1.00  0.00     0.219 C 
HETATM   29  C   UNL     1      -3.398  -0.979 -31.752  1.00  0.00     0.145 C 
HETATM   30  O   UNL     1      -3.320  -3.537 -32.669  1.00  0.00    -0.273 OA
HETATM   31  C   UNL     1      -3.969   0.199 -30.951  1.00  0.00     0.143 C 
BRANCH  28  32
HETATM   32  C   UNL     1      -4.662  -3.130 -34.621  1.00  0.00     0.103 C 
BRANCH  32  33
HETATM   33  C   UNL     1      -5.404  -4.464 -34.530  1.00  0.00     0.005 C 
HETATM   34  C   UNL     1      -6.570  -4.527 -35.503  1.00  0.00     0.005 C 
ENDBRANCH  32  33
ENDBRANCH  28  32
ENDBRANCH   1  24
TORSDOF 8
ENDMDL
MODEL 9
REMARK VINA RESULT:      -7.5      2.930      9.656
REMARK  8 active torsions:
REMARK  status: ('A' for Active; 'I' for Inactive)
REMARK    1  A    between atoms: C_2  and  C_3 
REMARK    2  A    between atoms: C_3  and  C_4 
REMARK       I    between atoms: C_4  and  N_5 
REMARK    3  A    between atoms: N_8  and  C_9 
REMARK    4  A    between atoms: C_13  and  N_14 
REMARK    5  A    between atoms: N_14  and  C_15 
REMARK    6  A    between atoms: C_15  and  N_16 
REMARK       I    between atoms: N_16  and  C_17 
REMARK    7  A    between atoms: C_17  and  C_18 
REMARK    8  A    between atoms: C_19  and  O_20 
ROOT
HETATM    1  C   UNL     1      -5.078   2.973 -31.261  1.00  0.00     0.052 A 
HETATM    2  C   UNL     1      -4.216   4.064 -31.534  1.00  0.00     0.062 A 
HETATM    3 CL   UNL     1      -2.933   3.955 -32.701  1.00  0.00    -0.082 Cl
HETATM    4  C   UNL     1      -4.280   5.262 -30.799  1.00  0.00     0.055 A 
HETATM    5  C   UNL     1      -5.156   5.375 -29.723  1.00  0.00     0.036 A 
HETATM    6  C   UNL     1      -6.048   4.338 -29.471  1.00  0.00     0.032 A 
HETATM    7  C   UNL     1      -6.015   3.166 -30.232  1.00  0.00     0.033 A 
ENDROOT
BRANCH   5   8
HETATM    8  N   UNL     1      -5.135   6.550 -28.947  1.00  0.00    -0.333 N 
HETATM    9  H   UNL     1      -5.613   6.519 -28.045  1.00  0.00     0.168 HD
BRANCH   8  10
HETATM   10  C   UNL     1      -4.776   7.819 -29.340  1.00  0.00     0.179 C 
HETATM   11  S   UNL     1      -5.653   8.906 -30.267  1.00  0.00    -0.040 SA
BRANCH  10  12
HETATM   12  N   UNL     1      -3.543   8.250 -28.901  1.00  0.00    -0.299 N 
HETATM   13  C   UNL     1      -2.772   7.769 -27.856  1.00  0.00     0.260 C 
HETATM   14  O   UNL     1      -3.257   7.199 -26.881  1.00  0.00    -0.267 OA
HETATM   15  H   UNL     1      -3.072   8.842 -29.576  1.00  0.00     0.171 HD
BRANCH  13  16
HETATM   16  C   UNL     1      -1.294   8.023 -27.943  1.00  0.00     0.065 A 
HETATM   17  C   UNL     1      -0.436   7.400 -28.872  1.00  0.00     0.084 A 
HETATM   18  C   UNL     1       0.934   7.694 -28.869  1.00  0.00     0.038 A 
HETATM   19  C   UNL     1       1.465   8.565 -27.920  1.00  0.00     0.003 A 
HETATM   20  C   UNL     1       0.631   9.164 -26.981  1.00  0.00     0.001 A 
HETATM   21  C   UNL     1      -0.740   8.899 -26.994  1.00  0.00     0.020 A 
BRANCH  17  22
HETATM   22  O   UNL     1      -0.960   6.566 -29.829  1.00  0.00    -0.355 OA
HETATM   23  C   UNL     1      -0.908   7.113 -31.150  1.00  0.00     0.210 C 
ENDBRANCH  17  22
ENDBRANCH  13  16
ENDBRANCH  10  12
ENDBRANCH   8  10
ENDBRANCH   5   8
BRANCH   1  24
HETATM   24  N   UNL     1      -4.971   1.739 -31.918  1.00  0.00    -0.376 N 
HETATM   25  C   UNL     1      -6.145   1.306 -32.705  1.00  0.00     0.143 C 
HETATM   26  C   UNL     1      -5.709   0.238 -33.732  1.00  0.00     0.145 C 
HETATM   27  N   UNL     1      -4.957  -0.877 -33.129  1.00  0.00    -0.349 N 
HETATM   28  C   UNL     1      -4.777  -2.110 -33.752  1.00  0.00     0.219 C 
HETATM   29  C   UNL     1      -3.922  -0.487 -32.162  1.00  0.00     0.145 C 
HETATM   30  O   UNL     1      -3.990  -2.951 -33.311  1.00  0.00    -0.273 OA
HETATM   31  C   UNL     1      -4.367   0.607 -31.183  1.00  0.00     0.143 C 
BRANCH  28  32
HETATM   32  C   UNL     1      -5.598  -2.379 -35.003  1.00  0.00     0.103 C 
BRANCH  32  33
HETATM   33  C   UNL     1      -6.710  -3.397 -34.745  1.00  0.00     0.005 C 
HETATM   34  C   UNL     1      -6.418  -4.730 -35.413  1.00  0.00     0.005 C 
ENDBRANCH  32  33
ENDBRANCH  28  32
ENDBRANCH   1  24
TORSDOF 8
ENDMDL
MODEL 10
REMARK VINA RESULT:      -7.2      2.111      2.615
REMARK  8 active torsions:
REMARK  status: ('A' for Active; 'I' for Inactive)
REMARK    1  A    between atoms: C_2  and  C_3 
REMARK    2  A    between atoms: C_3  and  C_4 
REMARK       I    between atoms: C_4  and  N_5 
REMARK    3  A    between atoms: N_8  and  C_9 
REMARK    4  A    between atoms: C_13  and  N_14 
REMARK    5  A    between atoms: N_14  and  C_15 
REMARK    6  A    between atoms: C_15  and  N_16 
REMARK       I    between atoms: N_16  and  C_17 
REMARK    7  A    between atoms: C_17  and  C_18 
REMARK    8  A    between atoms: C_19  and  O_20 
ROOT
HETATM    1  C   UNL     1      -5.748   5.570 -31.903  1.00  0.00     0.052 A 
HETATM    2  C   UNL     1      -6.746   5.673 -30.903  1.00  0.00     0.062 A 
HETATM    3 CL   UNL     1      -6.350   5.834 -29.218  1.00  0.00    -0.082 Cl
HETATM    4  C   UNL     1      -8.114   5.544 -31.205  1.00  0.00     0.055 A 
HETATM    5  C   UNL     1      -8.517   5.233 -32.501  1.00  0.00     0.036 A 
HETATM    6  C   UNL     1      -7.559   5.180 -33.508  1.00  0.00     0.032 A 
HETATM    7  C   UNL     1      -6.203   5.355 -33.214  1.00  0.00     0.033 A 
ENDROOT
BRANCH   5   8
HETATM    8  N   UNL     1      -9.885   5.017 -32.756  1.00  0.00    -0.333 N 
HETATM    9  H   UNL     1     -10.428   5.818 -33.082  1.00  0.00     0.168 HD
BRANCH   8  10
HETATM   10  C   UNL     1     -10.656   3.938 -32.389  1.00  0.00     0.179 C 
HETATM   11  S   UNL     1     -12.234   3.934 -31.821  1.00  0.00    -0.040 SA
BRANCH  10  12
HETATM   12  N   UNL     1     -10.054   2.706 -32.520  1.00  0.00    -0.299 N 
HETATM   13  C   UNL     1      -9.457   2.140 -33.634  1.00  0.00     0.260 C 
HETATM   14  O   UNL     1      -9.772   2.445 -34.783  1.00  0.00    -0.267 OA
HETATM   15  H   UNL     1      -9.842   2.277 -31.626  1.00  0.00     0.171 HD
BRANCH  13  16
HETATM   16  C   UNL     1      -8.423   1.082 -33.374  1.00  0.00     0.065 A 
HETATM   17  C   UNL     1      -7.571   1.065 -32.252  1.00  0.00     0.084 A 
HETATM   18  C   UNL     1      -6.629   0.039 -32.101  1.00  0.00     0.038 A 
HETATM   19  C   UNL     1      -6.493  -0.942 -33.081  1.00  0.00     0.003 A 
HETATM   20  C   UNL     1      -7.310  -0.918 -34.208  1.00  0.00     0.001 A 
HETATM   21  C   UNL     1      -8.272   0.084 -34.352  1.00  0.00     0.020 A 
BRANCH  17  22
HETATM   22  O   UNL     1      -7.723   2.011 -31.268  1.00  0.00    -0.355 OA
HETATM   23  C   UNL     1      -6.642   2.036 -30.330  1.00  0.00     0.210 C 
ENDBRANCH  17  22
ENDBRANCH  13  16
ENDBRANCH  10  12
ENDBRANCH   8  10
ENDBRANCH   5   8
BRANCH   1  24
HETATM   24  N   UNL     1      -4.376   5.604 -31.611  1.00  0.00    -0.376 N 
HETATM   25  C   UNL     1      -3.736   6.936 -31.608  1.00  0.00     0.143 C 
HETATM   26  C   UNL     1      -2.417   6.870 -30.807  1.00  0.00     0.145 C 
HETATM   27  N   UNL     1      -1.522   5.784 -31.247  1.00  0.00    -0.349 N 
HETATM   28  C   UNL     1      -0.162   5.740 -30.951  1.00  0.00     0.219 C 
HETATM   29  C   UNL     1      -2.174   4.488 -31.480  1.00  0.00     0.145 C 
HETATM   30  O   UNL     1       0.516   4.733 -31.168  1.00  0.00    -0.273 OA
HETATM   31  C   UNL     1      -3.504   4.588 -32.238  1.00  0.00     0.143 C 
BRANCH  28  32
HETATM   32  C   UNL     1       0.455   6.992 -30.347  1.00  0.00     0.103 C 
BRANCH  32  33
HETATM   33  C   UNL     1       0.620   6.870 -28.831  1.00  0.00     0.005 C 
HETATM   34  C   UNL     1       1.141   8.158 -28.217  1.00  0.00     0.005 C 
ENDBRANCH  32  33
ENDBRANCH  28  32
ENDBRANCH   1  24
TORSDOF 8
ENDMDL
