MODEL 1
REMARK VINA RESULT:      -8.5      0.000      0.000
REMARK  10 active torsions:
REMARK  status: ('A' for Active; 'I' for Inactive)
REMARK    1  A    between atoms: C_2  and  O_3 
REMARK    2  A    between atoms: O_3  and  C_4 
REMARK    3  A    between atoms: C_4  and  C_5 
REMARK    4  A    between atoms: C_6  and  C_7 
REMARK    5  A    between atoms: C_16  and  C_17 
REMARK    6  A    between atoms: C_17  and  C_18 
REMARK       I    between atoms: C_18  and  N_19 
REMARK    7  A    between atoms: N_19  and  C_20 
REMARK    8  A    between atoms: C_20  and  C_21 
REMARK    9  A    between atoms: C_21  and  N_22 
REMARK   10  A    between atoms: C_31  and  C_32 
ROOT
HETATM    1  C   UNL     1      -5.273   2.748 -33.457  1.00  0.00     0.075 C 
HETATM    2  C   UNL     1      -6.680   2.264 -33.890  1.00  0.00     0.151 C 
HETATM    3  N   UNL     1      -7.823   3.000 -33.440  1.00  0.00    -0.321 N 
HETATM    4  C   UNL     1      -9.052   2.747 -33.144  1.00  0.00     0.011 C 
HETATM    5  C   UNL     1      -7.572   4.449 -33.759  1.00  0.00     0.170 C 
HETATM    6  S   UNL     1      -9.010   5.397 -33.664  1.00  0.00    -0.086 SA
HETATM    7  C   UNL     1      -9.935   3.969 -33.004  1.00  0.00     0.135 C 
HETATM    8  N   UNL     1      -6.427   4.870 -34.144  1.00  0.00    -0.219 NA
HETATM    9  C   UNL     1      -5.240   4.096 -33.991  1.00  0.00     0.157 C 
ENDROOT
BRANCH   4  10
HETATM   10  C   UNL     1      -9.581   1.342 -33.126  1.00  0.00     0.156 C 
BRANCH  10  11
HETATM   11  C   UNL     1     -10.887   1.150 -33.868  1.00  0.00     0.223 C 
HETATM   12  N   UNL     1     -11.874   0.528 -33.146  1.00  0.00    -0.359 N 
HETATM   13  H   UNL     1     -11.661   0.193 -32.208  1.00  0.00     0.162 HD
HETATM   14  O   UNL     1     -11.059   1.552 -35.015  1.00  0.00    -0.273 OA
BRANCH  12  15
HETATM   15  C   UNL     1     -13.141   0.060 -33.711  1.00  0.00     0.150 C 
BRANCH  15  16
HETATM   16  C   UNL     1     -14.285   1.098 -33.734  1.00  0.00     0.253 C 
BRANCH  16  17
HETATM   17  N   UNL     1     -14.288   1.988 -32.507  1.00  0.00    -0.077 N 
HETATM   18  H   UNL     1     -13.688   1.528 -31.794  1.00  0.00     0.279 HD
HETATM   19  C   UNL     1     -13.686   3.345 -32.749  1.00  0.00     0.269 C 
HETATM   20  C   UNL     1     -15.663   2.111 -31.910  1.00  0.00     0.269 C 
ENDBRANCH  16  17
ENDBRANCH  15  16
ENDBRANCH  12  15
ENDBRANCH  10  11
ENDBRANCH   4  10
BRANCH   2  21
HETATM   21  C   UNL     1      -6.171   1.232 -33.049  1.00  0.00     0.044 C 
HETATM   22  C   UNL     1      -7.594   0.061 -33.151  1.00  0.00    -0.068 C 
HETATM   23  C   UNL     1      -7.531  -1.198 -33.948  1.00  0.00     0.044 C 
HETATM   24  C   UNL     1      -8.981   0.420 -32.116  1.00  0.00     0.004 C 
HETATM   25  C   UNL     1      -8.929   1.798 -30.969  1.00  0.00     0.007 C 
HETATM   26  C   UNL     1      -7.448   2.806 -30.750  1.00  0.00    -0.065 C 
HETATM   27  C   UNL     1      -7.375   3.773 -29.605  1.00  0.00     0.048 C 
HETATM   28  C   UNL     1      -6.000   2.497 -31.714  1.00  0.00    -0.002 C 
ENDBRANCH   2  21
BRANCH   1  29
HETATM   29  C   UNL     1      -4.235   1.200 -32.405  1.00  0.00     0.293 C 
HETATM   30  O   UNL     1      -3.803   1.256 -31.215  1.00  0.00    -0.259 OA
BRANCH  29  31
HETATM   31  O   UNL     1      -3.887  -0.102 -32.913  1.00  0.00    -0.318 OA
BRANCH  31  32
HETATM   32  C   UNL     1      -3.576  -1.186 -32.010  1.00  0.00     0.174 C 
HETATM   33  C   UNL     1      -3.775  -2.513 -32.712  1.00  0.00     0.034 C 
ENDBRANCH  31  32
ENDBRANCH  29  31
ENDBRANCH   1  29
BRANCH   9  34
HETATM   34  C   UNL     1      -4.044   5.077 -34.302  1.00  0.00     0.435 C 
HETATM   35  F   UNL     1      -3.972   5.320 -35.645  1.00  0.00    -0.165 F 
HETATM   36  F   UNL     1      -4.207   6.291 -33.720  1.00  0.00    -0.165 F 
HETATM   37  F   UNL     1      -2.823   4.591 -33.977  1.00  0.00    -0.165 F 
ENDBRANCH   9  34
TORSDOF 10
ENDMDL
MODEL 2
REMARK VINA RESULT:      -8.5      4.473      8.274
REMARK  10 active torsions:
REMARK  status: ('A' for Active; 'I' for Inactive)
REMARK    1  A    between atoms: C_2  and  O_3 
REMARK    2  A    between atoms: O_3  and  C_4 
REMARK    3  A    between atoms: C_4  and  C_5 
REMARK    4  A    between atoms: C_6  and  C_7 
REMARK    5  A    between atoms: C_16  and  C_17 
REMARK    6  A    between atoms: C_17  and  C_18 
REMARK       I    between atoms: C_18  and  N_19 
REMARK    7  A    between atoms: N_19  and  C_20 
REMARK    8  A    between atoms: C_20  and  C_21 
REMARK    9  A    between atoms: C_21  and  N_22 
REMARK   10  A    between atoms: C_31  and  C_32 
ROOT
HETATM    1  C   UNL     1      -6.498  -0.484 -33.913  1.00  0.00     0.075 C 
HETATM    2  C   UNL     1      -5.454   0.642 -33.702  1.00  0.00     0.151 C 
HETATM    3  N   UNL     1      -4.533   0.521 -32.612  1.00  0.00    -0.321 N 
HETATM    4  C   UNL     1      -3.899   1.316 -31.819  1.00  0.00     0.011 C 
HETATM    5  C   UNL     1      -3.917  -0.849 -32.700  1.00  0.00     0.170 C 
HETATM    6  S   UNL     1      -2.501  -0.993 -31.724  1.00  0.00    -0.086 SA
HETATM    7  C   UNL     1      -2.794   0.663 -31.015  1.00  0.00     0.135 C 
HETATM    8  N   UNL     1      -4.368  -1.746 -33.492  1.00  0.00    -0.219 NA
HETATM    9  C   UNL     1      -5.654  -1.648 -34.099  1.00  0.00     0.157 C 
ENDROOT
BRANCH   4  10
HETATM   10  C   UNL     1      -4.135   2.799 -31.842  1.00  0.00     0.156 C 
BRANCH  10  11
HETATM   11  C   UNL     1      -2.923   3.625 -32.219  1.00  0.00     0.223 C 
HETATM   12  N   UNL     1      -2.239   4.161 -31.157  1.00  0.00    -0.359 N 
HETATM   13  H   UNL     1      -2.606   4.028 -30.217  1.00  0.00     0.162 HD
HETATM   14  O   UNL     1      -2.559   3.771 -33.383  1.00  0.00    -0.273 OA
BRANCH  12  15
HETATM   15  C   UNL     1      -1.164   5.148 -31.280  1.00  0.00     0.150 C 
BRANCH  15  16
HETATM   16  C   UNL     1      -0.100   5.118 -30.162  1.00  0.00     0.253 C 
BRANCH  16  17
HETATM   17  N   UNL     1      -0.569   5.806 -28.895  1.00  0.00    -0.077 N 
HETATM   18  H   UNL     1      -1.213   5.150 -28.411  1.00  0.00     0.279 HD
HETATM   19  C   UNL     1       0.544   6.096 -27.924  1.00  0.00     0.269 C 
HETATM   20  C   UNL     1      -1.355   7.053 -29.194  1.00  0.00     0.269 C 
ENDBRANCH  16  17
ENDBRANCH  15  16
ENDBRANCH  12  15
ENDBRANCH  10  11
ENDBRANCH   4  10
BRANCH   2  21
HETATM   21  C   UNL     1      -6.717   1.252 -33.451  1.00  0.00     0.044 C 
HETATM   22  C   UNL     1      -6.134   2.969 -33.103  1.00  0.00    -0.068 C 
HETATM   23  C   UNL     1      -6.314   4.081 -34.080  1.00  0.00     0.044 C 
HETATM   24  C   UNL     1      -5.503   3.269 -31.480  1.00  0.00     0.004 C 
HETATM   25  C   UNL     1      -5.538   1.978 -30.236  1.00  0.00     0.007 C 
HETATM   26  C   UNL     1      -6.295   0.369 -30.546  1.00  0.00    -0.065 C 
HETATM   27  C   UNL     1      -6.525  -0.573 -29.401  1.00  0.00     0.048 C 
HETATM   28  C   UNL     1      -6.986  -0.009 -32.127  1.00  0.00    -0.002 C 
ENDBRANCH   2  21
BRANCH   1  29
HETATM   29  C   UNL     1      -8.484   0.313 -33.848  1.00  0.00     0.293 C 
HETATM   30  O   UNL     1      -9.448  -0.124 -33.150  1.00  0.00    -0.259 OA
BRANCH  29  31
HETATM   31  O   UNL     1      -8.985   1.440 -34.590  1.00  0.00    -0.318 OA
BRANCH  31  32
HETATM   32  C   UNL     1     -10.241   2.057 -34.233  1.00  0.00     0.174 C 
HETATM   33  C   UNL     1      -9.998   3.469 -33.739  1.00  0.00     0.034 C 
ENDBRANCH  31  32
ENDBRANCH  29  31
ENDBRANCH   1  29
BRANCH   9  34
HETATM   34  C   UNL     1      -5.937  -3.063 -34.737  1.00  0.00     0.435 C 
HETATM   35  F   UNL     1      -5.519  -3.086 -36.037  1.00  0.00    -0.165 F 
HETATM   36  F   UNL     1      -5.253  -4.055 -34.116  1.00  0.00    -0.165 F 
HETATM   37  F   UNL     1      -7.248  -3.398 -34.794  1.00  0.00    -0.165 F 
ENDBRANCH   9  34
TORSDOF 10
ENDMDL
MODEL 3
REMARK VINA RESULT:      -8.4      4.387      8.041
REMARK  10 active torsions:
REMARK  status: ('A' for Active; 'I' for Inactive)
REMARK    1  A    between atoms: C_2  and  O_3 
REMARK    2  A    between atoms: O_3  and  C_4 
REMARK    3  A    between atoms: C_4  and  C_5 
REMARK    4  A    between atoms: C_6  and  C_7 
REMARK    5  A    between atoms: C_16  and  C_17 
REMARK    6  A    between atoms: C_17  and  C_18 
REMARK       I    between atoms: C_18  and  N_19 
REMARK    7  A    between atoms: N_19  and  C_20 
REMARK    8  A    between atoms: C_20  and  C_21 
REMARK    9  A    between atoms: C_21  and  N_22 
REMARK   10  A    between atoms: C_31  and  C_32 
ROOT
HETATM    1  C   UNL     1      -6.566  -0.540 -33.885  1.00  0.00     0.075 C 
HETATM    2  C   UNL     1      -5.521   0.595 -33.737  1.00  0.00     0.151 C 
HETATM    3  N   UNL     1      -4.569   0.511 -32.671  1.00  0.00    -0.321 N 
HETATM    4  C   UNL     1      -3.917   1.331 -31.919  1.00  0.00     0.011 C 
HETATM    5  C   UNL     1      -3.949  -0.860 -32.735  1.00  0.00     0.170 C 
HETATM    6  S   UNL     1      -2.506  -0.969 -31.796  1.00  0.00    -0.086 SA
HETATM    7  C   UNL     1      -2.787   0.706 -31.128  1.00  0.00     0.135 C 
HETATM    8  N   UNL     1      -4.419  -1.781 -33.488  1.00  0.00    -0.219 NA
HETATM    9  C   UNL     1      -5.722  -1.706 -34.060  1.00  0.00     0.157 C 
ENDROOT
BRANCH   4  10
HETATM   10  C   UNL     1      -4.160   2.812 -31.979  1.00  0.00     0.156 C 
BRANCH  10  11
HETATM   11  C   UNL     1      -2.916   3.646 -32.201  1.00  0.00     0.223 C 
HETATM   12  N   UNL     1      -2.838   4.248 -33.431  1.00  0.00    -0.359 N 
HETATM   13  H   UNL     1      -3.564   4.059 -34.119  1.00  0.00     0.162 HD
HETATM   14  O   UNL     1      -2.062   3.802 -31.333  1.00  0.00    -0.273 OA
BRANCH  12  15
HETATM   15  C   UNL     1      -1.649   4.933 -33.942  1.00  0.00     0.150 C 
BRANCH  15  16
HETATM   16  C   UNL     1      -1.629   6.465 -33.753  1.00  0.00     0.253 C 
BRANCH  16  17
HETATM   17  N   UNL     1      -1.540   6.870 -32.295  1.00  0.00    -0.077 N 
HETATM   18  H   UNL     1      -2.133   6.208 -31.757  1.00  0.00     0.279 HD
HETATM   19  C   UNL     1      -0.154   6.752 -31.723  1.00  0.00     0.269 C 
HETATM   20  C   UNL     1      -2.099   8.248 -32.063  1.00  0.00     0.269 C 
ENDBRANCH  16  17
ENDBRANCH  15  16
ENDBRANCH  12  15
ENDBRANCH  10  11
ENDBRANCH   4  10
BRANCH   2  21
HETATM   21  C   UNL     1      -6.779   1.208 -33.468  1.00  0.00     0.044 C 
HETATM   22  C   UNL     1      -6.189   2.926 -33.141  1.00  0.00    -0.068 C 
HETATM   23  C   UNL     1      -6.385   4.032 -34.121  1.00  0.00     0.044 C 
HETATM   24  C   UNL     1      -5.530   3.236 -31.530  1.00  0.00     0.004 C 
HETATM   25  C   UNL     1      -5.545   1.953 -30.278  1.00  0.00     0.007 C 
HETATM   26  C   UNL     1      -6.308   0.343 -30.565  1.00  0.00    -0.065 C 
HETATM   27  C   UNL     1      -6.519  -0.592 -29.411  1.00  0.00     0.048 C 
HETATM   28  C   UNL     1      -7.027  -0.044 -32.132  1.00  0.00    -0.002 C 
ENDBRANCH   2  21
BRANCH   1  29
HETATM   29  C   UNL     1      -8.552   0.251 -33.787  1.00  0.00     0.293 C 
HETATM   30  O   UNL     1      -9.501  -0.183 -33.066  1.00  0.00    -0.259 OA
BRANCH  29  31
HETATM   31  O   UNL     1      -9.071   1.370 -34.529  1.00  0.00    -0.318 OA
BRANCH  31  32
HETATM   32  C   UNL     1     -10.313   1.999 -34.140  1.00  0.00     0.174 C 
HETATM   33  C   UNL     1     -10.026   3.310 -33.437  1.00  0.00     0.034 C 
ENDBRANCH  31  32
ENDBRANCH  29  31
ENDBRANCH   1  29
BRANCH   9  34
HETATM   34  C   UNL     1      -6.017  -3.141 -34.648  1.00  0.00     0.435 C 
HETATM   35  F   UNL     1      -7.298  -3.515 -34.356  1.00  0.00    -0.165 F 
HETATM   36  F   UNL     1      -5.926  -3.173 -36.000  1.00  0.00    -0.165 F 
HETATM   37  F   UNL     1      -5.246  -4.125 -34.129  1.00  0.00    -0.165 F 
ENDBRANCH   9  34
TORSDOF 10
ENDMDL
MODEL 4
REMARK VINA RESULT:      -8.3      1.008      1.189
REMARK  10 active torsions:
REMARK  status: ('A' for Active; 'I' for Inactive)
REMARK    1  A    between atoms: C_2  and  O_3 
REMARK    2  A    between atoms: O_3  and  C_4 
REMARK    3  A    between atoms: C_4  and  C_5 
REMARK    4  A    between atoms: C_6  and  C_7 
REMARK    5  A    between atoms: C_16  and  C_17 
REMARK    6  A    between atoms: C_17  and  C_18 
REMARK       I    between atoms: C_18  and  N_19 
REMARK    7  A    between atoms: N_19  and  C_20 
REMARK    8  A    between atoms: C_20  and  C_21 
REMARK    9  A    between atoms: C_21  and  N_22 
REMARK   10  A    between atoms: C_31  and  C_32 
ROOT
HETATM    1  C   UNL     1      -4.736   3.013 -33.339  1.00  0.00     0.075 C 
HETATM    2  C   UNL     1      -6.179   2.514 -33.610  1.00  0.00     0.151 C 
HETATM    3  N   UNL     1      -7.274   3.304 -33.131  1.00  0.00    -0.321 N 
HETATM    4  C   UNL     1      -8.476   3.096 -32.712  1.00  0.00     0.011 C 
HETATM    5  C   UNL     1      -7.039   4.717 -33.593  1.00  0.00     0.170 C 
HETATM    6  S   UNL     1      -8.456   5.691 -33.460  1.00  0.00    -0.086 SA
HETATM    7  C   UNL     1      -9.333   4.339 -32.604  1.00  0.00     0.135 C 
HETATM    8  N   UNL     1      -5.928   5.086 -34.107  1.00  0.00    -0.219 NA
HETATM    9  C   UNL     1      -4.739   4.310 -33.988  1.00  0.00     0.157 C 
ENDROOT
BRANCH   4  10
HETATM   10  C   UNL     1      -9.013   1.706 -32.528  1.00  0.00     0.156 C 
BRANCH  10  11
HETATM   11  C   UNL     1     -10.112   1.321 -33.496  1.00  0.00     0.223 C 
HETATM   12  N   UNL     1     -11.378   1.347 -32.968  1.00  0.00    -0.359 N 
HETATM   13  H   UNL     1     -11.495   1.558 -31.979  1.00  0.00     0.162 HD
HETATM   14  O   UNL     1      -9.890   1.045 -34.671  1.00  0.00    -0.273 OA
BRANCH  12  15
HETATM   15  C   UNL     1     -12.567   0.829 -33.648  1.00  0.00     0.150 C 
BRANCH  15  16
HETATM   16  C   UNL     1     -13.827   1.717 -33.560  1.00  0.00     0.253 C 
BRANCH  16  17
HETATM   17  N   UNL     1     -13.650   3.048 -34.264  1.00  0.00    -0.077 N 
HETATM   18  H   UNL     1     -14.590   3.349 -34.589  1.00  0.00     0.279 HD
HETATM   19  C   UNL     1     -13.147   4.142 -33.361  1.00  0.00     0.269 C 
HETATM   20  C   UNL     1     -12.782   2.922 -35.486  1.00  0.00     0.269 C 
ENDBRANCH  16  17
ENDBRANCH  15  16
ENDBRANCH  12  15
ENDBRANCH  10  11
ENDBRANCH   4  10
BRANCH   2  21
HETATM   21  C   UNL     1      -5.609   1.550 -32.729  1.00  0.00     0.044 C 
HETATM   22  C   UNL     1      -7.048   0.400 -32.604  1.00  0.00    -0.068 C 
HETATM   23  C   UNL     1      -7.067  -0.923 -33.291  1.00  0.00     0.044 C 
HETATM   24  C   UNL     1      -8.335   0.872 -31.489  1.00  0.00     0.004 C 
HETATM   25  C   UNL     1      -8.168   2.343 -30.476  1.00  0.00     0.007 C 
HETATM   26  C   UNL     1      -6.664   3.340 -30.475  1.00  0.00    -0.065 C 
HETATM   27  C   UNL     1      -6.480   4.401 -29.430  1.00  0.00     0.048 C 
HETATM   28  C   UNL     1      -5.309   2.923 -31.529  1.00  0.00    -0.002 C 
ENDBRANCH   2  21
BRANCH   1  29
HETATM   29  C   UNL     1      -3.626   1.543 -32.249  1.00  0.00     0.293 C 
HETATM   30  O   UNL     1      -2.908   1.748 -31.225  1.00  0.00    -0.259 OA
BRANCH  29  31
HETATM   31  O   UNL     1      -3.543   0.136 -32.540  1.00  0.00    -0.318 OA
BRANCH  31  32
HETATM   32  C   UNL     1      -2.827  -0.758 -31.659  1.00  0.00     0.174 C 
HETATM   33  C   UNL     1      -3.178  -2.194 -31.988  1.00  0.00     0.034 C 
ENDBRANCH  31  32
ENDBRANCH  29  31
ENDBRANCH   1  29
BRANCH   9  34
HETATM   34  C   UNL     1      -3.565   5.242 -34.482  1.00  0.00     0.435 C 
HETATM   35  F   UNL     1      -3.726   5.539 -35.806  1.00  0.00    -0.165 F 
HETATM   36  F   UNL     1      -3.550   6.436 -33.840  1.00  0.00    -0.165 F 
HETATM   37  F   UNL     1      -2.336   4.681 -34.404  1.00  0.00    -0.165 F 
ENDBRANCH   9  34
TORSDOF 10
ENDMDL
MODEL 5
REMARK VINA RESULT:      -7.9      2.925      4.773
REMARK  10 active torsions:
REMARK  status: ('A' for Active; 'I' for Inactive)
REMARK    1  A    between atoms: C_2  and  O_3 
REMARK    2  A    between atoms: O_3  and  C_4 
REMARK    3  A    between atoms: C_4  and  C_5 
REMARK    4  A    between atoms: C_6  and  C_7 
REMARK    5  A    between atoms: C_16  and  C_17 
REMARK    6  A    between atoms: C_17  and  C_18 
REMARK       I    between atoms: C_18  and  N_19 
REMARK    7  A    between atoms: N_19  and  C_20 
REMARK    8  A    between atoms: C_20  and  C_21 
REMARK    9  A    between atoms: C_21  and  N_22 
REMARK   10  A    between atoms: C_31  and  C_32 
ROOT
HETATM    1  C   UNL     1      -4.366   2.571 -32.593  1.00  0.00     0.075 C 
HETATM    2  C   UNL     1      -5.799   3.128 -32.396  1.00  0.00     0.151 C 
HETATM    3  N   UNL     1      -6.856   2.589 -33.199  1.00  0.00    -0.321 N 
HETATM    4  C   UNL     1      -7.965   3.009 -33.705  1.00  0.00     0.011 C 
HETATM    5  C   UNL     1      -6.782   1.090 -33.084  1.00  0.00     0.170 C 
HETATM    6  S   UNL     1      -8.221   0.321 -33.644  1.00  0.00    -0.086 SA
HETATM    7  C   UNL     1      -8.872   1.919 -34.236  1.00  0.00     0.135 C 
HETATM    8  N   UNL     1      -5.787   0.500 -32.539  1.00  0.00    -0.219 NA
HETATM    9  C   UNL     1      -4.547   1.162 -32.301  1.00  0.00     0.157 C 
ENDROOT
BRANCH   4  10
HETATM   10  C   UNL     1      -8.381   4.448 -33.598  1.00  0.00     0.156 C 
BRANCH  10  11
HETATM   11  C   UNL     1      -9.661   4.790 -34.330  1.00  0.00     0.223 C 
HETATM   12  N   UNL     1     -10.810   4.389 -33.696  1.00  0.00    -0.359 N 
HETATM   13  H   UNL     1     -10.736   3.854 -32.834  1.00  0.00     0.162 HD
HETATM   14  O   UNL     1      -9.671   5.411 -35.389  1.00  0.00    -0.273 OA
BRANCH  12  15
HETATM   15  C   UNL     1     -12.144   4.431 -34.299  1.00  0.00     0.150 C 
BRANCH  15  16
HETATM   16  C   UNL     1     -12.618   3.120 -34.963  1.00  0.00     0.253 C 
BRANCH  16  17
HETATM   17  N   UNL     1     -13.834   2.528 -34.279  1.00  0.00    -0.077 N 
HETATM   18  H   UNL     1     -14.672   2.909 -34.761  1.00  0.00     0.279 HD
HETATM   19  C   UNL     1     -13.922   1.031 -34.405  1.00  0.00     0.269 C 
HETATM   20  C   UNL     1     -13.925   2.950 -32.839  1.00  0.00     0.269 C 
ENDBRANCH  16  17
ENDBRANCH  15  16
ENDBRANCH  12  15
ENDBRANCH  10  11
ENDBRANCH   4  10
BRANCH   2  21
HETATM   21  C   UNL     1      -5.044   4.216 -32.921  1.00  0.00     0.044 C 
HETATM   22  C   UNL     1      -4.016   4.587 -31.433  1.00  0.00    -0.068 C 
HETATM   23  C   UNL     1      -2.571   4.228 -31.357  1.00  0.00     0.044 C 
HETATM   24  C   UNL     1      -4.789   5.546 -30.166  1.00  0.00     0.004 C 
HETATM   25  C   UNL     1      -6.447   6.190 -30.395  1.00  0.00     0.007 C 
HETATM   26  C   UNL     1      -7.353   5.978 -31.941  1.00  0.00    -0.065 C 
HETATM   27  C   UNL     1      -8.619   6.749 -32.169  1.00  0.00     0.048 C 
HETATM   28  C   UNL     1      -6.645   5.066 -33.279  1.00  0.00    -0.002 C 
ENDBRANCH   2  21
BRANCH   1  29
HETATM   29  C   UNL     1      -3.014   4.144 -33.119  1.00  0.00     0.293 C 
HETATM   30  O   UNL     1      -1.750   4.115 -33.025  1.00  0.00    -0.259 OA
BRANCH  29  31
HETATM   31  O   UNL     1      -3.362   5.440 -33.641  1.00  0.00    -0.318 OA
BRANCH  31  32
HETATM   32  C   UNL     1      -2.392   6.227 -34.367  1.00  0.00     0.174 C 
HETATM   33  C   UNL     1      -1.941   7.398 -33.518  1.00  0.00     0.034 C 
ENDBRANCH  31  32
ENDBRANCH  29  31
ENDBRANCH   1  29
BRANCH   9  34
HETATM   34  C   UNL     1      -3.522   0.027 -31.910  1.00  0.00     0.435 C 
HETATM   35  F   UNL     1      -4.192  -1.100 -31.526  1.00  0.00    -0.165 F 
HETATM   36  F   UNL     1      -2.745  -0.349 -32.956  1.00  0.00    -0.165 F 
HETATM   37  F   UNL     1      -2.729   0.330 -30.856  1.00  0.00    -0.165 F 
ENDBRANCH   9  34
TORSDOF 10
ENDMDL
MODEL 6
REMARK VINA RESULT:      -7.8      4.201      6.446
REMARK  10 active torsions:
REMARK  status: ('A' for Active; 'I' for Inactive)
REMARK    1  A    between atoms: C_2  and  O_3 
REMARK    2  A    between atoms: O_3  and  C_4 
REMARK    3  A    between atoms: C_4  and  C_5 
REMARK    4  A    between atoms: C_6  and  C_7 
REMARK    5  A    between atoms: C_16  and  C_17 
REMARK    6  A    between atoms: C_17  and  C_18 
REMARK       I    between atoms: C_18  and  N_19 
REMARK    7  A    between atoms: N_19  and  C_20 
REMARK    8  A    between atoms: C_20  and  C_21 
REMARK    9  A    between atoms: C_21  and  N_22 
REMARK   10  A    between atoms: C_31  and  C_32 
ROOT
HETATM    1  C   UNL     1      -2.445   6.739 -30.388  1.00  0.00     0.075 C 
HETATM    2  C   UNL     1      -3.759   6.235 -31.038  1.00  0.00     0.151 C 
HETATM    3  N   UNL     1      -4.853   5.889 -30.181  1.00  0.00    -0.321 N 
HETATM    4  C   UNL     1      -5.838   5.056 -30.197  1.00  0.00     0.011 C 
HETATM    5  C   UNL     1      -5.063   7.043 -29.238  1.00  0.00     0.170 C 
HETATM    6  S   UNL     1      -6.587   6.961 -28.434  1.00  0.00    -0.086 SA
HETATM    7  C   UNL     1      -6.901   5.312 -29.149  1.00  0.00     0.135 C 
HETATM    8  N   UNL     1      -4.223   8.003 -29.145  1.00  0.00    -0.219 NA
HETATM    9  C   UNL     1      -2.897   7.908 -29.659  1.00  0.00     0.157 C 
ENDROOT
BRANCH   4  10
HETATM   10  C   UNL     1      -5.986   4.038 -31.291  1.00  0.00     0.156 C 
BRANCH  10  11
HETATM   11  C   UNL     1      -6.897   2.877 -30.951  1.00  0.00     0.223 C 
HETATM   12  N   UNL     1      -8.092   2.866 -31.625  1.00  0.00    -0.359 N 
HETATM   13  H   UNL     1      -8.313   3.641 -32.247  1.00  0.00     0.162 HD
HETATM   14  O   UNL     1      -6.574   1.994 -30.161  1.00  0.00    -0.273 OA
BRANCH  12  15
HETATM   15  C   UNL     1      -9.204   1.964 -31.321  1.00  0.00     0.150 C 
BRANCH  15  16
HETATM   16  C   UNL     1      -9.103   0.550 -31.932  1.00  0.00     0.253 C 
BRANCH  16  17
HETATM   17  N   UNL     1      -9.720   0.468 -33.315  1.00  0.00    -0.077 N 
HETATM   18  H   UNL     1     -10.097  -0.493 -33.425  1.00  0.00     0.279 HD
HETATM   19  C   UNL     1     -10.884   1.401 -33.508  1.00  0.00     0.269 C 
HETATM   20  C   UNL     1      -8.693   0.663 -34.396  1.00  0.00     0.269 C 
ENDBRANCH  16  17
ENDBRANCH  15  16
ENDBRANCH  12  15
ENDBRANCH  10  11
ENDBRANCH   4  10
BRANCH   2  21
HETATM   21  C   UNL     1      -2.790   5.233 -31.329  1.00  0.00     0.044 C 
HETATM   22  C   UNL     1      -1.760   6.180 -32.533  1.00  0.00    -0.068 C 
HETATM   23  C   UNL     1      -0.416   6.718 -32.177  1.00  0.00     0.044 C 
HETATM   24  C   UNL     1      -2.375   6.273 -34.188  1.00  0.00     0.004 C 
HETATM   25  C   UNL     1      -3.867   5.396 -34.655  1.00  0.00     0.007 C 
HETATM   26  C   UNL     1      -4.744   4.317 -33.506  1.00  0.00    -0.065 C 
HETATM   27  C   UNL     1      -5.829   3.415 -34.018  1.00  0.00     0.048 C 
HETATM   28  C   UNL     1      -4.182   4.132 -31.841  1.00  0.00    -0.002 C 
ENDBRANCH   2  21
BRANCH   1  29
HETATM   29  C   UNL     1      -0.801   5.493 -30.957  1.00  0.00     0.293 C 
HETATM   30  O   UNL     1      -0.840   4.515 -31.762  1.00  0.00    -0.259 OA
BRANCH  29  31
HETATM   31  O   UNL     1       0.559   5.597 -30.495  1.00  0.00    -0.318 OA
BRANCH  31  32
HETATM   32  C   UNL     1       0.938   5.084 -29.198  1.00  0.00     0.174 C 
HETATM   33  C   UNL     1       0.408   5.997 -28.110  1.00  0.00     0.034 C 
ENDBRANCH  31  32
ENDBRANCH  29  31
ENDBRANCH   1  29
BRANCH   9  34
HETATM   34  C   UNL     1      -2.121   9.154 -29.080  1.00  0.00     0.435 C 
HETATM   35  F   UNL     1      -0.783   8.887 -29.016  1.00  0.00    -0.165 F 
HETATM   36  F   UNL     1      -2.238  10.248 -29.872  1.00  0.00    -0.165 F 
HETATM   37  F   UNL     1      -2.464   9.486 -27.813  1.00  0.00    -0.165 F 
ENDBRANCH   9  34
TORSDOF 10
ENDMDL
