MODEL 1
REMARK VINA RESULT:      -7.5      0.000      0.000
REMARK  3 active torsions:
REMARK  status: ('A' for Active; 'I' for Inactive)
REMARK    1  A    between atoms: C_2  and  C_3 
REMARK    2  A    between atoms: C_9  and  C_10 
REMARK    3  A    between atoms: C_21  and  N_22 
ROOT
HETATM    1  C   UNL     1      -4.688  -3.187 -34.223  1.00  0.00     0.066 A 
HETATM    2  N   UNL     1      -4.234  -4.369 -33.771  1.00  0.00    -0.177 NA
HETATM    3  N   UNL     1      -3.453  -4.048 -32.719  1.00  0.00    -0.256 N 
HETATM    4  H   UNL     1      -2.980  -4.791 -32.216  1.00  0.00     0.191 HD
HETATM    5  C   UNL     1      -3.392  -2.710 -32.502  1.00  0.00     0.175 A 
HETATM    6  C   UNL     1      -4.198  -2.116 -33.438  1.00  0.00     0.035 A 
HETATM    7  C   UNL     1      -4.329  -0.635 -33.474  1.00  0.00     0.104 A 
HETATM    8  C   UNL     1      -3.351  -0.000 -32.488  1.00  0.00     0.067 A 
HETATM    9  C   UNL     1      -3.165   1.504 -32.603  1.00  0.00     0.020 C 
HETATM   10  N   UNL     1      -3.010   2.752 -32.699  1.00  0.00    -0.096 N 
HETATM   11  C   UNL     1      -2.590  -0.717 -31.618  1.00  0.00     0.139 A 
HETATM   12  O   UNL     1      -2.652  -2.124 -31.567  1.00  0.00    -0.279 OA
ENDROOT
BRANCH   7  13
HETATM   13  C   UNL     1      -5.784  -0.333 -33.136  1.00  0.00    -0.043 A 
HETATM   14  C   UNL     1      -6.727   0.012 -34.125  1.00  0.00     0.033 A 
HETATM   15  C   UNL     1      -8.059   0.286 -33.792  1.00  0.00     0.056 A 
HETATM   16 CL   UNL     1      -9.135   0.714 -35.074  1.00  0.00    -0.083 Cl
HETATM   17  C   UNL     1      -8.472   0.208 -32.460  1.00  0.00     0.055 A 
HETATM   18 CL   UNL     1     -10.095   0.535 -31.970  1.00  0.00    -0.083 Cl
HETATM   19  C   UNL     1      -7.551  -0.145 -31.469  1.00  0.00     0.026 A 
HETATM   20  C   UNL     1      -6.221  -0.417 -31.805  1.00  0.00     0.010 A 
ENDBRANCH   7  13
BRANCH  11  21
HETATM   21  N   UNL     1      -1.687  -0.189 -30.725  1.00  0.00    -0.282 NA
HETATM   22  H   UNL     1      -0.846  -0.739 -30.567  1.00  0.00     0.126 HD
HETATM   23  H   UNL     1      -1.492   0.793 -30.908  1.00  0.00     0.126 HD
ENDBRANCH  11  21
BRANCH   1  24
HETATM   24  C   UNL     1      -5.573  -3.138 -35.424  1.00  0.00     0.057 C 
HETATM   25  C   UNL     1      -6.687  -4.171 -35.373  1.00  0.00     0.011 C 
ENDBRANCH   1  24
TORSDOF 3
ENDMDL
MODEL 2
REMARK VINA RESULT:      -7.4      5.246      7.393
REMARK  3 active torsions:
REMARK  status: ('A' for Active; 'I' for Inactive)
REMARK    1  A    between atoms: C_2  and  C_3 
REMARK    2  A    between atoms: C_9  and  C_10 
REMARK    3  A    between atoms: C_21  and  N_22 
ROOT
HETATM    1  C   UNL     1     -11.920   1.398 -34.417  1.00  0.00     0.066 A 
HETATM    2  N   UNL     1     -12.704   1.636 -35.484  1.00  0.00    -0.177 NA
HETATM    3  N   UNL     1     -12.226   2.787 -36.000  1.00  0.00    -0.256 N 
HETATM    4  H   UNL     1     -12.677   3.181 -36.819  1.00  0.00     0.191 HD
HETATM    5  C   UNL     1     -11.181   3.284 -35.291  1.00  0.00     0.175 A 
HETATM    6  C   UNL     1     -10.934   2.401 -34.272  1.00  0.00     0.035 A 
HETATM    7  C   UNL     1      -9.845   2.679 -33.296  1.00  0.00     0.104 A 
HETATM    8  C   UNL     1      -9.267   4.070 -33.541  1.00  0.00     0.067 A 
HETATM    9  C   UNL     1      -8.343   4.611 -32.463  1.00  0.00     0.020 C 
HETATM   10  N   UNL     1      -7.576   5.060 -31.567  1.00  0.00    -0.096 N 
HETATM   11  C   UNL     1      -9.619   4.856 -34.594  1.00  0.00     0.139 A 
HETATM   12  O   UNL     1     -10.563   4.431 -35.550  1.00  0.00    -0.279 OA
ENDROOT
BRANCH   7  13
HETATM   13  C   UNL     1      -8.816   1.571 -33.489  1.00  0.00    -0.043 A 
HETATM   14  C   UNL     1      -8.063   1.053 -32.416  1.00  0.00     0.033 A 
HETATM   15  C   UNL     1      -7.122   0.036 -32.617  1.00  0.00     0.056 A 
HETATM   16 CL   UNL     1      -6.239  -0.523 -31.240  1.00  0.00    -0.083 Cl
HETATM   17  C   UNL     1      -6.928  -0.488 -33.896  1.00  0.00     0.055 A 
HETATM   18 CL   UNL     1      -5.784  -1.740 -34.224  1.00  0.00    -0.083 Cl
HETATM   19  C   UNL     1      -7.676   0.007 -34.968  1.00  0.00     0.026 A 
HETATM   20  C   UNL     1      -8.615   1.024 -34.766  1.00  0.00     0.010 A 
ENDBRANCH   7  13
BRANCH  11  21
HETATM   21  N   UNL     1      -9.136   6.119 -34.845  1.00  0.00    -0.282 NA
HETATM   22  H   UNL     1      -9.524   6.865 -34.273  1.00  0.00     0.126 HD
HETATM   23  H   UNL     1      -8.119   6.141 -34.892  1.00  0.00     0.126 HD
ENDBRANCH  11  21
BRANCH   1  24
HETATM   24  C   UNL     1     -12.174   0.204 -33.558  1.00  0.00     0.057 C 
HETATM   25  C   UNL     1     -13.601  -0.308 -33.672  1.00  0.00     0.011 C 
ENDBRANCH   1  24
TORSDOF 3
ENDMDL
MODEL 3
REMARK VINA RESULT:      -7.3      3.635      5.056
REMARK  3 active torsions:
REMARK  status: ('A' for Active; 'I' for Inactive)
REMARK    1  A    between atoms: C_2  and  C_3 
REMARK    2  A    between atoms: C_9  and  C_10 
REMARK    3  A    between atoms: C_21  and  N_22 
ROOT
HETATM    1  C   UNL     1      -4.770  -1.584 -33.181  1.00  0.00     0.066 A 
HETATM    2  N   UNL     1      -4.749  -2.360 -34.279  1.00  0.00    -0.177 NA
HETATM    3  N   UNL     1      -5.823  -1.962 -34.993  1.00  0.00    -0.256 N 
HETATM    4  H   UNL     1      -6.025  -2.424 -35.872  1.00  0.00     0.191 HD
HETATM    5  C   UNL     1      -6.521  -0.974 -34.378  1.00  0.00     0.175 A 
HETATM    6  C   UNL     1      -5.859  -0.681 -33.213  1.00  0.00     0.035 A 
HETATM    7  C   UNL     1      -6.394   0.361 -32.297  1.00  0.00     0.104 A 
HETATM    8  C   UNL     1      -7.760   0.835 -32.786  1.00  0.00     0.067 A 
HETATM    9  C   UNL     1      -8.559   1.692 -31.816  1.00  0.00     0.020 C 
HETATM   10  N   UNL     1      -9.221   2.401 -31.012  1.00  0.00    -0.096 N 
HETATM   11  C   UNL     1      -8.312   0.447 -33.966  1.00  0.00     0.139 A 
HETATM   12  O   UNL     1      -7.648  -0.441 -34.836  1.00  0.00    -0.279 OA
ENDROOT
BRANCH   7  13
HETATM   13  C   UNL     1      -5.355   1.476 -32.277  1.00  0.00    -0.043 A 
HETATM   14  C   UNL     1      -5.383   2.543 -33.198  1.00  0.00     0.033 A 
HETATM   15  C   UNL     1      -4.417   3.556 -33.162  1.00  0.00     0.056 A 
HETATM   16 CL   UNL     1      -4.530   4.813 -34.342  1.00  0.00    -0.083 Cl
HETATM   17  C   UNL     1      -3.411   3.522 -32.195  1.00  0.00     0.055 A 
HETATM   18 CL   UNL     1      -2.183   4.732 -32.089  1.00  0.00    -0.083 Cl
HETATM   19  C   UNL     1      -3.377   2.477 -31.267  1.00  0.00     0.026 A 
HETATM   20  C   UNL     1      -4.343   1.466 -31.305  1.00  0.00     0.010 A 
ENDBRANCH   7  13
BRANCH  11  21
HETATM   21  N   UNL     1      -9.544   0.836 -34.438  1.00  0.00    -0.282 NA
HETATM   22  H   UNL     1     -10.309   0.188 -34.270  1.00  0.00     0.126 HD
HETATM   23  H   UNL     1      -9.770   1.795 -34.183  1.00  0.00     0.126 HD
ENDBRANCH  11  21
BRANCH   1  24
HETATM   24  C   UNL     1      -3.734  -1.763 -32.122  1.00  0.00     0.057 C 
HETATM   25  C   UNL     1      -3.196  -3.184 -32.062  1.00  0.00     0.011 C 
ENDBRANCH   1  24
TORSDOF 3
ENDMDL
MODEL 4
REMARK VINA RESULT:      -7.2      3.912      5.932
REMARK  3 active torsions:
REMARK  status: ('A' for Active; 'I' for Inactive)
REMARK    1  A    between atoms: C_2  and  C_3 
REMARK    2  A    between atoms: C_9  and  C_10 
REMARK    3  A    between atoms: C_21  and  N_22 
ROOT
HETATM    1  C   UNL     1      -8.967   2.361 -32.665  1.00  0.00     0.066 A 
HETATM    2  N   UNL     1      -9.909   3.094 -33.284  1.00  0.00    -0.177 NA
HETATM    3  N   UNL     1      -9.213   4.033 -33.959  1.00  0.00    -0.256 N 
HETATM    4  H   UNL     1      -9.721   4.724 -34.500  1.00  0.00     0.191 HD
HETATM    5  C   UNL     1      -7.873   3.923 -33.776  1.00  0.00     0.175 A 
HETATM    6  C   UNL     1      -7.669   2.836 -32.965  1.00  0.00     0.035 A 
HETATM    7  C   UNL     1      -6.287   2.460 -32.562  1.00  0.00     0.104 A 
HETATM    8  C   UNL     1      -5.297   3.521 -33.036  1.00  0.00     0.067 A 
HETATM    9  C   UNL     1      -3.890   3.427 -32.468  1.00  0.00     0.020 C 
HETATM   10  N   UNL     1      -2.724   3.349 -31.996  1.00  0.00    -0.096 N 
HETATM   11  C   UNL     1      -5.643   4.568 -33.832  1.00  0.00     0.139 A 
HETATM   12  O   UNL     1      -6.966   4.751 -34.280  1.00  0.00    -0.279 OA
ENDROOT
BRANCH   7  13
HETATM   13  C   UNL     1      -6.026   1.092 -33.182  1.00  0.00    -0.043 A 
HETATM   14  C   UNL     1      -5.152   0.156 -32.593  1.00  0.00     0.033 A 
HETATM   15  C   UNL     1      -4.927  -1.094 -33.181  1.00  0.00     0.056 A 
HETATM   16 CL   UNL     1      -3.827  -2.166 -32.390  1.00  0.00    -0.083 Cl
HETATM   17  C   UNL     1      -5.583  -1.432 -34.366  1.00  0.00     0.055 A 
HETATM   18 CL   UNL     1      -5.354  -2.953 -35.153  1.00  0.00    -0.083 Cl
HETATM   19  C   UNL     1      -6.463  -0.520 -34.956  1.00  0.00     0.026 A 
HETATM   20  C   UNL     1      -6.686   0.729 -34.367  1.00  0.00     0.010 A 
ENDBRANCH   7  13
BRANCH  11  21
HETATM   21  N   UNL     1      -4.789   5.554 -34.269  1.00  0.00    -0.282 NA
HETATM   22  H   UNL     1      -5.043   6.007 -35.143  1.00  0.00     0.126 HD
HETATM   23  H   UNL     1      -4.553   6.215 -33.531  1.00  0.00     0.126 HD
ENDBRANCH  11  21
BRANCH   1  24
HETATM   24  C   UNL     1      -9.367   1.228 -31.780  1.00  0.00     0.057 C 
HETATM   25  C   UNL     1      -9.804  -0.001 -32.563  1.00  0.00     0.011 C 
ENDBRANCH   1  24
TORSDOF 3
ENDMDL
MODEL 5
REMARK VINA RESULT:      -7.2      4.069      5.553
REMARK  3 active torsions:
REMARK  status: ('A' for Active; 'I' for Inactive)
REMARK    1  A    between atoms: C_2  and  C_3 
REMARK    2  A    between atoms: C_9  and  C_10 
REMARK    3  A    between atoms: C_21  and  N_22 
ROOT
HETATM    1  C   UNL     1      -5.446  -0.914 -33.057  1.00  0.00     0.066 A 
HETATM    2  N   UNL     1      -5.748  -1.904 -33.915  1.00  0.00    -0.177 NA
HETATM    3  N   UNL     1      -7.045  -1.697 -34.224  1.00  0.00    -0.256 N 
HETATM    4  H   UNL     1      -7.506  -2.341 -34.857  1.00  0.00     0.191 HD
HETATM    5  C   UNL     1      -7.569  -0.621 -33.584  1.00  0.00     0.175 A 
HETATM    6  C   UNL     1      -6.560  -0.069 -32.838  1.00  0.00     0.035 A 
HETATM    7  C   UNL     1      -6.827   1.129 -31.997  1.00  0.00     0.104 A 
HETATM    8  C   UNL     1      -8.320   1.450 -32.005  1.00  0.00     0.067 A 
HETATM    9  C   UNL     1      -8.791   2.469 -30.981  1.00  0.00     0.020 C 
HETATM   10  N   UNL     1      -9.183   3.315 -30.131  1.00  0.00    -0.096 N 
HETATM   11  C   UNL     1      -9.223   0.804 -32.791  1.00  0.00     0.139 A 
HETATM   12  O   UNL     1      -8.835  -0.229 -33.667  1.00  0.00    -0.279 OA
ENDROOT
BRANCH   7  13
HETATM   13  C   UNL     1      -5.980   2.251 -32.584  1.00  0.00    -0.043 A 
HETATM   14  C   UNL     1      -4.752   2.642 -32.012  1.00  0.00     0.033 A 
HETATM   15  C   UNL     1      -3.992   3.677 -32.568  1.00  0.00     0.056 A 
HETATM   16 CL   UNL     1      -2.507   4.091 -31.785  1.00  0.00    -0.083 Cl
HETATM   17  C   UNL     1      -4.443   4.333 -33.715  1.00  0.00     0.055 A 
HETATM   18 CL   UNL     1      -3.563   5.621 -34.456  1.00  0.00    -0.083 Cl
HETATM   19  C   UNL     1      -5.653   3.948 -34.301  1.00  0.00     0.026 A 
HETATM   20  C   UNL     1      -6.412   2.915 -33.744  1.00  0.00     0.010 A 
ENDBRANCH   7  13
BRANCH  11  21
HETATM   21  N   UNL     1     -10.576   1.049 -32.819  1.00  0.00    -0.282 NA
HETATM   22  H   UNL     1     -10.914   1.751 -32.166  1.00  0.00     0.126 HD
HETATM   23  H   UNL     1     -10.924   1.184 -33.766  1.00  0.00     0.126 HD
ENDBRANCH  11  21
BRANCH   1  24
HETATM   24  C   UNL     1      -4.080  -0.834 -32.462  1.00  0.00     0.057 C 
HETATM   25  C   UNL     1      -3.488  -2.204 -32.168  1.00  0.00     0.011 C 
ENDBRANCH   1  24
TORSDOF 3
ENDMDL
MODEL 6
REMARK VINA RESULT:      -7.2      2.282      2.882
REMARK  3 active torsions:
REMARK  status: ('A' for Active; 'I' for Inactive)
REMARK    1  A    between atoms: C_2  and  C_3 
REMARK    2  A    between atoms: C_9  and  C_10 
REMARK    3  A    between atoms: C_21  and  N_22 
ROOT
HETATM    1  C   UNL     1      -6.355  -0.525 -34.590  1.00  0.00     0.066 A 
HETATM    2  N   UNL     1      -6.298  -1.867 -34.647  1.00  0.00    -0.177 NA
HETATM    3  N   UNL     1      -5.387  -2.204 -33.710  1.00  0.00    -0.256 N 
HETATM    4  H   UNL     1      -5.160  -3.183 -33.577  1.00  0.00     0.191 HD
HETATM    5  C   UNL     1      -4.865  -1.123 -33.077  1.00  0.00     0.175 A 
HETATM    6  C   UNL     1      -5.484  -0.016 -33.599  1.00  0.00     0.035 A 
HETATM    7  C   UNL     1      -5.110   1.340 -33.116  1.00  0.00     0.104 A 
HETATM    8  C   UNL     1      -3.913   1.248 -32.173  1.00  0.00     0.067 A 
HETATM    9  C   UNL     1      -3.239   2.562 -31.815  1.00  0.00     0.020 C 
HETATM   10  N   UNL     1      -2.680   3.653 -31.518  1.00  0.00    -0.096 N 
HETATM   11  C   UNL     1      -3.383   0.071 -31.745  1.00  0.00     0.139 A 
HETATM   12  O   UNL     1      -3.912  -1.170 -32.153  1.00  0.00    -0.279 OA
ENDROOT
BRANCH   7  13
HETATM   13  C   UNL     1      -6.353   1.902 -32.437  1.00  0.00    -0.043 A 
HETATM   14  C   UNL     1      -6.870   3.175 -32.753  1.00  0.00     0.033 A 
HETATM   15  C   UNL     1      -8.013   3.671 -32.115  1.00  0.00     0.056 A 
HETATM   16 CL   UNL     1      -8.560   5.248 -32.562  1.00  0.00    -0.083 Cl
HETATM   17  C   UNL     1      -8.665   2.894 -31.156  1.00  0.00     0.055 A 
HETATM   18 CL   UNL     1     -10.078   3.439 -30.324  1.00  0.00    -0.083 Cl
HETATM   19  C   UNL     1      -8.172   1.625 -30.841  1.00  0.00     0.026 A 
HETATM   20  C   UNL     1      -7.029   1.131 -31.478  1.00  0.00     0.010 A 
ENDBRANCH   7  13
BRANCH  11  21
HETATM   21  N   UNL     1      -2.298  -0.059 -30.910  1.00  0.00    -0.282 NA
HETATM   22  H   UNL     1      -1.938   0.804 -30.511  1.00  0.00     0.126 HD
HETATM   23  H   UNL     1      -2.430  -0.794 -30.217  1.00  0.00     0.126 HD
ENDBRANCH  11  21
BRANCH   1  24
HETATM   24  C   UNL     1      -7.249   0.222 -35.523  1.00  0.00     0.057 C 
HETATM   25  C   UNL     1      -8.581   0.591 -34.890  1.00  0.00     0.011 C 
ENDBRANCH   1  24
TORSDOF 3
ENDMDL
MODEL 7
REMARK VINA RESULT:      -7.1      3.861      6.310
REMARK  3 active torsions:
REMARK  status: ('A' for Active; 'I' for Inactive)
REMARK    1  A    between atoms: C_2  and  C_3 
REMARK    2  A    between atoms: C_9  and  C_10 
REMARK    3  A    between atoms: C_21  and  N_22 
ROOT
HETATM    1  C   UNL     1      -4.235   3.563 -31.862  1.00  0.00     0.066 A 
HETATM    2  N   UNL     1      -4.058   4.423 -30.842  1.00  0.00    -0.177 NA
HETATM    3  N   UNL     1      -5.190   4.317 -30.115  1.00  0.00    -0.256 N 
HETATM    4  H   UNL     1      -5.295   4.893 -29.287  1.00  0.00     0.191 HD
HETATM    5  C   UNL     1      -6.072   3.433 -30.646  1.00  0.00     0.175 A 
HETATM    6  C   UNL     1      -5.482   2.903 -31.765  1.00  0.00     0.035 A 
HETATM    7  C   UNL     1      -6.215   1.903 -32.588  1.00  0.00     0.104 A 
HETATM    8  C   UNL     1      -7.648   1.760 -32.082  1.00  0.00     0.067 A 
HETATM    9  C   UNL     1      -8.602   0.990 -32.981  1.00  0.00     0.020 C 
HETATM   10  N   UNL     1      -9.393   0.352 -33.727  1.00  0.00    -0.096 N 
HETATM   11  C   UNL     1      -8.111   2.363 -30.955  1.00  0.00     0.139 A 
HETATM   12  O   UNL     1      -7.282   3.181 -30.160  1.00  0.00    -0.279 OA
ENDROOT
BRANCH   7  13
HETATM   13  C   UNL     1      -5.420   0.608 -32.481  1.00  0.00    -0.043 A 
HETATM   14  C   UNL     1      -5.426  -0.363 -33.504  1.00  0.00     0.033 A 
HETATM   15  C   UNL     1      -4.690  -1.547 -33.383  1.00  0.00     0.056 A 
HETATM   16 CL   UNL     1      -4.774  -2.680 -34.685  1.00  0.00    -0.083 Cl
HETATM   17  C   UNL     1      -3.923  -1.774 -32.238  1.00  0.00     0.055 A 
HETATM   18 CL   UNL     1      -2.991  -3.211 -32.015  1.00  0.00    -0.083 Cl
HETATM   19  C   UNL     1      -3.896  -0.816 -31.221  1.00  0.00     0.026 A 
HETATM   20  C   UNL     1      -4.635   0.366 -31.343  1.00  0.00     0.010 A 
ENDBRANCH   7  13
BRANCH  11  21
HETATM   21  N   UNL     1      -9.395   2.275 -30.471  1.00  0.00    -0.282 NA
HETATM   22  H   UNL     1     -10.107   2.008 -31.147  1.00  0.00     0.126 HD
HETATM   23  H   UNL     1      -9.447   1.740 -29.607  1.00  0.00     0.126 HD
ENDBRANCH  11  21
BRANCH   1  24
HETATM   24  C   UNL     1      -3.184   3.429 -32.913  1.00  0.00     0.057 C 
HETATM   25  C   UNL     1      -2.099   4.487 -32.796  1.00  0.00     0.011 C 
ENDBRANCH   1  24
TORSDOF 3
ENDMDL
MODEL 8
REMARK VINA RESULT:      -7.1     12.726     14.180
REMARK  3 active torsions:
REMARK  status: ('A' for Active; 'I' for Inactive)
REMARK    1  A    between atoms: C_2  and  C_3 
REMARK    2  A    between atoms: C_9  and  C_10 
REMARK    3  A    between atoms: C_21  and  N_22 
ROOT
HETATM    1  C   UNL     1      -5.972 -14.597 -35.446  1.00  0.00     0.066 A 
HETATM    2  N   UNL     1      -5.620 -13.950 -34.321  1.00  0.00    -0.177 NA
HETATM    3  N   UNL     1      -4.800 -12.965 -34.744  1.00  0.00    -0.256 N 
HETATM    4  H   UNL     1      -4.389 -12.342 -34.057  1.00  0.00     0.191 HD
HETATM    5  C   UNL     1      -4.617 -12.978 -36.088  1.00  0.00     0.175 A 
HETATM    6  C   UNL     1      -5.379 -14.004 -36.586  1.00  0.00     0.035 A 
HETATM    7  C   UNL     1      -5.377 -14.290 -38.046  1.00  0.00     0.104 A 
HETATM    8  C   UNL     1      -4.334 -13.424 -38.747  1.00  0.00     0.067 A 
HETATM    9  C   UNL     1      -4.016 -13.791 -40.187  1.00  0.00     0.020 C 
HETATM   10  N   UNL     1      -3.752 -14.097 -41.381  1.00  0.00    -0.096 N 
HETATM   11  C   UNL     1      -3.630 -12.443 -38.122  1.00  0.00     0.139 A 
HETATM   12  O   UNL     1      -3.817 -12.154 -36.755  1.00  0.00    -0.279 OA
ENDROOT
BRANCH   7  13
HETATM   13  C   UNL     1      -6.796 -14.013 -38.530  1.00  0.00    -0.043 A 
HETATM   14  C   UNL     1      -7.677 -15.048 -38.902  1.00  0.00     0.033 A 
HETATM   15  C   UNL     1      -8.975 -14.770 -39.345  1.00  0.00     0.056 A 
HETATM   16 CL   UNL     1      -9.974 -16.107 -39.791  1.00  0.00    -0.083 Cl
HETATM   17  C   UNL     1      -9.417 -13.447 -39.413  1.00  0.00     0.055 A 
HETATM   18 CL   UNL     1     -11.002 -13.023 -39.952  1.00  0.00    -0.083 Cl
HETATM   19  C   UNL     1      -8.559 -12.410 -39.035  1.00  0.00     0.026 A 
HETATM   20  C   UNL     1      -7.262 -12.690 -38.594  1.00  0.00     0.010 A 
ENDBRANCH   7  13
BRANCH  11  21
HETATM   21  N   UNL     1      -2.672 -11.650 -38.709  1.00  0.00    -0.282 NA
HETATM   22  H   UNL     1      -1.790 -12.107 -38.928  1.00  0.00     0.126 HD
HETATM   23  H   UNL     1      -3.043 -11.108 -39.486  1.00  0.00     0.126 HD
ENDBRANCH  11  21
BRANCH   1  24
HETATM   24  C   UNL     1      -6.864 -15.791 -35.371  1.00  0.00     0.057 C 
HETATM   25  C   UNL     1      -6.140 -17.086 -35.705  1.00  0.00     0.011 C 
ENDBRANCH   1  24
TORSDOF 3
ENDMDL
MODEL 9
REMARK VINA RESULT:      -7.1      1.990      3.071
REMARK  3 active torsions:
REMARK  status: ('A' for Active; 'I' for Inactive)
REMARK    1  A    between atoms: C_2  and  C_3 
REMARK    2  A    between atoms: C_9  and  C_10 
REMARK    3  A    between atoms: C_21  and  N_22 
ROOT
HETATM    1  C   UNL     1      -3.993  -1.015 -32.853  1.00  0.00     0.066 A 
HETATM    2  N   UNL     1      -3.298  -1.609 -31.866  1.00  0.00    -0.177 NA
HETATM    3  N   UNL     1      -2.937  -0.595 -31.053  1.00  0.00    -0.256 N 
HETATM    4  H   UNL     1      -2.380  -0.801 -30.231  1.00  0.00     0.191 HD
HETATM    5  C   UNL     1      -3.369   0.612 -31.499  1.00  0.00     0.175 A 
HETATM    6  C   UNL     1      -4.079   0.382 -32.649  1.00  0.00     0.035 A 
HETATM    7  C   UNL     1      -4.674   1.523 -33.395  1.00  0.00     0.104 A 
HETATM    8  C   UNL     1      -4.219   2.844 -32.780  1.00  0.00     0.067 A 
HETATM    9  C   UNL     1      -4.512   4.097 -33.589  1.00  0.00     0.020 C 
HETATM   10  N   UNL     1      -4.755   5.136 -34.261  1.00  0.00    -0.096 N 
HETATM   11  C   UNL     1      -3.494   2.928 -31.632  1.00  0.00     0.139 A 
HETATM   12  O   UNL     1      -3.104   1.777 -30.919  1.00  0.00    -0.279 OA
ENDROOT
BRANCH   7  13
HETATM   13  C   UNL     1      -6.184   1.330 -33.325  1.00  0.00    -0.043 A 
HETATM   14  C   UNL     1      -6.949   1.792 -32.235  1.00  0.00     0.033 A 
HETATM   15  C   UNL     1      -8.335   1.602 -32.191  1.00  0.00     0.056 A 
HETATM   16 CL   UNL     1      -9.182   2.193 -30.806  1.00  0.00    -0.083 Cl
HETATM   17  C   UNL     1      -8.981   0.953 -33.246  1.00  0.00     0.055 A 
HETATM   18 CL   UNL     1     -10.686   0.679 -33.262  1.00  0.00    -0.083 Cl
HETATM   19  C   UNL     1      -8.238   0.501 -34.339  1.00  0.00     0.026 A 
HETATM   20  C   UNL     1      -6.853   0.691 -34.381  1.00  0.00     0.010 A 
ENDBRANCH   7  13
BRANCH  11  21
HETATM   21  N   UNL     1      -3.050   4.093 -31.052  1.00  0.00    -0.282 NA
HETATM   22  H   UNL     1      -3.340   4.955 -31.505  1.00  0.00     0.126 HD
HETATM   23  H   UNL     1      -3.198   4.103 -30.044  1.00  0.00     0.126 HD
ENDBRANCH  11  21
BRANCH   1  24
HETATM   24  C   UNL     1      -4.535  -1.832 -33.977  1.00  0.00     0.057 C 
HETATM   25  C   UNL     1      -4.123  -3.293 -33.893  1.00  0.00     0.011 C 
ENDBRANCH   1  24
TORSDOF 3
ENDMDL
MODEL 10
REMARK VINA RESULT:      -7.0      2.696      3.404
REMARK  3 active torsions:
REMARK  status: ('A' for Active; 'I' for Inactive)
REMARK    1  A    between atoms: C_2  and  C_3 
REMARK    2  A    between atoms: C_9  and  C_10 
REMARK    3  A    between atoms: C_21  and  N_22 
ROOT
HETATM    1  C   UNL     1      -5.429  -0.248 -32.949  1.00  0.00     0.066 A 
HETATM    2  N   UNL     1      -4.741  -1.237 -32.352  1.00  0.00    -0.177 NA
HETATM    3  N   UNL     1      -3.782  -0.601 -31.647  1.00  0.00    -0.256 N 
HETATM    4  H   UNL     1      -3.118  -1.152 -31.116  1.00  0.00     0.191 HD
HETATM    5  C   UNL     1      -3.837   0.747 -31.790  1.00  0.00     0.175 A 
HETATM    6  C   UNL     1      -4.906   1.020 -32.605  1.00  0.00     0.035 A 
HETATM    7  C   UNL     1      -5.222   2.428 -32.969  1.00  0.00     0.104 A 
HETATM    8  C   UNL     1      -4.128   3.359 -32.455  1.00  0.00     0.067 A 
HETATM    9  C   UNL     1      -4.160   4.785 -32.980  1.00  0.00     0.020 C 
HETATM   10  N   UNL     1      -4.186   5.968 -33.417  1.00  0.00    -0.096 N 
HETATM   11  C   UNL     1      -3.104   2.948 -31.660  1.00  0.00     0.139 A 
HETATM   12  O   UNL     1      -2.979   1.605 -31.250  1.00  0.00    -0.279 OA
ENDROOT
BRANCH   7  13
HETATM   13  C   UNL     1      -6.585   2.724 -32.355  1.00  0.00    -0.043 A 
HETATM   14  C   UNL     1      -7.738   2.915 -33.143  1.00  0.00     0.033 A 
HETATM   15  C   UNL     1      -8.979   3.189 -32.557  1.00  0.00     0.056 A 
HETATM   16 CL   UNL     1     -10.330   3.421 -33.610  1.00  0.00    -0.083 Cl
HETATM   17  C   UNL     1      -9.089   3.264 -31.167  1.00  0.00     0.055 A 
HETATM   18 CL   UNL     1     -10.585   3.599 -30.371  1.00  0.00    -0.083 Cl
HETATM   19  C   UNL     1      -7.958   3.063 -30.371  1.00  0.00     0.026 A 
HETATM   20  C   UNL     1      -6.718   2.792 -30.959  1.00  0.00     0.010 A 
ENDBRANCH   7  13
BRANCH  11  21
HETATM   21  N   UNL     1      -2.089   3.748 -31.187  1.00  0.00    -0.282 NA
HETATM   22  H   UNL     1      -2.349   4.701 -30.950  1.00  0.00     0.126 HD
HETATM   23  H   UNL     1      -1.545   3.290 -30.459  1.00  0.00     0.126 HD
ENDBRANCH  11  21
BRANCH   1  24
HETATM   24  C   UNL     1      -6.568  -0.576 -33.856  1.00  0.00     0.057 C 
HETATM   25  C   UNL     1      -6.374  -1.895 -34.587  1.00  0.00     0.011 C 
ENDBRANCH   1  24
TORSDOF 3
ENDMDL
