MODEL 1
REMARK VINA RESULT:      -9.1      0.000      0.000
REMARK  4 active torsions:
REMARK  status: ('A' for Active; 'I' for Inactive)
REMARK    1  A    between atoms: C_7  and  C_8 
REMARK    2  A    between atoms: N_9  and  N_10 
REMARK       I    between atoms: N_10  and  C_11 
REMARK    3  A    between atoms: C_11  and  C_12 
REMARK    4  A    between atoms: C_12  and  C_13 
ROOT
HETATM    1  N   UNL     1      -8.054   1.831 -34.284  1.00  0.00    -0.247 N 
HETATM    2  C   UNL     1      -8.116   0.499 -33.882  1.00  0.00     0.241 C 
HETATM    3  O   UNL     1      -8.575   0.113 -32.808  1.00  0.00    -0.271 OA
HETATM    4  H   UNL     1      -7.871   2.091 -35.242  1.00  0.00     0.192 HD
ENDROOT
BRANCH   1   5
HETATM    5  N   UNL     1      -8.376   2.795 -33.401  1.00  0.00    -0.184 NA
HETATM    6  C   UNL     1      -7.501   3.361 -32.627  1.00  0.00     0.153 C 
BRANCH   6   7
HETATM    7  C   UNL     1      -6.079   3.117 -32.393  1.00  0.00     0.018 A 
HETATM    8  C   UNL     1      -5.390   2.388 -31.423  1.00  0.00     0.018 A 
HETATM    9  C   UNL     1      -5.780   1.580 -30.238  1.00  0.00     0.069 C 
HETATM   10  N   UNL     1      -4.041   2.562 -31.654  1.00  0.00    -0.358 N 
HETATM   11  H   UNL     1      -3.304   2.153 -31.096  1.00  0.00     0.166 HD
HETATM   12  C   UNL     1      -3.818   3.454 -32.666  1.00  0.00     0.043 A 
HETATM   13  C   UNL     1      -5.064   3.802 -33.173  1.00  0.00     0.004 A 
HETATM   14  C   UNL     1      -2.616   3.982 -33.153  1.00  0.00     0.030 A 
HETATM   15  C   UNL     1      -5.106   4.720 -34.249  1.00  0.00     0.014 A 
HETATM   16  C   UNL     1      -3.915   5.264 -34.748  1.00  0.00     0.001 A 
HETATM   17  C   UNL     1      -2.688   4.902 -34.201  1.00  0.00     0.002 A 
ENDBRANCH   6   7
ENDBRANCH   1   5
BRANCH   2  18
HETATM   18  C   UNL     1      -7.515  -0.459 -34.896  1.00  0.00     0.145 C 
BRANCH  18  19
HETATM   19  C   UNL     1      -6.241  -1.103 -34.426  1.00  0.00    -0.021 A 
HETATM   20  C   UNL     1      -5.861  -2.487 -34.499  1.00  0.00    -0.001 A 
HETATM   21  C   UNL     1      -4.614  -2.614 -33.882  1.00  0.00     0.042 A 
HETATM   22  C   UNL     1      -6.450  -3.654 -35.033  1.00  0.00     0.014 A 
HETATM   23  C   UNL     1      -3.948  -3.839 -33.749  1.00  0.00     0.030 A 
HETATM   24  N   UNL     1      -4.230  -1.355 -33.486  1.00  0.00    -0.365 N 
HETATM   25  C   UNL     1      -4.571  -4.978 -34.266  1.00  0.00     0.002 A 
HETATM   26  C   UNL     1      -5.802  -4.888 -34.905  1.00  0.00     0.001 A 
HETATM   27  H   UNL     1      -3.351  -1.143 -33.035  1.00  0.00     0.165 HD
HETATM   28  C   UNL     1      -5.203  -0.444 -33.793  1.00  0.00     0.097 A 
ENDBRANCH  18  19
ENDBRANCH   2  18
TORSDOF 4
ENDMDL
MODEL 2
REMARK VINA RESULT:      -8.9      0.965      2.536
REMARK  4 active torsions:
REMARK  status: ('A' for Active; 'I' for Inactive)
REMARK    1  A    between atoms: C_7  and  C_8 
REMARK    2  A    between atoms: N_9  and  N_10 
REMARK       I    between atoms: N_10  and  C_11 
REMARK    3  A    between atoms: C_11  and  C_12 
REMARK    4  A    between atoms: C_12  and  C_13 
ROOT
HETATM    1  N   UNL     1      -8.327   1.780 -34.347  1.00  0.00    -0.247 N 
HETATM    2  C   UNL     1      -8.363   0.421 -34.042  1.00  0.00     0.241 C 
HETATM    3  O   UNL     1      -8.829  -0.052 -33.007  1.00  0.00    -0.271 OA
HETATM    4  H   UNL     1      -8.135   2.112 -35.281  1.00  0.00     0.192 HD
ENDROOT
BRANCH   1   5
HETATM    5  N   UNL     1      -8.686   2.670 -33.403  1.00  0.00    -0.184 NA
HETATM    6  C   UNL     1      -7.824   3.311 -32.676  1.00  0.00     0.153 C 
BRANCH   6   7
HETATM    7  C   UNL     1      -6.369   3.232 -32.562  1.00  0.00     0.018 A 
HETATM    8  C   UNL     1      -5.331   3.938 -33.170  1.00  0.00     0.018 A 
HETATM    9  C   UNL     1      -5.247   5.031 -34.173  1.00  0.00     0.069 C 
HETATM   10  N   UNL     1      -4.143   3.391 -32.730  1.00  0.00    -0.358 N 
HETATM   11  H   UNL     1      -3.225   3.703 -33.016  1.00  0.00     0.166 HD
HETATM   12  C   UNL     1      -4.360   2.293 -31.944  1.00  0.00     0.043 A 
HETATM   13  C   UNL     1      -5.736   2.177 -31.790  1.00  0.00     0.004 A 
HETATM   14  C   UNL     1      -3.445   1.398 -31.377  1.00  0.00     0.030 A 
HETATM   15  C   UNL     1      -6.223   1.109 -31.001  1.00  0.00     0.014 A 
HETATM   16  C   UNL     1      -5.326   0.199 -30.428  1.00  0.00     0.001 A 
HETATM   17  C   UNL     1      -3.956   0.341 -30.620  1.00  0.00     0.002 A 
ENDBRANCH   6   7
ENDBRANCH   1   5
BRANCH   2  18
HETATM   18  C   UNL     1      -7.722  -0.447 -35.111  1.00  0.00     0.145 C 
BRANCH  18  19
HETATM   19  C   UNL     1      -6.444  -1.099 -34.664  1.00  0.00    -0.021 A 
HETATM   20  C   UNL     1      -6.093  -2.493 -34.698  1.00  0.00    -0.001 A 
HETATM   21  C   UNL     1      -4.827  -2.621 -34.122  1.00  0.00     0.042 A 
HETATM   22  C   UNL     1      -6.723  -3.666 -35.166  1.00  0.00     0.014 A 
HETATM   23  C   UNL     1      -4.180  -3.854 -33.968  1.00  0.00     0.030 A 
HETATM   24  N   UNL     1      -4.404  -1.357 -33.789  1.00  0.00    -0.365 N 
HETATM   25  C   UNL     1      -4.842  -4.999 -34.418  1.00  0.00     0.002 A 
HETATM   26  C   UNL     1      -6.094  -4.908 -35.014  1.00  0.00     0.001 A 
HETATM   27  H   UNL     1      -3.506  -1.145 -33.378  1.00  0.00     0.165 HD
HETATM   28  C   UNL     1      -5.370  -0.438 -34.094  1.00  0.00     0.097 A 
ENDBRANCH  18  19
ENDBRANCH   2  18
TORSDOF 4
ENDMDL
MODEL 3
REMARK VINA RESULT:      -8.9      2.672      6.727
REMARK  4 active torsions:
REMARK  status: ('A' for Active; 'I' for Inactive)
REMARK    1  A    between atoms: C_7  and  C_8 
REMARK    2  A    between atoms: N_9  and  N_10 
REMARK       I    between atoms: N_10  and  C_11 
REMARK    3  A    between atoms: C_11  and  C_12 
REMARK    4  A    between atoms: C_12  and  C_13 
ROOT
HETATM    1  N   UNL     1      -4.822   0.368 -30.931  1.00  0.00    -0.247 N 
HETATM    2  C   UNL     1      -5.239   1.696 -30.872  1.00  0.00     0.241 C 
HETATM    3  O   UNL     1      -4.683   2.630 -31.446  1.00  0.00    -0.271 OA
HETATM    4  H   UNL     1      -5.414  -0.392 -30.628  1.00  0.00     0.192 HD
ENDROOT
BRANCH   1   5
HETATM    5  N   UNL     1      -3.652   0.078 -31.531  1.00  0.00    -0.184 NA
HETATM    6  C   UNL     1      -3.579  -0.496 -32.693  1.00  0.00     0.153 C 
BRANCH   6   7
HETATM    7  C   UNL     1      -4.591  -1.049 -33.590  1.00  0.00     0.018 A 
HETATM    8  C   UNL     1      -5.706  -0.493 -34.219  1.00  0.00     0.018 A 
HETATM    9  C   UNL     1      -6.341   0.850 -34.242  1.00  0.00     0.069 C 
HETATM   10  N   UNL     1      -6.343  -1.506 -34.906  1.00  0.00    -0.358 N 
HETATM   11  H   UNL     1      -7.189  -1.391 -35.447  1.00  0.00     0.166 HD
HETATM   12  C   UNL     1      -5.754  -2.717 -34.669  1.00  0.00     0.043 A 
HETATM   13  C   UNL     1      -4.639  -2.472 -33.876  1.00  0.00     0.004 A 
HETATM   14  C   UNL     1      -6.134  -3.999 -35.085  1.00  0.00     0.030 A 
HETATM   15  C   UNL     1      -3.844  -3.578 -33.496  1.00  0.00     0.014 A 
HETATM   16  C   UNL     1      -4.209  -4.870 -33.897  1.00  0.00     0.001 A 
HETATM   17  C   UNL     1      -5.342  -5.075 -34.677  1.00  0.00     0.002 A 
ENDBRANCH   6   7
ENDBRANCH   1   5
BRANCH   2  18
HETATM   18  C   UNL     1      -6.450   1.901 -29.979  1.00  0.00     0.145 C 
BRANCH  18  19
HETATM   19  C   UNL     1      -7.650   2.429 -30.713  1.00  0.00    -0.021 A 
HETATM   20  C   UNL     1      -8.588   1.706 -31.527  1.00  0.00    -0.001 A 
HETATM   21  C   UNL     1      -9.496   2.632 -32.046  1.00  0.00     0.042 A 
HETATM   22  C   UNL     1      -8.763   0.350 -31.877  1.00  0.00     0.014 A 
HETATM   23  C   UNL     1     -10.541   2.277 -32.909  1.00  0.00     0.030 A 
HETATM   24  N   UNL     1      -9.154   3.862 -31.537  1.00  0.00    -0.365 N 
HETATM   25  C   UNL     1     -10.671   0.930 -33.255  1.00  0.00     0.002 A 
HETATM   26  C   UNL     1      -9.798  -0.023 -32.743  1.00  0.00     0.001 A 
HETATM   27  H   UNL     1      -9.659   4.717 -31.723  1.00  0.00     0.165 HD
HETATM   28  C   UNL     1      -8.040   3.756 -30.749  1.00  0.00     0.097 A 
ENDBRANCH  18  19
ENDBRANCH   2  18
TORSDOF 4
ENDMDL
MODEL 4
REMARK VINA RESULT:      -8.8      1.297      1.494
REMARK  4 active torsions:
REMARK  status: ('A' for Active; 'I' for Inactive)
REMARK    1  A    between atoms: C_7  and  C_8 
REMARK    2  A    between atoms: N_9  and  N_10 
REMARK       I    between atoms: N_10  and  C_11 
REMARK    3  A    between atoms: C_11  and  C_12 
REMARK    4  A    between atoms: C_12  and  C_13 
ROOT
HETATM    1  N   UNL     1      -7.123   2.205 -33.452  1.00  0.00    -0.247 N 
HETATM    2  C   UNL     1      -7.110   1.189 -34.405  1.00  0.00     0.241 C 
HETATM    3  O   UNL     1      -6.976   1.366 -35.615  1.00  0.00    -0.271 OA
HETATM    4  H   UNL     1      -7.022   2.013 -32.466  1.00  0.00     0.192 HD
ENDROOT
BRANCH   1   5
HETATM    5  N   UNL     1      -7.139   3.486 -33.865  1.00  0.00    -0.184 NA
HETATM    6  C   UNL     1      -6.190   4.327 -33.586  1.00  0.00     0.153 C 
BRANCH   6   7
HETATM    7  C   UNL     1      -4.991   4.230 -32.755  1.00  0.00     0.018 A 
HETATM    8  C   UNL     1      -4.791   3.886 -31.418  1.00  0.00     0.018 A 
HETATM    9  C   UNL     1      -5.673   3.495 -30.287  1.00  0.00     0.069 C 
HETATM   10  N   UNL     1      -3.445   4.028 -31.150  1.00  0.00    -0.358 N 
HETATM   11  H   UNL     1      -3.015   3.854 -30.252  1.00  0.00     0.166 HD
HETATM   12  C   UNL     1      -2.774   4.548 -32.223  1.00  0.00     0.043 A 
HETATM   13  C   UNL     1      -3.698   4.662 -33.254  1.00  0.00     0.004 A 
HETATM   14  C   UNL     1      -1.434   4.935 -32.345  1.00  0.00     0.030 A 
HETATM   15  C   UNL     1      -3.244   5.174 -34.493  1.00  0.00     0.014 A 
HETATM   16  C   UNL     1      -1.909   5.572 -34.635  1.00  0.00     0.001 A 
HETATM   17  C   UNL     1      -1.019   5.458 -33.572  1.00  0.00     0.002 A 
ENDBRANCH   6   7
ENDBRANCH   1   5
BRANCH   2  18
HETATM   18  C   UNL     1      -7.321  -0.192 -33.808  1.00  0.00     0.145 C 
BRANCH  18  19
HETATM   19  C   UNL     1      -6.074  -1.030 -33.787  1.00  0.00    -0.021 A 
HETATM   20  C   UNL     1      -5.916  -2.404 -34.177  1.00  0.00    -0.001 A 
HETATM   21  C   UNL     1      -4.589  -2.762 -33.925  1.00  0.00     0.042 A 
HETATM   22  C   UNL     1      -6.767  -3.387 -34.726  1.00  0.00     0.014 A 
HETATM   23  C   UNL     1      -4.086  -4.047 -34.166  1.00  0.00     0.030 A 
HETATM   24  N   UNL     1      -3.954  -1.644 -33.442  1.00  0.00    -0.365 N 
HETATM   25  C   UNL     1      -4.962  -5.004 -34.685  1.00  0.00     0.002 A 
HETATM   26  C   UNL     1      -6.284  -4.679 -34.967  1.00  0.00     0.001 A 
HETATM   27  H   UNL     1      -2.974  -1.605 -33.199  1.00  0.00     0.165 HD
HETATM   28  C   UNL     1      -4.836  -0.604 -33.340  1.00  0.00     0.097 A 
ENDBRANCH  18  19
ENDBRANCH   2  18
TORSDOF 4
ENDMDL
MODEL 5
REMARK VINA RESULT:      -8.7      2.557      6.900
REMARK  4 active torsions:
REMARK  status: ('A' for Active; 'I' for Inactive)
REMARK    1  A    between atoms: C_7  and  C_8 
REMARK    2  A    between atoms: N_9  and  N_10 
REMARK       I    between atoms: N_10  and  C_11 
REMARK    3  A    between atoms: C_11  and  C_12 
REMARK    4  A    between atoms: C_12  and  C_13 
ROOT
HETATM    1  N   UNL     1      -6.022   0.986 -31.806  1.00  0.00    -0.247 N 
HETATM    2  C   UNL     1      -6.653   2.194 -32.088  1.00  0.00     0.241 C 
HETATM    3  O   UNL     1      -6.169   3.093 -32.774  1.00  0.00    -0.271 OA
HETATM    4  H   UNL     1      -6.524   0.197 -31.424  1.00  0.00     0.192 HD
ENDROOT
BRANCH   1   5
HETATM    5  N   UNL     1      -4.737   0.819 -32.172  1.00  0.00    -0.184 NA
HETATM    6  C   UNL     1      -4.372  -0.005 -33.106  1.00  0.00     0.153 C 
BRANCH   6   7
HETATM    7  C   UNL     1      -5.105  -0.985 -33.905  1.00  0.00     0.018 A 
HETATM    8  C   UNL     1      -6.266  -0.902 -34.675  1.00  0.00     0.018 A 
HETATM    9  C   UNL     1      -7.240   0.173 -34.998  1.00  0.00     0.069 C 
HETATM   10  N   UNL     1      -6.534  -2.165 -35.160  1.00  0.00    -0.358 N 
HETATM   11  H   UNL     1      -7.324  -2.402 -35.744  1.00  0.00     0.166 HD
HETATM   12  C   UNL     1      -5.660  -3.089 -34.657  1.00  0.00     0.043 A 
HETATM   13  C   UNL     1      -4.734  -2.389 -33.893  1.00  0.00     0.004 A 
HETATM   14  C   UNL     1      -5.633  -4.480 -34.812  1.00  0.00     0.030 A 
HETATM   15  C   UNL     1      -3.705  -3.128 -33.263  1.00  0.00     0.014 A 
HETATM   16  C   UNL     1      -3.662  -4.521 -33.401  1.00  0.00     0.001 A 
HETATM   17  C   UNL     1      -4.618  -5.186 -34.162  1.00  0.00     0.002 A 
ENDBRANCH   6   7
ENDBRANCH   1   5
BRANCH   2  18
HETATM   18  C   UNL     1      -8.013   2.327 -31.425  1.00  0.00     0.145 C 
BRANCH  18  19
HETATM   19  C   UNL     1      -9.114   1.639 -32.179  1.00  0.00    -0.021 A 
HETATM   20  C   UNL     1      -9.955   2.173 -33.216  1.00  0.00    -0.001 A 
HETATM   21  C   UNL     1     -10.869   1.178 -33.571  1.00  0.00     0.042 A 
HETATM   22  C   UNL     1     -10.032   3.406 -33.898  1.00  0.00     0.014 A 
HETATM   23  C   UNL     1     -11.861   1.363 -34.542  1.00  0.00     0.030 A 
HETATM   24  N   UNL     1     -10.573   0.070 -32.814  1.00  0.00    -0.365 N 
HETATM   25  C   UNL     1     -11.926   2.604 -35.180  1.00  0.00     0.002 A 
HETATM   26  C   UNL     1     -11.021   3.612 -34.867  1.00  0.00     0.001 A 
HETATM   27  H   UNL     1     -11.059  -0.814 -32.882  1.00  0.00     0.165 HD
HETATM   28  C   UNL     1      -9.534   0.338 -31.966  1.00  0.00     0.097 A 
ENDBRANCH  18  19
ENDBRANCH   2  18
TORSDOF 4
ENDMDL
MODEL 6
REMARK VINA RESULT:      -8.7      2.330      4.359
REMARK  4 active torsions:
REMARK  status: ('A' for Active; 'I' for Inactive)
REMARK    1  A    between atoms: C_7  and  C_8 
REMARK    2  A    between atoms: N_9  and  N_10 
REMARK       I    between atoms: N_10  and  C_11 
REMARK    3  A    between atoms: C_11  and  C_12 
REMARK    4  A    between atoms: C_12  and  C_13 
ROOT
HETATM    1  N   UNL     1      -4.933  -0.032 -31.121  1.00  0.00    -0.247 N 
HETATM    2  C   UNL     1      -3.686   0.319 -31.632  1.00  0.00     0.241 C 
HETATM    3  O   UNL     1      -2.916   1.123 -31.108  1.00  0.00    -0.271 OA
HETATM    4  H   UNL     1      -5.439  -0.839 -31.456  1.00  0.00     0.192 HD
ENDROOT
BRANCH   1   5
HETATM    5  N   UNL     1      -5.418   0.643 -30.062  1.00  0.00    -0.184 NA
HETATM    6  C   UNL     1      -6.310   1.580 -30.173  1.00  0.00     0.153 C 
BRANCH   6   7
HETATM    7  C   UNL     1      -6.937   2.220 -31.328  1.00  0.00     0.018 A 
HETATM    8  C   UNL     1      -6.786   3.477 -31.913  1.00  0.00     0.018 A 
HETATM    9  C   UNL     1      -5.963   4.681 -31.625  1.00  0.00     0.069 C 
HETATM   10  N   UNL     1      -7.689   3.564 -32.952  1.00  0.00    -0.358 N 
HETATM   11  H   UNL     1      -7.806   4.371 -33.548  1.00  0.00     0.166 HD
HETATM   12  C   UNL     1      -8.495   2.459 -33.006  1.00  0.00     0.043 A 
HETATM   13  C   UNL     1      -8.039   1.584 -32.028  1.00  0.00     0.004 A 
HETATM   14  C   UNL     1      -9.590   2.184 -33.834  1.00  0.00     0.030 A 
HETATM   15  C   UNL     1      -8.711   0.347 -31.886  1.00  0.00     0.014 A 
HETATM   16  C   UNL     1      -9.812   0.053 -32.700  1.00  0.00     0.001 A 
HETATM   17  C   UNL     1     -10.247   0.964 -33.656  1.00  0.00     0.002 A 
ENDBRANCH   6   7
ENDBRANCH   1   5
BRANCH   2  18
HETATM   18  C   UNL     1      -3.367  -0.364 -32.950  1.00  0.00     0.145 C 
BRANCH  18  19
HETATM   19  C   UNL     1      -4.564  -1.003 -33.595  1.00  0.00    -0.021 A 
HETATM   20  C   UNL     1      -4.771  -2.389 -33.919  1.00  0.00    -0.001 A 
HETATM   21  C   UNL     1      -6.008  -2.490 -34.559  1.00  0.00     0.042 A 
HETATM   22  C   UNL     1      -4.031  -3.576 -33.729  1.00  0.00     0.014 A 
HETATM   23  C   UNL     1      -6.523  -3.702 -35.038  1.00  0.00     0.030 A 
HETATM   24  N   UNL     1      -6.553  -1.229 -34.588  1.00  0.00    -0.365 N 
HETATM   25  C   UNL     1      -5.754  -4.854 -34.856  1.00  0.00     0.002 A 
HETATM   26  C   UNL     1      -4.527  -4.795 -34.206  1.00  0.00     0.001 A 
HETATM   27  H   UNL     1      -7.462  -1.009 -34.971  1.00  0.00     0.165 HD
HETATM   28  C   UNL     1      -5.691  -0.327 -34.028  1.00  0.00     0.097 A 
ENDBRANCH  18  19
ENDBRANCH   2  18
TORSDOF 4
ENDMDL
MODEL 7
REMARK VINA RESULT:      -8.7      2.550      5.227
REMARK  4 active torsions:
REMARK  status: ('A' for Active; 'I' for Inactive)
REMARK    1  A    between atoms: C_7  and  C_8 
REMARK    2  A    between atoms: N_9  and  N_10 
REMARK       I    between atoms: N_10  and  C_11 
REMARK    3  A    between atoms: C_11  and  C_12 
REMARK    4  A    between atoms: C_12  and  C_13 
ROOT
HETATM    1  N   UNL     1      -6.282   4.172 -32.510  1.00  0.00    -0.247 N 
HETATM    2  C   UNL     1      -5.639   3.434 -31.519  1.00  0.00     0.241 C 
HETATM    3  O   UNL     1      -5.942   3.448 -30.327  1.00  0.00    -0.271 OA
HETATM    4  H   UNL     1      -6.149   3.978 -33.492  1.00  0.00     0.192 HD
ENDROOT
BRANCH   1   5
HETATM    5  N   UNL     1      -7.207   5.082 -32.149  1.00  0.00    -0.184 NA
HETATM    6  C   UNL     1      -8.457   4.986 -32.485  1.00  0.00     0.153 C 
BRANCH   6   7
HETATM    7  C   UNL     1      -9.185   4.052 -33.342  1.00  0.00     0.018 A 
HETATM    8  C   UNL     1      -9.936   4.221 -34.505  1.00  0.00     0.018 A 
HETATM    9  C   UNL     1     -10.325   5.382 -35.348  1.00  0.00     0.069 C 
HETATM   10  N   UNL     1     -10.451   2.989 -34.850  1.00  0.00    -0.358 N 
HETATM   11  H   UNL     1     -11.044   2.816 -35.650  1.00  0.00     0.166 HD
HETATM   12  C   UNL     1     -10.156   2.043 -33.907  1.00  0.00     0.043 A 
HETATM   13  C   UNL     1      -9.342   2.659 -32.964  1.00  0.00     0.004 A 
HETATM   14  C   UNL     1     -10.559   0.705 -33.818  1.00  0.00     0.030 A 
HETATM   15  C   UNL     1      -8.887   1.878 -31.875  1.00  0.00     0.014 A 
HETATM   16  C   UNL     1      -9.283   0.539 -31.764  1.00  0.00     0.001 A 
HETATM   17  C   UNL     1     -10.112  -0.035 -32.721  1.00  0.00     0.002 A 
ENDBRANCH   6   7
ENDBRANCH   1   5
BRANCH   2  18
HETATM   18  C   UNL     1      -4.471   2.618 -32.047  1.00  0.00     0.145 C 
BRANCH  18  19
HETATM   19  C   UNL     1      -4.814   1.176 -32.291  1.00  0.00    -0.021 A 
HETATM   20  C   UNL     1      -5.653   0.618 -33.317  1.00  0.00    -0.001 A 
HETATM   21  C   UNL     1      -5.717  -0.761 -33.104  1.00  0.00     0.042 A 
HETATM   22  C   UNL     1      -6.366   1.146 -34.415  1.00  0.00     0.014 A 
HETATM   23  C   UNL     1      -6.473  -1.623 -33.908  1.00  0.00     0.030 A 
HETATM   24  N   UNL     1      -4.919  -1.040 -32.021  1.00  0.00    -0.365 N 
HETATM   25  C   UNL     1      -7.188  -1.065 -34.971  1.00  0.00     0.002 A 
HETATM   26  C   UNL     1      -7.132   0.301 -35.226  1.00  0.00     0.001 A 
HETATM   27  H   UNL     1      -4.755  -1.969 -31.657  1.00  0.00     0.165 HD
HETATM   28  C   UNL     1      -4.384   0.113 -31.516  1.00  0.00     0.097 A 
ENDBRANCH  18  19
ENDBRANCH   2  18
TORSDOF 4
ENDMDL
MODEL 8
REMARK VINA RESULT:      -8.6      2.156      4.523
REMARK  4 active torsions:
REMARK  status: ('A' for Active; 'I' for Inactive)
REMARK    1  A    between atoms: C_7  and  C_8 
REMARK    2  A    between atoms: N_9  and  N_10 
REMARK       I    between atoms: N_10  and  C_11 
REMARK    3  A    between atoms: C_11  and  C_12 
REMARK    4  A    between atoms: C_12  and  C_13 
ROOT
HETATM    1  N   UNL     1      -4.420   2.288 -30.813  1.00  0.00    -0.247 N 
HETATM    2  C   UNL     1      -4.432   0.902 -30.672  1.00  0.00     0.241 C 
HETATM    3  O   UNL     1      -5.269   0.271 -30.029  1.00  0.00    -0.271 OA
HETATM    4  H   UNL     1      -3.854   2.749 -31.510  1.00  0.00     0.192 HD
ENDROOT
BRANCH   1   5
HETATM    5  N   UNL     1      -5.285   3.024 -30.089  1.00  0.00    -0.184 NA
HETATM    6  C   UNL     1      -6.418   3.444 -30.561  1.00  0.00     0.153 C 
BRANCH   6   7
HETATM    7  C   UNL     1      -7.029   3.371 -31.887  1.00  0.00     0.018 A 
HETATM    8  C   UNL     1      -7.051   4.251 -32.969  1.00  0.00     0.018 A 
HETATM    9  C   UNL     1      -6.497   5.603 -33.239  1.00  0.00     0.069 C 
HETATM   10  N   UNL     1      -7.841   3.685 -33.948  1.00  0.00    -0.358 N 
HETATM   11  H   UNL     1      -8.041   4.109 -34.844  1.00  0.00     0.166 HD
HETATM   12  C   UNL     1      -8.421   2.525 -33.513  1.00  0.00     0.043 A 
HETATM   13  C   UNL     1      -7.916   2.278 -32.242  1.00  0.00     0.004 A 
HETATM   14  C   UNL     1      -9.355   1.694 -34.144  1.00  0.00     0.030 A 
HETATM   15  C   UNL     1      -8.361   1.115 -31.571  1.00  0.00     0.014 A 
HETATM   16  C   UNL     1      -9.299   0.273 -32.181  1.00  0.00     0.001 A 
HETATM   17  C   UNL     1      -9.791   0.564 -33.449  1.00  0.00     0.002 A 
ENDBRANCH   6   7
ENDBRANCH   1   5
BRANCH   2  18
HETATM   18  C   UNL     1      -3.265   0.222 -31.369  1.00  0.00     0.145 C 
BRANCH  18  19
HETATM   19  C   UNL     1      -3.672  -0.973 -32.182  1.00  0.00    -0.021 A 
HETATM   20  C   UNL     1      -4.702  -1.065 -33.181  1.00  0.00    -0.001 A 
HETATM   21  C   UNL     1      -4.746  -2.391 -33.619  1.00  0.00     0.042 A 
HETATM   22  C   UNL     1      -5.605  -0.151 -33.766  1.00  0.00     0.014 A 
HETATM   23  C   UNL     1      -5.656  -2.848 -34.580  1.00  0.00     0.030 A 
HETATM   24  N   UNL     1      -3.758  -3.071 -32.947  1.00  0.00    -0.365 N 
HETATM   25  C   UNL     1      -6.553  -1.923 -35.120  1.00  0.00     0.002 A 
HETATM   26  C   UNL     1      -6.526  -0.591 -34.724  1.00  0.00     0.001 A 
HETATM   27  H   UNL     1      -3.542  -4.048 -33.087  1.00  0.00     0.165 HD
HETATM   28  C   UNL     1      -3.118  -2.236 -32.073  1.00  0.00     0.097 A 
ENDBRANCH  18  19
ENDBRANCH   2  18
TORSDOF 4
ENDMDL
MODEL 9
REMARK VINA RESULT:      -8.5      3.016      5.714
REMARK  4 active torsions:
REMARK  status: ('A' for Active; 'I' for Inactive)
REMARK    1  A    between atoms: C_7  and  C_8 
REMARK    2  A    between atoms: N_9  and  N_10 
REMARK       I    between atoms: N_10  and  C_11 
REMARK    3  A    between atoms: C_11  and  C_12 
REMARK    4  A    between atoms: C_12  and  C_13 
ROOT
HETATM    1  N   UNL     1      -8.195   1.856 -34.038  1.00  0.00    -0.247 N 
HETATM    2  C   UNL     1      -8.007   0.529 -33.661  1.00  0.00     0.241 C 
HETATM    3  O   UNL     1      -8.226   0.083 -32.535  1.00  0.00    -0.271 OA
HETATM    4  H   UNL     1      -8.210   2.138 -35.008  1.00  0.00     0.192 HD
ENDROOT
BRANCH   1   5
HETATM    5  N   UNL     1      -8.497   2.767 -33.094  1.00  0.00    -0.184 NA
HETATM    6  C   UNL     1      -9.661   3.333 -33.008  1.00  0.00     0.153 C 
BRANCH   6   7
HETATM    7  C   UNL     1     -10.857   3.274 -33.847  1.00  0.00     0.018 A 
HETATM    8  C   UNL     1     -11.520   4.228 -34.620  1.00  0.00     0.018 A 
HETATM    9  C   UNL     1     -11.320   5.672 -34.909  1.00  0.00     0.069 C 
HETATM   10  N   UNL     1     -12.641   3.625 -35.152  1.00  0.00    -0.358 N 
HETATM   11  H   UNL     1     -13.314   4.086 -35.749  1.00  0.00     0.166 HD
HETATM   12  C   UNL     1     -12.795   2.351 -34.678  1.00  0.00     0.043 A 
HETATM   13  C   UNL     1     -11.687   2.084 -33.884  1.00  0.00     0.004 A 
HETATM   14  C   UNL     1     -13.833   1.435 -34.884  1.00  0.00     0.030 A 
HETATM   15  C   UNL     1     -11.605   0.809 -33.275  1.00  0.00     0.014 A 
HETATM   16  C   UNL     1     -12.634  -0.122 -33.464  1.00  0.00     0.001 A 
HETATM   17  C   UNL     1     -13.735   0.192 -34.254  1.00  0.00     0.002 A 
ENDBRANCH   6   7
ENDBRANCH   1   5
BRANCH   2  18
HETATM   18  C   UNL     1      -7.455  -0.338 -34.780  1.00  0.00     0.145 C 
BRANCH  18  19
HETATM   19  C   UNL     1      -6.194  -1.063 -34.405  1.00  0.00    -0.021 A 
HETATM   20  C   UNL     1      -5.907  -2.468 -34.511  1.00  0.00    -0.001 A 
HETATM   21  C   UNL     1      -4.630  -2.678 -33.986  1.00  0.00     0.042 A 
HETATM   22  C   UNL     1      -6.604  -3.591 -35.007  1.00  0.00     0.014 A 
HETATM   23  C   UNL     1      -4.034  -3.943 -33.907  1.00  0.00     0.030 A 
HETATM   24  N   UNL     1      -4.140  -1.449 -33.614  1.00  0.00    -0.365 N 
HETATM   25  C   UNL     1      -4.762  -5.037 -34.383  1.00  0.00     0.002 A 
HETATM   26  C   UNL     1      -6.028  -4.865 -34.931  1.00  0.00     0.001 A 
HETATM   27  H   UNL     1      -3.220  -1.295 -33.225  1.00  0.00     0.165 HD
HETATM   28  C   UNL     1      -5.073  -0.476 -33.845  1.00  0.00     0.097 A 
ENDBRANCH  18  19
ENDBRANCH   2  18
TORSDOF 4
ENDMDL
MODEL 10
REMARK VINA RESULT:      -8.5      2.962      4.317
REMARK  4 active torsions:
REMARK  status: ('A' for Active; 'I' for Inactive)
REMARK    1  A    between atoms: C_7  and  C_8 
REMARK    2  A    between atoms: N_9  and  N_10 
REMARK       I    between atoms: N_10  and  C_11 
REMARK    3  A    between atoms: C_11  and  C_12 
REMARK    4  A    between atoms: C_12  and  C_13 
ROOT
HETATM    1  N   UNL     1      -5.045   3.523 -29.772  1.00  0.00    -0.247 N 
HETATM    2  C   UNL     1      -5.701   2.565 -30.541  1.00  0.00     0.241 C 
HETATM    3  O   UNL     1      -6.430   2.816 -31.500  1.00  0.00    -0.271 OA
HETATM    4  H   UNL     1      -4.298   3.277 -29.137  1.00  0.00     0.192 HD
ENDROOT
BRANCH   1   5
HETATM    5  N   UNL     1      -5.321   4.825 -29.975  1.00  0.00    -0.184 NA
HETATM    6  C   UNL     1      -4.504   5.632 -30.580  1.00  0.00     0.153 C 
BRANCH   6   7
HETATM    7  C   UNL     1      -3.144   5.468 -31.089  1.00  0.00     0.018 A 
HETATM    8  C   UNL     1      -2.577   4.591 -32.014  1.00  0.00     0.018 A 
HETATM    9  C   UNL     1      -3.083   3.470 -32.848  1.00  0.00     0.069 C 
HETATM   10  N   UNL     1      -1.223   4.851 -32.058  1.00  0.00    -0.358 N 
HETATM   11  H   UNL     1      -0.561   4.357 -32.639  1.00  0.00     0.166 HD
HETATM   12  C   UNL     1      -0.864   5.787 -31.127  1.00  0.00     0.043 A 
HETATM   13  C   UNL     1      -2.038   6.219 -30.521  1.00  0.00     0.004 A 
HETATM   14  C   UNL     1       0.404   6.265 -30.775  1.00  0.00     0.030 A 
HETATM   15  C   UNL     1      -1.935   7.207 -29.514  1.00  0.00     0.014 A 
HETATM   16  C   UNL     1      -0.676   7.696 -29.143  1.00  0.00     0.001 A 
HETATM   17  C   UNL     1       0.477   7.225 -29.763  1.00  0.00     0.002 A 
ENDBRANCH   6   7
ENDBRANCH   1   5
BRANCH   2  18
HETATM   18  C   UNL     1      -5.465   1.145 -30.056  1.00  0.00     0.145 C 
BRANCH  18  19
HETATM   19  C   UNL     1      -4.741   0.286 -31.053  1.00  0.00    -0.021 A 
HETATM   20  C   UNL     1      -5.290  -0.462 -32.152  1.00  0.00    -0.001 A 
HETATM   21  C   UNL     1      -4.236  -1.150 -32.759  1.00  0.00     0.042 A 
HETATM   22  C   UNL     1      -6.581  -0.624 -32.699  1.00  0.00     0.014 A 
HETATM   23  C   UNL     1      -4.413  -2.003 -33.856  1.00  0.00     0.030 A 
HETATM   24  N   UNL     1      -3.088  -0.804 -32.088  1.00  0.00    -0.365 N 
HETATM   25  C   UNL     1      -5.708  -2.161 -34.356  1.00  0.00     0.002 A 
HETATM   26  C   UNL     1      -6.778  -1.478 -33.790  1.00  0.00     0.001 A 
HETATM   27  H   UNL     1      -2.164  -1.134 -32.332  1.00  0.00     0.165 HD
HETATM   28  C   UNL     1      -3.379   0.043 -31.055  1.00  0.00     0.097 A 
ENDBRANCH  18  19
ENDBRANCH   2  18
TORSDOF 4
ENDMDL
