MODEL 1
REMARK VINA RESULT:      -9.2      0.000      0.000
REMARK  6 active torsions:
REMARK  status: ('A' for Active; 'I' for Inactive)
REMARK    1  A    between atoms: C_4  and  C_5 
REMARK    2  A    between atoms: C_7  and  N_8 
REMARK       I    between atoms: N_8  and  C_9 
REMARK    3  A    between atoms: C_9  and  C_10 
REMARK    4  A    between atoms: C_10  and  N_11 
REMARK    5  A    between atoms: C_10  and  C_15 
REMARK       I    between atoms: N_11  and  C_12 
REMARK       I    between atoms: C_12  and  N_13 
REMARK    6  A    between atoms: C_15  and  C_16 
ROOT
HETATM    1  N   UNL     1      -3.307   2.822 -32.673  1.00  0.00    -0.325 N 
HETATM    2  C   UNL     1      -4.673   2.679 -32.815  1.00  0.00     0.245 C 
HETATM    3  O   UNL     1      -5.468   3.573 -33.105  1.00  0.00    -0.271 OA
HETATM    4  H   UNL     1      -2.774   1.954 -32.604  1.00  0.00     0.169 HD
ENDROOT
BRANCH   2   5
HETATM    5  C   UNL     1      -5.194   1.235 -32.614  1.00  0.00     0.182 C 
BRANCH   5   6
HETATM    6  N   UNL     1      -5.882   1.122 -31.320  1.00  0.00    -0.334 N 
HETATM    7  C   UNL     1      -5.301   0.591 -30.213  1.00  0.00     0.292 C 
HETATM    8  N   UNL     1      -6.104   0.651 -29.126  1.00  0.00    -0.254 NA
HETATM    9  O   UNL     1      -4.183   0.097 -30.172  1.00  0.00    -0.254 OA
HETATM   10  H   UNL     1      -7.091   0.500 -29.283  1.00  0.00     0.128 HD
HETATM   11  H   UNL     1      -5.735   0.155 -28.324  1.00  0.00     0.128 HD
HETATM   12  H   UNL     1      -6.636   1.770 -31.149  1.00  0.00     0.164 HD
ENDBRANCH   5   6
BRANCH   5  13
HETATM   13  C   UNL     1      -6.016   0.677 -33.792  1.00  0.00     0.073 C 
BRANCH  13  14
HETATM   14  C   UNL     1      -5.922  -0.800 -34.115  1.00  0.00    -0.056 A 
HETATM   15  C   UNL     1      -6.997  -1.578 -34.566  1.00  0.00     0.007 A 
HETATM   16  C   UNL     1      -6.828  -2.941 -34.827  1.00  0.00     0.001 A 
HETATM   17  C   UNL     1      -5.585  -3.543 -34.659  1.00  0.00     0.000 A 
HETATM   18  C   UNL     1      -4.502  -2.782 -34.232  1.00  0.00     0.001 A 
HETATM   19  C   UNL     1      -4.670  -1.423 -33.964  1.00  0.00     0.007 A 
ENDBRANCH  13  14
ENDBRANCH   5  13
ENDBRANCH   2   5
BRANCH   1  20
HETATM   20  C   UNL     1      -2.553   4.011 -32.692  1.00  0.00     0.035 A 
HETATM   21  C   UNL     1      -2.116   4.682 -31.546  1.00  0.00     0.045 A 
HETATM   22  C   UNL     1      -1.357   5.862 -31.641  1.00  0.00     0.019 A 
HETATM   23  C   UNL     1      -1.017   6.345 -32.911  1.00  0.00     0.016 A 
HETATM   24  C   UNL     1      -1.445   5.684 -34.060  1.00  0.00     0.003 A 
HETATM   25  C   UNL     1      -2.219   4.528 -33.950  1.00  0.00     0.029 A 
BRANCH  22  26
HETATM   26  C   UNL     1      -0.931   6.599 -30.453  1.00  0.00     0.180 A 
HETATM   27  N   UNL     1       0.285   6.964 -30.087  1.00  0.00    -0.226 NA
HETATM   28  C   UNL     1       0.092   7.668 -28.919  1.00  0.00     0.063 A 
HETATM   29  C   UNL     1       1.228   8.251 -28.178  1.00  0.00     0.073 C 
HETATM   30  C   UNL     1      -1.255   7.714 -28.628  1.00  0.00     0.076 A 
HETATM   31  O   UNL     1      -1.918   7.024 -29.602  1.00  0.00    -0.294 OA
HETATM   32  C   UNL     1      -2.067   8.315 -27.557  1.00  0.00     0.079 C 
ENDBRANCH  22  26
ENDBRANCH   1  20
TORSDOF 6
ENDMDL
MODEL 2
REMARK VINA RESULT:      -9.1      2.439      4.119
REMARK  6 active torsions:
REMARK  status: ('A' for Active; 'I' for Inactive)
REMARK    1  A    between atoms: C_4  and  C_5 
REMARK    2  A    between atoms: C_7  and  N_8 
REMARK       I    between atoms: N_8  and  C_9 
REMARK    3  A    between atoms: C_9  and  C_10 
REMARK    4  A    between atoms: C_10  and  N_11 
REMARK    5  A    between atoms: C_10  and  C_15 
REMARK       I    between atoms: N_11  and  C_12 
REMARK       I    between atoms: C_12  and  N_13 
REMARK    6  A    between atoms: C_15  and  C_16 
ROOT
HETATM    1  N   UNL     1      -6.462   1.263 -32.085  1.00  0.00    -0.325 N 
HETATM    2  C   UNL     1      -6.783   1.062 -33.413  1.00  0.00     0.245 C 
HETATM    3  O   UNL     1      -6.534   1.830 -34.342  1.00  0.00    -0.271 OA
HETATM    4  H   UNL     1      -6.581   0.456 -31.473  1.00  0.00     0.169 HD
ENDROOT
BRANCH   2   5
HETATM    5  C   UNL     1      -7.489  -0.283 -33.709  1.00  0.00     0.182 C 
BRANCH   5   6
HETATM    6  N   UNL     1      -8.945  -0.087 -33.771  1.00  0.00    -0.334 N 
HETATM    7  C   UNL     1      -9.708   0.167 -32.676  1.00  0.00     0.292 C 
HETATM    8  N   UNL     1     -11.008   0.375 -32.987  1.00  0.00    -0.254 NA
HETATM    9  O   UNL     1      -9.298   0.203 -31.524  1.00  0.00    -0.254 OA
HETATM   10  H   UNL     1     -11.391  -0.190 -33.733  1.00  0.00     0.128 HD
HETATM   11  H   UNL     1     -11.609   0.448 -32.175  1.00  0.00     0.128 HD
HETATM   12  H   UNL     1      -9.323   0.233 -34.649  1.00  0.00     0.164 HD
ENDBRANCH   5   6
BRANCH   5  13
HETATM   13  C   UNL     1      -6.926  -1.054 -34.919  1.00  0.00     0.073 C 
BRANCH  13  14
HETATM   14  C   UNL     1      -6.120  -2.312 -34.674  1.00  0.00    -0.056 A 
HETATM   15  C   UNL     1      -4.831  -2.328 -34.125  1.00  0.00     0.007 A 
HETATM   16  C   UNL     1      -4.149  -3.535 -33.946  1.00  0.00     0.001 A 
HETATM   17  C   UNL     1      -4.748  -4.742 -34.294  1.00  0.00     0.000 A 
HETATM   18  C   UNL     1      -6.035  -4.747 -34.821  1.00  0.00     0.001 A 
HETATM   19  C   UNL     1      -6.714  -3.542 -35.007  1.00  0.00     0.007 A 
ENDBRANCH  13  14
ENDBRANCH   5  13
ENDBRANCH   2   5
BRANCH   1  20
HETATM   20  C   UNL     1      -5.916   2.416 -31.489  1.00  0.00     0.035 A 
HETATM   21  C   UNL     1      -4.785   3.087 -31.967  1.00  0.00     0.045 A 
HETATM   22  C   UNL     1      -4.300   4.240 -31.326  1.00  0.00     0.019 A 
HETATM   23  C   UNL     1      -4.987   4.728 -30.207  1.00  0.00     0.016 A 
HETATM   24  C   UNL     1      -6.116   4.069 -29.722  1.00  0.00     0.003 A 
HETATM   25  C   UNL     1      -6.570   2.912 -30.356  1.00  0.00     0.029 A 
BRANCH  22  26
HETATM   26  C   UNL     1      -3.095   4.926 -31.786  1.00  0.00     0.180 A 
HETATM   27  N   UNL     1      -2.177   5.565 -31.084  1.00  0.00    -0.226 NA
HETATM   28  C   UNL     1      -1.253   5.971 -32.021  1.00  0.00     0.063 A 
HETATM   29  C   UNL     1      -0.052   6.735 -31.631  1.00  0.00     0.073 C 
HETATM   30  C   UNL     1      -1.646   5.541 -33.269  1.00  0.00     0.076 A 
HETATM   31  O   UNL     1      -2.831   4.877 -33.130  1.00  0.00    -0.294 OA
HETATM   32  C   UNL     1      -1.088   5.644 -34.628  1.00  0.00     0.079 C 
ENDBRANCH  22  26
ENDBRANCH   1  20
TORSDOF 6
ENDMDL
MODEL 3
REMARK VINA RESULT:      -8.9      2.070      2.985
REMARK  6 active torsions:
REMARK  status: ('A' for Active; 'I' for Inactive)
REMARK    1  A    between atoms: C_4  and  C_5 
REMARK    2  A    between atoms: C_7  and  N_8 
REMARK       I    between atoms: N_8  and  C_9 
REMARK    3  A    between atoms: C_9  and  C_10 
REMARK    4  A    between atoms: C_10  and  N_11 
REMARK    5  A    between atoms: C_10  and  C_15 
REMARK       I    between atoms: N_11  and  C_12 
REMARK       I    between atoms: C_12  and  N_13 
REMARK    6  A    between atoms: C_15  and  C_16 
ROOT
HETATM    1  N   UNL     1      -5.615   2.023 -33.184  1.00  0.00    -0.325 N 
HETATM    2  C   UNL     1      -6.120   1.261 -32.150  1.00  0.00     0.245 C 
HETATM    3  O   UNL     1      -6.201   1.604 -30.970  1.00  0.00    -0.271 OA
HETATM    4  H   UNL     1      -5.780   1.662 -34.124  1.00  0.00     0.169 HD
ENDROOT
BRANCH   2   5
HETATM    5  C   UNL     1      -6.651  -0.130 -32.574  1.00  0.00     0.182 C 
BRANCH   5   6
HETATM    6  N   UNL     1      -8.101  -0.208 -32.348  1.00  0.00    -0.334 N 
HETATM    7  C   UNL     1      -8.999   0.566 -33.010  1.00  0.00     0.292 C 
HETATM    8  N   UNL     1     -10.279   0.272 -32.684  1.00  0.00    -0.254 NA
HETATM    9  O   UNL     1      -8.716   1.446 -33.812  1.00  0.00    -0.254 OA
HETATM   10  H   UNL     1     -10.455   0.031 -31.719  1.00  0.00     0.128 HD
HETATM   11  H   UNL     1     -10.953   0.917 -33.078  1.00  0.00     0.128 HD
HETATM   12  H   UNL     1      -8.459  -1.081 -31.990  1.00  0.00     0.164 HD
ENDBRANCH   5   6
BRANCH   5  13
HETATM   13  C   UNL     1      -6.229  -0.577 -33.987  1.00  0.00     0.073 C 
BRANCH  13  14
HETATM   14  C   UNL     1      -5.873  -2.031 -34.220  1.00  0.00    -0.056 A 
HETATM   15  C   UNL     1      -4.592  -2.567 -34.035  1.00  0.00     0.007 A 
HETATM   16  C   UNL     1      -4.345  -3.921 -34.287  1.00  0.00     0.001 A 
HETATM   17  C   UNL     1      -5.373  -4.759 -34.708  1.00  0.00     0.000 A 
HETATM   18  C   UNL     1      -6.655  -4.247 -34.875  1.00  0.00     0.001 A 
HETATM   19  C   UNL     1      -6.902  -2.896 -34.631  1.00  0.00     0.007 A 
ENDBRANCH  13  14
ENDBRANCH   5  13
ENDBRANCH   2   5
BRANCH   1  20
HETATM   20  C   UNL     1      -4.972   3.274 -33.107  1.00  0.00     0.035 A 
HETATM   21  C   UNL     1      -3.858   3.536 -32.303  1.00  0.00     0.045 A 
HETATM   22  C   UNL     1      -3.261   4.808 -32.283  1.00  0.00     0.019 A 
HETATM   23  C   UNL     1      -3.785   5.812 -33.108  1.00  0.00     0.016 A 
HETATM   24  C   UNL     1      -4.894   5.562 -33.914  1.00  0.00     0.003 A 
HETATM   25  C   UNL     1      -5.491   4.301 -33.904  1.00  0.00     0.029 A 
BRANCH  22  26
HETATM   26  C   UNL     1      -2.125   5.110 -31.416  1.00  0.00     0.180 A 
HETATM   27  N   UNL     1      -1.049   4.386 -31.164  1.00  0.00    -0.226 NA
HETATM   28  C   UNL     1      -0.297   5.174 -30.321  1.00  0.00     0.063 A 
HETATM   29  C   UNL     1       1.004   4.712 -29.798  1.00  0.00     0.073 C 
HETATM   30  C   UNL     1      -0.950   6.368 -30.106  1.00  0.00     0.076 A 
HETATM   31  O   UNL     1      -2.127   6.333 -30.797  1.00  0.00    -0.294 OA
HETATM   32  C   UNL     1      -0.657   7.589 -29.336  1.00  0.00     0.079 C 
ENDBRANCH  22  26
ENDBRANCH   1  20
TORSDOF 6
ENDMDL
MODEL 4
REMARK VINA RESULT:      -8.9      5.364      9.188
REMARK  6 active torsions:
REMARK  status: ('A' for Active; 'I' for Inactive)
REMARK    1  A    between atoms: C_4  and  C_5 
REMARK    2  A    between atoms: C_7  and  N_8 
REMARK       I    between atoms: N_8  and  C_9 
REMARK    3  A    between atoms: C_9  and  C_10 
REMARK    4  A    between atoms: C_10  and  N_11 
REMARK    5  A    between atoms: C_10  and  C_15 
REMARK       I    between atoms: N_11  and  C_12 
REMARK       I    between atoms: C_12  and  N_13 
REMARK    6  A    between atoms: C_15  and  C_16 
ROOT
HETATM    1  N   UNL     1      -8.029   2.276 -33.761  1.00  0.00    -0.325 N 
HETATM    2  C   UNL     1      -9.269   2.113 -33.177  1.00  0.00     0.245 C 
HETATM    3  O   UNL     1      -9.520   1.419 -32.191  1.00  0.00    -0.271 OA
HETATM    4  H   UNL     1      -7.960   3.017 -34.458  1.00  0.00     0.169 HD
ENDROOT
BRANCH   2   5
HETATM    5  C   UNL     1     -10.406   2.926 -33.842  1.00  0.00     0.182 C 
BRANCH   5   6
HETATM    6  N   UNL     1      -9.840   3.987 -34.687  1.00  0.00    -0.334 N 
HETATM    7  C   UNL     1     -10.268   5.276 -34.649  1.00  0.00     0.292 C 
HETATM    8  N   UNL     1      -9.556   6.084 -35.468  1.00  0.00    -0.254 NA
HETATM    9  O   UNL     1     -11.197   5.690 -33.970  1.00  0.00    -0.254 OA
HETATM   10  H   UNL     1      -9.264   5.689 -36.351  1.00  0.00     0.128 HD
HETATM   11  H   UNL     1      -9.937   7.019 -35.542  1.00  0.00     0.128 HD
HETATM   12  H   UNL     1      -8.895   3.852 -35.015  1.00  0.00     0.164 HD
ENDBRANCH   5   6
BRANCH   5  13
HETATM   13  C   UNL     1     -11.470   2.076 -34.562  1.00  0.00     0.073 C 
BRANCH  13  14
HETATM   14  C   UNL     1     -12.856   1.974 -33.960  1.00  0.00    -0.056 A 
HETATM   15  C   UNL     1     -13.319   2.776 -32.908  1.00  0.00     0.007 A 
HETATM   16  C   UNL     1     -14.611   2.607 -32.400  1.00  0.00     0.001 A 
HETATM   17  C   UNL     1     -15.463   1.651 -32.944  1.00  0.00     0.000 A 
HETATM   18  C   UNL     1     -15.027   0.861 -34.003  1.00  0.00     0.001 A 
HETATM   19  C   UNL     1     -13.736   1.024 -34.507  1.00  0.00     0.007 A 
ENDBRANCH  13  14
ENDBRANCH   5  13
ENDBRANCH   2   5
BRANCH   1  20
HETATM   20  C   UNL     1      -6.831   1.601 -33.456  1.00  0.00     0.035 A 
HETATM   21  C   UNL     1      -6.560   0.278 -33.820  1.00  0.00     0.045 A 
HETATM   22  C   UNL     1      -5.337  -0.330 -33.489  1.00  0.00     0.019 A 
HETATM   23  C   UNL     1      -4.372   0.423 -32.807  1.00  0.00     0.016 A 
HETATM   24  C   UNL     1      -4.629   1.742 -32.441  1.00  0.00     0.003 A 
HETATM   25  C   UNL     1      -5.859   2.324 -32.754  1.00  0.00     0.029 A 
BRANCH  22  26
HETATM   26  C   UNL     1      -5.056  -1.725 -33.823  1.00  0.00     0.180 A 
HETATM   27  N   UNL     1      -4.050  -2.490 -33.441  1.00  0.00    -0.226 NA
HETATM   28  C   UNL     1      -4.316  -3.714 -34.014  1.00  0.00     0.063 A 
HETATM   29  C   UNL     1      -3.408  -4.863 -33.825  1.00  0.00     0.073 C 
HETATM   30  C   UNL     1      -5.499  -3.644 -34.718  1.00  0.00     0.076 A 
HETATM   31  O   UNL     1      -5.976  -2.369 -34.609  1.00  0.00    -0.294 OA
HETATM   32  C   UNL     1      -6.296  -4.596 -35.509  1.00  0.00     0.079 C 
ENDBRANCH  22  26
ENDBRANCH   1  20
TORSDOF 6
ENDMDL
MODEL 5
REMARK VINA RESULT:      -8.8      2.220      9.378
REMARK  6 active torsions:
REMARK  status: ('A' for Active; 'I' for Inactive)
REMARK    1  A    between atoms: C_4  and  C_5 
REMARK    2  A    between atoms: C_7  and  N_8 
REMARK       I    between atoms: N_8  and  C_9 
REMARK    3  A    between atoms: C_9  and  C_10 
REMARK    4  A    between atoms: C_10  and  N_11 
REMARK    5  A    between atoms: C_10  and  C_15 
REMARK       I    between atoms: N_11  and  C_12 
REMARK       I    between atoms: C_12  and  N_13 
REMARK    6  A    between atoms: C_15  and  C_16 
ROOT
HETATM    1  N   UNL     1      -2.868   4.731 -31.278  1.00  0.00    -0.325 N 
HETATM    2  C   UNL     1      -1.769   5.220 -31.957  1.00  0.00     0.245 C 
HETATM    3  O   UNL     1      -1.463   4.960 -33.121  1.00  0.00    -0.271 OA
HETATM    4  H   UNL     1      -3.073   5.179 -30.385  1.00  0.00     0.169 HD
ENDROOT
BRANCH   2   5
HETATM    5  C   UNL     1      -0.897   6.207 -31.145  1.00  0.00     0.182 C 
BRANCH   5   6
HETATM    6  N   UNL     1      -1.675   7.407 -30.804  1.00  0.00    -0.334 N 
HETATM    7  C   UNL     1      -1.988   8.371 -31.708  1.00  0.00     0.292 C 
HETATM    8  N   UNL     1      -2.765   9.345 -31.179  1.00  0.00    -0.254 NA
HETATM    9  O   UNL     1      -1.620   8.391 -32.874  1.00  0.00    -0.254 OA
HETATM   10  H   UNL     1      -2.568   9.612 -30.224  1.00  0.00     0.128 HD
HETATM   11  H   UNL     1      -2.909  10.128 -31.804  1.00  0.00     0.128 HD
HETATM   12  H   UNL     1      -2.292   7.337 -30.009  1.00  0.00     0.164 HD
ENDBRANCH   5   6
BRANCH   5  13
HETATM   13  C   UNL     1      -0.177   5.583 -29.933  1.00  0.00     0.073 C 
BRANCH  13  14
HETATM   14  C   UNL     1       0.215   6.477 -28.775  1.00  0.00    -0.056 A 
HETATM   15  C   UNL     1      -0.086   6.206 -27.433  1.00  0.00     0.007 A 
HETATM   16  C   UNL     1       0.300   7.094 -26.424  1.00  0.00     0.001 A 
HETATM   17  C   UNL     1       1.005   8.252 -26.736  1.00  0.00     0.000 A 
HETATM   18  C   UNL     1       1.331   8.526 -28.059  1.00  0.00     0.001 A 
HETATM   19  C   UNL     1       0.940   7.645 -29.069  1.00  0.00     0.007 A 
ENDBRANCH  13  14
ENDBRANCH   5  13
ENDBRANCH   2   5
BRANCH   1  20
HETATM   20  C   UNL     1      -3.784   3.750 -31.703  1.00  0.00     0.035 A 
HETATM   21  C   UNL     1      -3.473   2.393 -31.840  1.00  0.00     0.045 A 
HETATM   22  C   UNL     1      -4.443   1.466 -32.261  1.00  0.00     0.019 A 
HETATM   23  C   UNL     1      -5.744   1.919 -32.516  1.00  0.00     0.016 A 
HETATM   24  C   UNL     1      -6.065   3.268 -32.381  1.00  0.00     0.003 A 
HETATM   25  C   UNL     1      -5.086   4.180 -31.986  1.00  0.00     0.029 A 
BRANCH  22  26
HETATM   26  C   UNL     1      -4.122   0.053 -32.452  1.00  0.00     0.180 A 
HETATM   27  N   UNL     1      -3.452  -0.767 -31.662  1.00  0.00    -0.226 NA
HETATM   28  C   UNL     1      -3.496  -1.980 -32.314  1.00  0.00     0.063 A 
HETATM   29  C   UNL     1      -2.846  -3.178 -31.749  1.00  0.00     0.073 C 
HETATM   30  C   UNL     1      -4.215  -1.847 -33.483  1.00  0.00     0.076 A 
HETATM   31  O   UNL     1      -4.613  -0.544 -33.584  1.00  0.00    -0.294 OA
HETATM   32  C   UNL     1      -4.613  -2.758 -34.568  1.00  0.00     0.079 C 
ENDBRANCH  22  26
ENDBRANCH   1  20
TORSDOF 6
ENDMDL
MODEL 6
REMARK VINA RESULT:      -8.5      5.793      9.436
REMARK  6 active torsions:
REMARK  status: ('A' for Active; 'I' for Inactive)
REMARK    1  A    between atoms: C_4  and  C_5 
REMARK    2  A    between atoms: C_7  and  N_8 
REMARK       I    between atoms: N_8  and  C_9 
REMARK    3  A    between atoms: C_9  and  C_10 
REMARK    4  A    between atoms: C_10  and  N_11 
REMARK    5  A    between atoms: C_10  and  C_15 
REMARK       I    between atoms: N_11  and  C_12 
REMARK       I    between atoms: C_12  and  N_13 
REMARK    6  A    between atoms: C_15  and  C_16 
ROOT
HETATM    1  N   UNL     1      -9.562   1.195 -32.985  1.00  0.00    -0.325 N 
HETATM    2  C   UNL     1     -10.246   2.090 -33.783  1.00  0.00     0.245 C 
HETATM    3  O   UNL     1      -9.782   2.705 -34.744  1.00  0.00    -0.271 OA
HETATM    4  H   UNL     1     -10.134   0.643 -32.345  1.00  0.00     0.169 HD
ENDROOT
BRANCH   2   5
HETATM    5  C   UNL     1     -11.737   2.274 -33.413  1.00  0.00     0.182 C 
BRANCH   5   6
HETATM    6  N   UNL     1     -12.346   0.972 -33.106  1.00  0.00    -0.334 N 
HETATM    7  C   UNL     1     -13.327   0.414 -33.861  1.00  0.00     0.292 C 
HETATM    8  N   UNL     1     -13.685  -0.815 -33.423  1.00  0.00    -0.254 NA
HETATM    9  O   UNL     1     -13.857   0.941 -34.831  1.00  0.00    -0.254 OA
HETATM   10  H   UNL     1     -13.698  -0.952 -32.421  1.00  0.00     0.128 HD
HETATM   11  H   UNL     1     -14.494  -1.193 -33.900  1.00  0.00     0.128 HD
HETATM   12  H   UNL     1     -11.788   0.325 -32.569  1.00  0.00     0.164 HD
ENDBRANCH   5   6
BRANCH   5  13
HETATM   13  C   UNL     1     -12.006   3.341 -32.334  1.00  0.00     0.073 C 
BRANCH  13  14
HETATM   14  C   UNL     1     -10.856   4.203 -31.854  1.00  0.00    -0.056 A 
HETATM   15  C   UNL     1     -10.413   5.361 -32.509  1.00  0.00     0.007 A 
HETATM   16  C   UNL     1      -9.332   6.092 -32.006  1.00  0.00     0.001 A 
HETATM   17  C   UNL     1      -8.691   5.691 -30.838  1.00  0.00     0.000 A 
HETATM   18  C   UNL     1      -9.131   4.557 -30.165  1.00  0.00     0.001 A 
HETATM   19  C   UNL     1     -10.205   3.822 -30.668  1.00  0.00     0.007 A 
ENDBRANCH  13  14
ENDBRANCH   5  13
ENDBRANCH   2   5
BRANCH   1  20
HETATM   20  C   UNL     1      -8.186   0.893 -33.001  1.00  0.00     0.035 A 
HETATM   21  C   UNL     1      -7.655  -0.325 -33.437  1.00  0.00     0.045 A 
HETATM   22  C   UNL     1      -6.268  -0.554 -33.435  1.00  0.00     0.019 A 
HETATM   23  C   UNL     1      -5.415   0.474 -33.011  1.00  0.00     0.016 A 
HETATM   24  C   UNL     1      -5.933   1.692 -32.577  1.00  0.00     0.003 A 
HETATM   25  C   UNL     1      -7.313   1.895 -32.562  1.00  0.00     0.029 A 
BRANCH  22  26
HETATM   26  C   UNL     1      -5.700  -1.836 -33.845  1.00  0.00     0.180 A 
HETATM   27  N   UNL     1      -4.537  -2.376 -33.526  1.00  0.00    -0.226 NA
HETATM   28  C   UNL     1      -4.548  -3.603 -34.153  1.00  0.00     0.063 A 
HETATM   29  C   UNL     1      -3.403  -4.529 -34.044  1.00  0.00     0.073 C 
HETATM   30  C   UNL     1      -5.741  -3.766 -34.822  1.00  0.00     0.076 A 
HETATM   31  O   UNL     1      -6.483  -2.634 -34.638  1.00  0.00    -0.294 OA
HETATM   32  C   UNL     1      -6.338  -4.836 -35.639  1.00  0.00     0.079 C 
ENDBRANCH  22  26
ENDBRANCH   1  20
TORSDOF 6
ENDMDL
MODEL 7
REMARK VINA RESULT:      -8.4      3.262      4.875
REMARK  6 active torsions:
REMARK  status: ('A' for Active; 'I' for Inactive)
REMARK    1  A    between atoms: C_4  and  C_5 
REMARK    2  A    between atoms: C_7  and  N_8 
REMARK       I    between atoms: N_8  and  C_9 
REMARK    3  A    between atoms: C_9  and  C_10 
REMARK    4  A    between atoms: C_10  and  N_11 
REMARK    5  A    between atoms: C_10  and  C_15 
REMARK       I    between atoms: N_11  and  C_12 
REMARK       I    between atoms: C_12  and  N_13 
REMARK    6  A    between atoms: C_15  and  C_16 
ROOT
HETATM    1  N   UNL     1      -8.031   2.587 -33.170  1.00  0.00    -0.325 N 
HETATM    2  C   UNL     1      -8.353   1.655 -32.203  1.00  0.00     0.245 C 
HETATM    3  O   UNL     1      -8.380   1.853 -30.988  1.00  0.00    -0.271 OA
HETATM    4  H   UNL     1      -8.226   2.312 -34.133  1.00  0.00     0.169 HD
ENDROOT
BRANCH   2   5
HETATM    5  C   UNL     1      -8.739   0.262 -32.754  1.00  0.00     0.182 C 
BRANCH   5   6
HETATM    6  N   UNL     1     -10.199   0.095 -32.728  1.00  0.00    -0.334 N 
HETATM    7  C   UNL     1     -11.042   0.800 -33.526  1.00  0.00     0.292 C 
HETATM    8  N   UNL     1     -12.335   0.430 -33.371  1.00  0.00    -0.254 NA
HETATM    9  O   UNL     1     -10.705   1.683 -34.303  1.00  0.00    -0.254 OA
HETATM   10  H   UNL     1     -12.628   0.194 -32.433  1.00  0.00     0.128 HD
HETATM   11  H   UNL     1     -12.986   1.025 -33.869  1.00  0.00     0.128 HD
HETATM   12  H   UNL     1     -10.550  -0.793 -32.401  1.00  0.00     0.164 HD
ENDBRANCH   5   6
BRANCH   5  13
HETATM   13  C   UNL     1      -8.110  -0.089 -34.117  1.00  0.00     0.073 C 
BRANCH  13  14
HETATM   14  C   UNL     1      -6.878  -0.970 -34.149  1.00  0.00    -0.056 A 
HETATM   15  C   UNL     1      -6.856  -2.275 -34.657  1.00  0.00     0.007 A 
HETATM   16  C   UNL     1      -5.677  -3.027 -34.636  1.00  0.00     0.001 A 
HETATM   17  C   UNL     1      -4.503  -2.483 -34.125  1.00  0.00     0.000 A 
HETATM   18  C   UNL     1      -4.502  -1.181 -33.636  1.00  0.00     0.001 A 
HETATM   19  C   UNL     1      -5.679  -0.431 -33.651  1.00  0.00     0.007 A 
ENDBRANCH  13  14
ENDBRANCH   5  13
ENDBRANCH   2   5
BRANCH   1  20
HETATM   20  C   UNL     1      -7.544   3.895 -32.987  1.00  0.00     0.035 A 
HETATM   21  C   UNL     1      -6.208   4.269 -33.169  1.00  0.00     0.045 A 
HETATM   22  C   UNL     1      -5.794   5.598 -32.976  1.00  0.00     0.019 A 
HETATM   23  C   UNL     1      -6.751   6.559 -32.623  1.00  0.00     0.016 A 
HETATM   24  C   UNL     1      -8.085   6.198 -32.441  1.00  0.00     0.003 A 
HETATM   25  C   UNL     1      -8.476   4.870 -32.611  1.00  0.00     0.029 A 
BRANCH  22  26
HETATM   26  C   UNL     1      -4.395   5.996 -33.119  1.00  0.00     0.180 A 
HETATM   27  N   UNL     1      -3.701   6.879 -32.424  1.00  0.00    -0.226 NA
HETATM   28  C   UNL     1      -2.433   6.811 -32.956  1.00  0.00     0.063 A 
HETATM   29  C   UNL     1      -1.341   7.663 -32.445  1.00  0.00     0.073 C 
HETATM   30  C   UNL     1      -2.405   5.866 -33.958  1.00  0.00     0.076 A 
HETATM   31  O   UNL     1      -3.662   5.343 -34.076  1.00  0.00    -0.294 OA
HETATM   32  C   UNL     1      -1.370   5.340 -34.863  1.00  0.00     0.079 C 
ENDBRANCH  22  26
ENDBRANCH   1  20
TORSDOF 6
ENDMDL
MODEL 8
REMARK VINA RESULT:      -8.3      4.509      8.330
REMARK  6 active torsions:
REMARK  status: ('A' for Active; 'I' for Inactive)
REMARK    1  A    between atoms: C_4  and  C_5 
REMARK    2  A    between atoms: C_7  and  N_8 
REMARK       I    between atoms: N_8  and  C_9 
REMARK    3  A    between atoms: C_9  and  C_10 
REMARK    4  A    between atoms: C_10  and  N_11 
REMARK    5  A    between atoms: C_10  and  C_15 
REMARK       I    between atoms: N_11  and  C_12 
REMARK       I    between atoms: C_12  and  N_13 
REMARK    6  A    between atoms: C_15  and  C_16 
ROOT
HETATM    1  N   UNL     1      -6.792   2.404 -32.861  1.00  0.00    -0.325 N 
HETATM    2  C   UNL     1      -6.152   1.770 -31.814  1.00  0.00     0.245 C 
HETATM    3  O   UNL     1      -6.593   1.634 -30.672  1.00  0.00    -0.271 OA
HETATM    4  H   UNL     1      -6.369   2.278 -33.781  1.00  0.00     0.169 HD
ENDROOT
BRANCH   2   5
HETATM    5  C   UNL     1      -4.774   1.166 -32.172  1.00  0.00     0.182 C 
BRANCH   5   6
HETATM    6  N   UNL     1      -3.700   1.941 -31.534  1.00  0.00    -0.334 N 
HETATM    7  C   UNL     1      -3.288   3.153 -31.987  1.00  0.00     0.292 C 
HETATM    8  N   UNL     1      -2.334   3.704 -31.201  1.00  0.00    -0.254 NA
HETATM    9  O   UNL     1      -3.706   3.709 -32.993  1.00  0.00    -0.254 OA
HETATM   10  H   UNL     1      -1.654   3.071 -30.805  1.00  0.00     0.128 HD
HETATM   11  H   UNL     1      -1.933   4.550 -31.588  1.00  0.00     0.128 HD
HETATM   12  H   UNL     1      -3.529   1.760 -30.556  1.00  0.00     0.164 HD
ENDBRANCH   5   6
BRANCH   5  13
HETATM   13  C   UNL     1      -4.654  -0.352 -31.933  1.00  0.00     0.073 C 
BRANCH  13  14
HETATM   14  C   UNL     1      -5.130  -1.303 -33.012  1.00  0.00    -0.056 A 
HETATM   15  C   UNL     1      -6.429  -1.309 -33.539  1.00  0.00     0.007 A 
HETATM   16  C   UNL     1      -6.791  -2.232 -34.525  1.00  0.00     0.001 A 
HETATM   17  C   UNL     1      -5.862  -3.147 -35.010  1.00  0.00     0.000 A 
HETATM   18  C   UNL     1      -4.563  -3.141 -34.514  1.00  0.00     0.001 A 
HETATM   19  C   UNL     1      -4.201  -2.225 -33.525  1.00  0.00     0.007 A 
ENDBRANCH  13  14
ENDBRANCH   5  13
ENDBRANCH   2   5
BRANCH   1  20
HETATM   20  C   UNL     1      -7.996   3.134 -32.828  1.00  0.00     0.035 A 
HETATM   21  C   UNL     1      -9.265   2.563 -32.962  1.00  0.00     0.045 A 
HETATM   22  C   UNL     1     -10.426   3.353 -32.910  1.00  0.00     0.019 A 
HETATM   23  C   UNL     1     -10.295   4.731 -32.692  1.00  0.00     0.016 A 
HETATM   24  C   UNL     1      -9.036   5.311 -32.556  1.00  0.00     0.003 A 
HETATM   25  C   UNL     1      -7.891   4.517 -32.635  1.00  0.00     0.029 A 
BRANCH  22  26
HETATM   26  C   UNL     1     -11.756   2.777 -33.093  1.00  0.00     0.180 A 
HETATM   27  N   UNL     1     -12.132   1.765 -33.854  1.00  0.00    -0.226 NA
HETATM   28  C   UNL     1     -13.480   1.631 -33.602  1.00  0.00     0.063 A 
HETATM   29  C   UNL     1     -14.286   0.592 -34.274  1.00  0.00     0.073 C 
HETATM   30  C   UNL     1     -13.868   2.571 -32.672  1.00  0.00     0.076 A 
HETATM   31  O   UNL     1     -12.772   3.316 -32.347  1.00  0.00    -0.294 OA
HETATM   32  C   UNL     1     -15.136   2.911 -32.005  1.00  0.00     0.079 C 
ENDBRANCH  22  26
ENDBRANCH   1  20
TORSDOF 6
ENDMDL
MODEL 9
REMARK VINA RESULT:      -8.2      2.346      9.191
REMARK  6 active torsions:
REMARK  status: ('A' for Active; 'I' for Inactive)
REMARK    1  A    between atoms: C_4  and  C_5 
REMARK    2  A    between atoms: C_7  and  N_8 
REMARK       I    between atoms: N_8  and  C_9 
REMARK    3  A    between atoms: C_9  and  C_10 
REMARK    4  A    between atoms: C_10  and  N_11 
REMARK    5  A    between atoms: C_10  and  C_15 
REMARK       I    between atoms: N_11  and  C_12 
REMARK       I    between atoms: C_12  and  N_13 
REMARK    6  A    between atoms: C_15  and  C_16 
ROOT
HETATM    1  N   UNL     1      -5.587   3.383 -32.880  1.00  0.00    -0.325 N 
HETATM    2  C   UNL     1      -5.024   4.453 -33.546  1.00  0.00     0.245 C 
HETATM    3  O   UNL     1      -5.223   4.760 -34.722  1.00  0.00    -0.271 OA
HETATM    4  H   UNL     1      -5.457   3.371 -31.868  1.00  0.00     0.169 HD
ENDROOT
BRANCH   2   5
HETATM    5  C   UNL     1      -4.093   5.334 -32.679  1.00  0.00     0.182 C 
BRANCH   5   6
HETATM    6  N   UNL     1      -4.226   4.967 -31.262  1.00  0.00    -0.334 N 
HETATM    7  C   UNL     1      -4.829   5.763 -30.341  1.00  0.00     0.292 C 
HETATM    8  N   UNL     1      -4.890   5.187 -29.118  1.00  0.00    -0.254 NA
HETATM    9  O   UNL     1      -5.271   6.883 -30.559  1.00  0.00    -0.254 OA
HETATM   10  H   UNL     1      -4.093   4.631 -28.840  1.00  0.00     0.128 HD
HETATM   11  H   UNL     1      -5.228   5.812 -28.396  1.00  0.00     0.128 HD
HETATM   12  H   UNL     1      -4.212   3.982 -31.044  1.00  0.00     0.164 HD
ENDBRANCH   5   6
BRANCH   5  13
HETATM   13  C   UNL     1      -2.629   5.391 -33.159  1.00  0.00     0.073 C 
BRANCH  13  14
HETATM   14  C   UNL     1      -1.562   5.873 -32.197  1.00  0.00    -0.056 A 
HETATM   15  C   UNL     1      -0.450   5.114 -31.809  1.00  0.00     0.007 A 
HETATM   16  C   UNL     1       0.482   5.629 -30.903  1.00  0.00     0.001 A 
HETATM   17  C   UNL     1       0.328   6.913 -30.387  1.00  0.00     0.000 A 
HETATM   18  C   UNL     1      -0.758   7.688 -30.778  1.00  0.00     0.001 A 
HETATM   19  C   UNL     1      -1.693   7.173 -31.677  1.00  0.00     0.007 A 
ENDBRANCH  13  14
ENDBRANCH   5  13
ENDBRANCH   2   5
BRANCH   1  20
HETATM   20  C   UNL     1      -6.384   2.352 -33.412  1.00  0.00     0.035 A 
HETATM   21  C   UNL     1      -5.963   1.026 -33.554  1.00  0.00     0.045 A 
HETATM   22  C   UNL     1      -6.817   0.045 -34.086  1.00  0.00     0.019 A 
HETATM   23  C   UNL     1      -8.120   0.411 -34.451  1.00  0.00     0.016 A 
HETATM   24  C   UNL     1      -8.552   1.729 -34.312  1.00  0.00     0.003 A 
HETATM   25  C   UNL     1      -7.683   2.696 -33.806  1.00  0.00     0.029 A 
BRANCH  22  26
HETATM   26  C   UNL     1      -6.377  -1.334 -34.282  1.00  0.00     0.180 A 
HETATM   27  N   UNL     1      -6.968  -2.316 -34.939  1.00  0.00    -0.226 NA
HETATM   28  C   UNL     1      -6.090  -3.372 -34.837  1.00  0.00     0.063 A 
HETATM   29  C   UNL     1      -6.391  -4.681 -35.448  1.00  0.00     0.073 C 
HETATM   30  C   UNL     1      -4.979  -2.977 -34.124  1.00  0.00     0.076 A 
HETATM   31  O   UNL     1      -5.158  -1.675 -33.756  1.00  0.00    -0.294 OA
HETATM   32  C   UNL     1      -3.725  -3.628 -33.707  1.00  0.00     0.079 C 
ENDBRANCH  22  26
ENDBRANCH   1  20
TORSDOF 6
ENDMDL
MODEL 10
REMARK VINA RESULT:      -8.1      4.840      8.248
REMARK  6 active torsions:
REMARK  status: ('A' for Active; 'I' for Inactive)
REMARK    1  A    between atoms: C_4  and  C_5 
REMARK    2  A    between atoms: C_7  and  N_8 
REMARK       I    between atoms: N_8  and  C_9 
REMARK    3  A    between atoms: C_9  and  C_10 
REMARK    4  A    between atoms: C_10  and  N_11 
REMARK    5  A    between atoms: C_10  and  C_15 
REMARK       I    between atoms: N_11  and  C_12 
REMARK       I    between atoms: C_12  and  N_13 
REMARK    6  A    between atoms: C_15  and  C_16 
ROOT
HETATM    1  N   UNL     1      -7.898   1.625 -32.911  1.00  0.00    -0.325 N 
HETATM    2  C   UNL     1      -6.763   1.436 -33.674  1.00  0.00     0.245 C 
HETATM    3  O   UNL     1      -6.696   1.503 -34.901  1.00  0.00    -0.271 OA
HETATM    4  H   UNL     1      -7.749   1.709 -31.905  1.00  0.00     0.169 HD
ENDROOT
BRANCH   2   5
HETATM    5  C   UNL     1      -5.479   1.152 -32.858  1.00  0.00     0.182 C 
BRANCH   5   6
HETATM    6  N   UNL     1      -5.306   2.172 -31.815  1.00  0.00    -0.334 N 
HETATM    7  C   UNL     1      -4.092   2.644 -31.430  1.00  0.00     0.292 C 
HETATM    8  N   UNL     1      -4.186   3.624 -30.502  1.00  0.00    -0.254 NA
HETATM    9  O   UNL     1      -3.015   2.244 -31.850  1.00  0.00    -0.254 OA
HETATM   10  H   UNL     1      -4.916   3.523 -29.810  1.00  0.00     0.128 HD
HETATM   11  H   UNL     1      -3.291   3.903 -30.119  1.00  0.00     0.128 HD
HETATM   12  H   UNL     1      -6.086   2.792 -31.652  1.00  0.00     0.164 HD
ENDBRANCH   5   6
BRANCH   5  13
HETATM   13  C   UNL     1      -5.361  -0.290 -32.326  1.00  0.00     0.073 C 
BRANCH  13  14
HETATM   14  C   UNL     1      -5.518  -1.443 -33.295  1.00  0.00    -0.056 A 
HETATM   15  C   UNL     1      -6.746  -1.874 -33.815  1.00  0.00     0.007 A 
HETATM   16  C   UNL     1      -6.804  -2.960 -34.695  1.00  0.00     0.001 A 
HETATM   17  C   UNL     1      -5.640  -3.617 -35.081  1.00  0.00     0.000 A 
HETATM   18  C   UNL     1      -4.411  -3.189 -34.592  1.00  0.00     0.001 A 
HETATM   19  C   UNL     1      -4.351  -2.111 -33.708  1.00  0.00     0.007 A 
ENDBRANCH  13  14
ENDBRANCH   5  13
ENDBRANCH   2   5
BRANCH   1  20
HETATM   20  C   UNL     1      -9.224   1.796 -33.355  1.00  0.00     0.035 A 
HETATM   21  C   UNL     1      -9.717   2.978 -33.918  1.00  0.00     0.045 A 
HETATM   22  C   UNL     1     -11.051   3.075 -34.349  1.00  0.00     0.019 A 
HETATM   23  C   UNL     1     -11.881   1.952 -34.231  1.00  0.00     0.016 A 
HETATM   24  C   UNL     1     -11.400   0.769 -33.674  1.00  0.00     0.003 A 
HETATM   25  C   UNL     1     -10.080   0.697 -33.228  1.00  0.00     0.029 A 
BRANCH  22  26
HETATM   26  C   UNL     1     -11.594   4.315 -34.898  1.00  0.00     0.180 A 
HETATM   27  N   UNL     1     -12.846   4.628 -35.181  1.00  0.00    -0.226 NA
HETATM   28  C   UNL     1     -12.780   5.931 -35.623  1.00  0.00     0.063 A 
HETATM   29  C   UNL     1     -13.992   6.657 -36.049  1.00  0.00     0.073 C 
HETATM   30  C   UNL     1     -11.474   6.367 -35.575  1.00  0.00     0.076 A 
HETATM   31  O   UNL     1     -10.704   5.335 -35.119  1.00  0.00    -0.294 OA
HETATM   32  C   UNL     1     -10.787   7.630 -35.891  1.00  0.00     0.079 C 
ENDBRANCH  22  26
ENDBRANCH   1  20
TORSDOF 6
ENDMDL
