MODEL 1
REMARK VINA RESULT:      -7.5      0.000      0.000
REMARK  7 active torsions:
REMARK  status: ('A' for Active; 'I' for Inactive)
REMARK    1  A    between atoms: C_2  and  O_3 
REMARK    2  A    between atoms: O_3  and  C_4 
REMARK    3  A    between atoms: C_4  and  C_5 
REMARK    4  A    between atoms: C_6  and  C_7 
REMARK    5  A    between atoms: C_18  and  C_19 
REMARK    6  A    between atoms: C_19  and  N_20 
REMARK    7  A    between atoms: N_20  and  C_21 
ROOT
HETATM    1  C   UNL     1      -7.239   3.319 -32.288  1.00  0.00     0.068 A 
HETATM    2  C   UNL     1      -5.938   2.647 -32.628  1.00  0.00     0.161 A 
HETATM    3  N   UNL     1      -5.138   3.452 -33.533  1.00  0.00    -0.330 N 
HETATM    4  C   UNL     1      -5.547   4.591 -34.138  1.00  0.00     0.321 A 
HETATM    5  O   UNL     1      -4.843   5.173 -34.955  1.00  0.00    -0.247 OA
HETATM    6  N   UNL     1      -6.771   5.062 -33.781  1.00  0.00    -0.310 N 
HETATM    7  C   UNL     1      -7.618   4.480 -32.859  1.00  0.00     0.046 A 
HETATM    8  H   UNL     1      -4.235   3.107 -33.829  1.00  0.00     0.165 HD
HETATM    9  H   UNL     1      -7.034   5.932 -34.231  1.00  0.00     0.170 HD
ENDROOT
BRANCH   7  10
HETATM   10  C   UNL     1      -8.887   5.257 -32.565  1.00  0.00     0.177 C 
BRANCH  10  11
HETATM   11  N   UNL     1      -9.770   5.147 -33.713  1.00  0.00    -0.384 N 
HETATM   12  H   UNL     1     -10.097   6.028 -34.095  1.00  0.00     0.160 HD
BRANCH  11  13
HETATM   13  C   UNL     1     -10.676   4.096 -33.832  1.00  0.00     0.029 A 
HETATM   14  C   UNL     1     -11.758   4.040 -32.943  1.00  0.00     0.053 A 
HETATM   15  C   UNL     1     -12.753   3.059 -33.062  1.00  0.00     0.042 A 
HETATM   16 CL   UNL     1     -14.049   3.082 -31.919  1.00  0.00    -0.084 Cl
HETATM   17  C   UNL     1     -12.698   2.105 -34.085  1.00  0.00    -0.040 A 
HETATM   18  C   UNL     1     -13.757   1.056 -34.265  1.00  0.00     0.050 C 
HETATM   19  C   UNL     1     -11.640   2.179 -34.998  1.00  0.00     0.011 A 
HETATM   20  C   UNL     1     -10.653   3.166 -34.875  1.00  0.00     0.030 A 
ENDBRANCH  11  13
ENDBRANCH  10  11
ENDBRANCH   7  10
BRANCH   1  21
HETATM   21  C   UNL     1      -8.108   2.626 -31.309  1.00  0.00     0.293 C 
HETATM   22  O   UNL     1      -7.947   2.643 -30.101  1.00  0.00    -0.259 OA
BRANCH  21  23
HETATM   23  O   UNL     1      -9.088   1.955 -31.966  1.00  0.00    -0.318 OA
BRANCH  23  24
HETATM   24  C   UNL     1      -9.201   0.560 -31.642  1.00  0.00     0.174 C 
HETATM   25  C   UNL     1      -9.932  -0.174 -32.749  1.00  0.00     0.034 C 
ENDBRANCH  23  24
ENDBRANCH  21  23
ENDBRANCH   1  21
BRANCH   2  26
HETATM   26  C   UNL     1      -6.105   1.249 -33.211  1.00  0.00    -0.031 A 
HETATM   27  C   UNL     1      -5.616   0.116 -32.538  1.00  0.00     0.011 A 
HETATM   28  C   UNL     1      -5.776  -1.160 -33.083  1.00  0.00     0.024 A 
HETATM   29  C   UNL     1      -6.423  -1.314 -34.306  1.00  0.00     0.034 A 
HETATM   30 CL   UNL     1      -6.622  -2.885 -34.978  1.00  0.00    -0.084 Cl
HETATM   31  C   UNL     1      -6.910  -0.203 -34.991  1.00  0.00     0.024 A 
HETATM   32  C   UNL     1      -6.753   1.073 -34.445  1.00  0.00     0.011 A 
ENDBRANCH   2  26
TORSDOF 7
ENDMDL
MODEL 2
REMARK VINA RESULT:      -7.5      3.248      5.791
REMARK  7 active torsions:
REMARK  status: ('A' for Active; 'I' for Inactive)
REMARK    1  A    between atoms: C_2  and  O_3 
REMARK    2  A    between atoms: O_3  and  C_4 
REMARK    3  A    between atoms: C_4  and  C_5 
REMARK    4  A    between atoms: C_6  and  C_7 
REMARK    5  A    between atoms: C_18  and  C_19 
REMARK    6  A    between atoms: C_19  and  N_20 
REMARK    7  A    between atoms: N_20  and  C_21 
ROOT
HETATM    1  C   UNL     1      -7.403   4.214 -32.093  1.00  0.00     0.068 A 
HETATM    2  C   UNL     1      -7.018   5.556 -32.648  1.00  0.00     0.161 A 
HETATM    3  N   UNL     1      -7.917   5.979 -33.706  1.00  0.00    -0.330 N 
HETATM    4  C   UNL     1      -8.891   5.218 -34.257  1.00  0.00     0.321 A 
HETATM    5  O   UNL     1      -9.558   5.615 -35.205  1.00  0.00    -0.247 OA
HETATM    6  N   UNL     1      -9.100   3.998 -33.694  1.00  0.00    -0.310 N 
HETATM    7  C   UNL     1      -8.408   3.482 -32.616  1.00  0.00     0.046 A 
HETATM    8  H   UNL     1      -7.763   6.872 -34.154  1.00  0.00     0.165 HD
HETATM    9  H   UNL     1      -9.856   3.466 -34.111  1.00  0.00     0.170 HD
ENDROOT
BRANCH   7  10
HETATM   10  C   UNL     1      -8.898   2.137 -32.114  1.00  0.00     0.177 C 
BRANCH  10  11
HETATM   11  N   UNL     1      -8.961   1.222 -33.240  1.00  0.00    -0.384 N 
HETATM   12  H   UNL     1      -9.873   0.809 -33.414  1.00  0.00     0.160 HD
BRANCH  11  13
HETATM   13  C   UNL     1      -7.885   0.401 -33.567  1.00  0.00     0.029 A 
HETATM   14  C   UNL     1      -6.912   0.153 -32.590  1.00  0.00     0.053 A 
HETATM   15  C   UNL     1      -5.850  -0.733 -32.824  1.00  0.00     0.042 A 
HETATM   16 CL   UNL     1      -4.706  -0.974 -31.550  1.00  0.00    -0.084 Cl
HETATM   17  C   UNL     1      -5.735  -1.405 -34.046  1.00  0.00    -0.040 A 
HETATM   18  C   UNL     1      -4.629  -2.383 -34.326  1.00  0.00     0.050 C 
HETATM   19  C   UNL     1      -6.724  -1.190 -35.011  1.00  0.00     0.011 A 
HETATM   20  C   UNL     1      -7.786  -0.308 -34.767  1.00  0.00     0.030 A 
ENDBRANCH  11  13
ENDBRANCH  10  11
ENDBRANCH   7  10
BRANCH   1  21
HETATM   21  C   UNL     1      -6.603   3.713 -30.952  1.00  0.00     0.293 C 
HETATM   22  O   UNL     1      -6.713   4.098 -29.801  1.00  0.00    -0.259 OA
BRANCH  21  23
HETATM   23  O   UNL     1      -5.716   2.783 -31.392  1.00  0.00    -0.318 OA
BRANCH  23  24
HETATM   24  C   UNL     1      -4.368   2.948 -30.923  1.00  0.00     0.174 C 
HETATM   25  C   UNL     1      -3.388   2.528 -32.000  1.00  0.00     0.034 C 
ENDBRANCH  23  24
ENDBRANCH  21  23
ENDBRANCH   1  21
BRANCH   2  26
HETATM   26  C   UNL     1      -5.581   5.621 -33.152  1.00  0.00    -0.031 A 
HETATM   27  C   UNL     1      -4.599   6.351 -32.460  1.00  0.00     0.011 A 
HETATM   28  C   UNL     1      -3.285   6.401 -32.932  1.00  0.00     0.024 A 
HETATM   29  C   UNL     1      -2.943   5.727 -34.101  1.00  0.00     0.034 A 
HETATM   30 CL   UNL     1      -1.325   5.788 -34.683  1.00  0.00    -0.084 Cl
HETATM   31  C   UNL     1      -3.904   5.004 -34.804  1.00  0.00     0.024 A 
HETATM   32  C   UNL     1      -5.217   4.949 -34.331  1.00  0.00     0.011 A 
ENDBRANCH   2  26
TORSDOF 7
ENDMDL
MODEL 3
REMARK VINA RESULT:      -7.4      2.593      6.686
REMARK  7 active torsions:
REMARK  status: ('A' for Active; 'I' for Inactive)
REMARK    1  A    between atoms: C_2  and  O_3 
REMARK    2  A    between atoms: O_3  and  C_4 
REMARK    3  A    between atoms: C_4  and  C_5 
REMARK    4  A    between atoms: C_6  and  C_7 
REMARK    5  A    between atoms: C_18  and  C_19 
REMARK    6  A    between atoms: C_19  and  N_20 
REMARK    7  A    between atoms: N_20  and  C_21 
ROOT
HETATM    1  C   UNL     1      -5.928   2.054 -32.268  1.00  0.00     0.068 A 
HETATM    2  C   UNL     1      -7.106   2.254 -31.357  1.00  0.00     0.161 A 
HETATM    3  N   UNL     1      -6.933   1.562 -30.094  1.00  0.00    -0.330 N 
HETATM    4  C   UNL     1      -5.927   0.707 -29.800  1.00  0.00     0.321 A 
HETATM    5  O   UNL     1      -5.892   0.095 -28.739  1.00  0.00    -0.247 OA
HETATM    6  N   UNL     1      -4.950   0.575 -30.737  1.00  0.00    -0.310 N 
HETATM    7  C   UNL     1      -4.903   1.238 -31.947  1.00  0.00     0.046 A 
HETATM    8  H   UNL     1      -7.660   1.628 -29.394  1.00  0.00     0.165 HD
HETATM    9  H   UNL     1      -4.196  -0.050 -30.473  1.00  0.00     0.170 HD
ENDROOT
BRANCH   7  10
HETATM   10  C   UNL     1      -3.655   0.992 -32.773  1.00  0.00     0.177 C 
BRANCH  10  11
HETATM   11  N   UNL     1      -3.362  -0.431 -32.749  1.00  0.00    -0.384 N 
HETATM   12  H   UNL     1      -2.376  -0.670 -32.703  1.00  0.00     0.160 HD
BRANCH  11  13
HETATM   13  C   UNL     1      -4.144  -1.343 -33.453  1.00  0.00     0.029 A 
HETATM   14  C   UNL     1      -3.807  -2.701 -33.394  1.00  0.00     0.053 A 
HETATM   15  C   UNL     1      -4.602  -3.680 -34.006  1.00  0.00     0.042 A 
HETATM   16 CL   UNL     1      -4.100  -5.329 -33.868  1.00  0.00    -0.084 Cl
HETATM   17  C   UNL     1      -5.768  -3.327 -34.694  1.00  0.00    -0.040 A 
HETATM   18  C   UNL     1      -6.663  -4.347 -35.340  1.00  0.00     0.050 C 
HETATM   19  C   UNL     1      -6.130  -1.976 -34.725  1.00  0.00     0.011 A 
HETATM   20  C   UNL     1      -5.334  -1.005 -34.105  1.00  0.00     0.030 A 
ENDBRANCH  11  13
ENDBRANCH  10  11
ENDBRANCH   7  10
BRANCH   1  21
HETATM   21  C   UNL     1      -5.955   2.779 -33.559  1.00  0.00     0.293 C 
HETATM   22  O   UNL     1      -6.351   2.311 -34.613  1.00  0.00    -0.259 OA
BRANCH  21  23
HETATM   23  O   UNL     1      -5.447   4.027 -33.391  1.00  0.00    -0.318 OA
BRANCH  23  24
HETATM   24  C   UNL     1      -6.288   5.100 -33.845  1.00  0.00     0.174 C 
HETATM   25  C   UNL     1      -6.981   5.753 -32.665  1.00  0.00     0.034 C 
ENDBRANCH  23  24
ENDBRANCH  21  23
ENDBRANCH   1  21
BRANCH   2  26
HETATM   26  C   UNL     1      -8.436   1.846 -31.979  1.00  0.00    -0.031 A 
HETATM   27  C   UNL     1      -8.711   0.503 -32.294  1.00  0.00     0.011 A 
HETATM   28  C   UNL     1      -9.934   0.143 -32.864  1.00  0.00     0.024 A 
HETATM   29  C   UNL     1     -10.891   1.119 -33.127  1.00  0.00     0.034 A 
HETATM   30 CL   UNL     1     -12.398   0.675 -33.827  1.00  0.00    -0.084 Cl
HETATM   31  C   UNL     1     -10.635   2.455 -32.827  1.00  0.00     0.024 A 
HETATM   32  C   UNL     1      -9.413   2.817 -32.254  1.00  0.00     0.011 A 
ENDBRANCH   2  26
TORSDOF 7
ENDMDL
MODEL 4
REMARK VINA RESULT:      -7.2      4.297      6.964
REMARK  7 active torsions:
REMARK  status: ('A' for Active; 'I' for Inactive)
REMARK    1  A    between atoms: C_2  and  O_3 
REMARK    2  A    between atoms: O_3  and  C_4 
REMARK    3  A    between atoms: C_4  and  C_5 
REMARK    4  A    between atoms: C_6  and  C_7 
REMARK    5  A    between atoms: C_18  and  C_19 
REMARK    6  A    between atoms: C_19  and  N_20 
REMARK    7  A    between atoms: N_20  and  C_21 
ROOT
HETATM    1  C   UNL     1      -5.221   4.413 -31.877  1.00  0.00     0.068 A 
HETATM    2  C   UNL     1      -4.482   5.704 -32.083  1.00  0.00     0.161 A 
HETATM    3  N   UNL     1      -4.221   5.956 -33.488  1.00  0.00    -0.330 N 
HETATM    4  C   UNL     1      -4.456   5.085 -34.497  1.00  0.00     0.321 A 
HETATM    5  O   UNL     1      -4.132   5.337 -35.652  1.00  0.00    -0.247 OA
HETATM    6  N   UNL     1      -5.083   3.926 -34.164  1.00  0.00    -0.310 N 
HETATM    7  C   UNL     1      -5.497   3.572 -32.895  1.00  0.00     0.046 A 
HETATM    8  H   UNL     1      -3.734   6.801 -33.754  1.00  0.00     0.165 HD
HETATM    9  H   UNL     1      -5.270   3.309 -34.947  1.00  0.00     0.170 HD
ENDROOT
BRANCH   7  10
HETATM   10  C   UNL     1      -6.262   2.266 -32.803  1.00  0.00     0.177 C 
BRANCH  10  11
HETATM   11  N   UNL     1      -5.305   1.177 -32.717  1.00  0.00    -0.384 N 
HETATM   12  H   UNL     1      -4.331   1.458 -32.658  1.00  0.00     0.160 HD
BRANCH  11  13
HETATM   13  C   UNL     1      -5.517  -0.028 -33.383  1.00  0.00     0.029 A 
HETATM   14  C   UNL     1      -4.623  -1.083 -33.161  1.00  0.00     0.053 A 
HETATM   15  C   UNL     1      -4.827  -2.348 -33.730  1.00  0.00     0.042 A 
HETATM   16 CL   UNL     1      -3.667  -3.583 -33.387  1.00  0.00    -0.084 Cl
HETATM   17  C   UNL     1      -5.943  -2.597 -34.536  1.00  0.00    -0.040 A 
HETATM   18  C   UNL     1      -6.214  -3.945 -35.142  1.00  0.00     0.050 C 
HETATM   19  C   UNL     1      -6.859  -1.559 -34.732  1.00  0.00     0.011 A 
HETATM   20  C   UNL     1      -6.651  -0.299 -34.154  1.00  0.00     0.030 A 
ENDBRANCH  11  13
ENDBRANCH  10  11
ENDBRANCH   7  10
BRANCH   1  21
HETATM   21  C   UNL     1      -5.614   4.086 -30.486  1.00  0.00     0.293 C 
HETATM   22  O   UNL     1      -5.193   3.138 -29.847  1.00  0.00    -0.259 OA
BRANCH  21  23
HETATM   23  O   UNL     1      -6.530   4.988 -30.049  1.00  0.00    -0.318 OA
BRANCH  23  24
HETATM   24  C   UNL     1      -6.490   5.273 -28.642  1.00  0.00     0.174 C 
HETATM   25  C   UNL     1      -6.156   6.735 -28.417  1.00  0.00     0.034 C 
ENDBRANCH  23  24
ENDBRANCH  21  23
ENDBRANCH   1  21
BRANCH   2  26
HETATM   26  C   UNL     1      -3.176   5.793 -31.303  1.00  0.00    -0.031 A 
HETATM   27  C   UNL     1      -2.995   6.754 -30.293  1.00  0.00     0.011 A 
HETATM   28  C   UNL     1      -1.792   6.824 -29.586  1.00  0.00     0.024 A 
HETATM   29  C   UNL     1      -0.760   5.939 -29.884  1.00  0.00     0.034 A 
HETATM   30 CL   UNL     1       0.720   6.023 -29.012  1.00  0.00    -0.084 Cl
HETATM   31  C   UNL     1      -0.919   4.983 -30.885  1.00  0.00     0.024 A 
HETATM   32  C   UNL     1      -2.123   4.909 -31.591  1.00  0.00     0.011 A 
ENDBRANCH   2  26
TORSDOF 7
ENDMDL
MODEL 5
REMARK VINA RESULT:      -7.2      4.931      7.560
REMARK  7 active torsions:
REMARK  status: ('A' for Active; 'I' for Inactive)
REMARK    1  A    between atoms: C_2  and  O_3 
REMARK    2  A    between atoms: O_3  and  C_4 
REMARK    3  A    between atoms: C_4  and  C_5 
REMARK    4  A    between atoms: C_6  and  C_7 
REMARK    5  A    between atoms: C_18  and  C_19 
REMARK    6  A    between atoms: C_19  and  N_20 
REMARK    7  A    between atoms: N_20  and  C_21 
ROOT
HETATM    1  C   UNL     1      -3.672   6.232 -32.390  1.00  0.00     0.068 A 
HETATM    2  C   UNL     1      -2.510   7.158 -32.614  1.00  0.00     0.161 A 
HETATM    3  N   UNL     1      -1.734   6.775 -33.778  1.00  0.00    -0.330 N 
HETATM    4  C   UNL     1      -1.908   5.644 -34.499  1.00  0.00     0.321 A 
HETATM    5  O   UNL     1      -1.158   5.347 -35.421  1.00  0.00    -0.247 OA
HETATM    6  N   UNL     1      -2.968   4.864 -34.156  1.00  0.00    -0.310 N 
HETATM    7  C   UNL     1      -3.870   5.132 -33.145  1.00  0.00     0.046 A 
HETATM    8  H   UNL     1      -0.928   7.329 -34.034  1.00  0.00     0.165 HD
HETATM    9  H   UNL     1      -3.088   4.039 -34.735  1.00  0.00     0.170 HD
ENDROOT
BRANCH   7  10
HETATM   10  C   UNL     1      -5.022   4.153 -33.028  1.00  0.00     0.177 C 
BRANCH  10  11
HETATM   11  N   UNL     1      -4.554   2.975 -32.319  1.00  0.00    -0.384 N 
HETATM   12  H   UNL     1      -3.636   3.061 -31.894  1.00  0.00     0.160 HD
BRANCH  11  13
HETATM   13  C   UNL     1      -4.868   1.693 -32.761  1.00  0.00     0.029 A 
HETATM   14  C   UNL     1      -5.947   1.532 -33.639  1.00  0.00     0.053 A 
HETATM   15  C   UNL     1      -6.262   0.281 -34.190  1.00  0.00     0.042 A 
HETATM   16 CL   UNL     1      -7.610   0.192 -35.269  1.00  0.00    -0.084 Cl
HETATM   17  C   UNL     1      -5.497  -0.849 -33.882  1.00  0.00    -0.040 A 
HETATM   18  C   UNL     1      -5.784  -2.201 -34.472  1.00  0.00     0.050 C 
HETATM   19  C   UNL     1      -4.396  -0.688 -33.035  1.00  0.00     0.011 A 
HETATM   20  C   UNL     1      -4.084   0.566 -32.493  1.00  0.00     0.030 A 
ENDBRANCH  11  13
ENDBRANCH  10  11
ENDBRANCH   7  10
BRANCH   1  21
HETATM   21  C   UNL     1      -4.586   6.569 -31.274  1.00  0.00     0.293 C 
HETATM   22  O   UNL     1      -5.347   7.522 -31.259  1.00  0.00    -0.259 OA
BRANCH  21  23
HETATM   23  O   UNL     1      -4.424   5.673 -30.268  1.00  0.00    -0.318 OA
BRANCH  23  24
HETATM   24  C   UNL     1      -5.466   5.663 -29.279  1.00  0.00     0.174 C 
HETATM   25  C   UNL     1      -6.421   4.515 -29.541  1.00  0.00     0.034 C 
ENDBRANCH  23  24
ENDBRANCH  21  23
ENDBRANCH   1  21
BRANCH   2  26
HETATM   26  C   UNL     1      -1.587   7.282 -31.409  1.00  0.00    -0.031 A 
HETATM   27  C   UNL     1      -0.464   6.449 -31.262  1.00  0.00     0.011 A 
HETATM   28  C   UNL     1       0.375   6.573 -30.152  1.00  0.00     0.024 A 
HETATM   29  C   UNL     1       0.097   7.528 -29.177  1.00  0.00     0.034 A 
HETATM   30 CL   UNL     1       1.131   7.683 -27.811  1.00  0.00    -0.084 Cl
HETATM   31  C   UNL     1      -1.013   8.359 -29.302  1.00  0.00     0.024 A 
HETATM   32  C   UNL     1      -1.851   8.239 -30.413  1.00  0.00     0.011 A 
ENDBRANCH   2  26
TORSDOF 7
ENDMDL
MODEL 6
REMARK VINA RESULT:      -7.1      3.837      6.797
REMARK  7 active torsions:
REMARK  status: ('A' for Active; 'I' for Inactive)
REMARK    1  A    between atoms: C_2  and  O_3 
REMARK    2  A    between atoms: O_3  and  C_4 
REMARK    3  A    between atoms: C_4  and  C_5 
REMARK    4  A    between atoms: C_6  and  C_7 
REMARK    5  A    between atoms: C_18  and  C_19 
REMARK    6  A    between atoms: C_19  and  N_20 
REMARK    7  A    between atoms: N_20  and  C_21 
ROOT
HETATM    1  C   UNL     1      -6.727   1.839 -32.163  1.00  0.00     0.068 A 
HETATM    2  C   UNL     1      -7.109   0.425 -31.827  1.00  0.00     0.161 A 
HETATM    3  N   UNL     1      -6.651   0.045 -30.503  1.00  0.00    -0.330 N 
HETATM    4  C   UNL     1      -5.843   0.786 -29.711  1.00  0.00     0.321 A 
HETATM    5  O   UNL     1      -5.431   0.363 -28.637  1.00  0.00    -0.247 OA
HETATM    6  N   UNL     1      -5.528   2.030 -30.160  1.00  0.00    -0.310 N 
HETATM    7  C   UNL     1      -5.962   2.590 -31.345  1.00  0.00     0.046 A 
HETATM    8  H   UNL     1      -6.855  -0.884 -30.161  1.00  0.00     0.165 HD
HETATM    9  H   UNL     1      -4.945   2.570 -29.529  1.00  0.00     0.170 HD
ENDROOT
BRANCH   7  10
HETATM   10  C   UNL     1      -5.548   4.032 -31.571  1.00  0.00     0.177 C 
BRANCH  10  11
HETATM   11  N   UNL     1      -4.452   4.051 -32.525  1.00  0.00    -0.384 N 
HETATM   12  H   UNL     1      -4.330   3.198 -33.063  1.00  0.00     0.160 HD
BRANCH  11  13
HETATM   13  C   UNL     1      -3.271   4.737 -32.256  1.00  0.00     0.029 A 
HETATM   14  C   UNL     1      -3.202   5.527 -31.101  1.00  0.00     0.053 A 
HETATM   15  C   UNL     1      -2.017   6.174 -30.726  1.00  0.00     0.042 A 
HETATM   16 CL   UNL     1      -2.037   7.119 -29.278  1.00  0.00    -0.084 Cl
HETATM   17  C   UNL     1      -0.856   6.042 -31.496  1.00  0.00    -0.040 A 
HETATM   18  C   UNL     1       0.442   6.696 -31.115  1.00  0.00     0.050 C 
HETATM   19  C   UNL     1      -0.908   5.226 -32.630  1.00  0.00     0.011 A 
HETATM   20  C   UNL     1      -2.095   4.577 -32.995  1.00  0.00     0.030 A 
ENDBRANCH  11  13
ENDBRANCH  10  11
ENDBRANCH   7  10
BRANCH   1  21
HETATM   21  C   UNL     1      -7.209   2.367 -33.461  1.00  0.00     0.293 C 
HETATM   22  O   UNL     1      -6.578   2.337 -34.503  1.00  0.00    -0.259 OA
BRANCH  21  23
HETATM   23  O   UNL     1      -8.444   2.909 -33.300  1.00  0.00    -0.318 OA
BRANCH  23  24
HETATM   24  C   UNL     1      -9.388   2.608 -34.340  1.00  0.00     0.174 C 
HETATM   25  C   UNL     1     -10.031   1.259 -34.084  1.00  0.00     0.034 C 
ENDBRANCH  23  24
ENDBRANCH  21  23
ENDBRANCH   1  21
BRANCH   2  26
HETATM   26  C   UNL     1      -6.621  -0.599 -32.843  1.00  0.00    -0.031 A 
HETATM   27  C   UNL     1      -7.516  -1.244 -33.716  1.00  0.00     0.011 A 
HETATM   28  C   UNL     1      -7.054  -2.181 -34.643  1.00  0.00     0.024 A 
HETATM   29  C   UNL     1      -5.697  -2.485 -34.704  1.00  0.00     0.034 A 
HETATM   30 CL   UNL     1      -5.128  -3.638 -35.847  1.00  0.00    -0.084 Cl
HETATM   31  C   UNL     1      -4.796  -1.861 -33.844  1.00  0.00     0.024 A 
HETATM   32  C   UNL     1      -5.255  -0.921 -32.918  1.00  0.00     0.011 A 
ENDBRANCH   2  26
TORSDOF 7
ENDMDL
MODEL 7
REMARK VINA RESULT:      -7.0      2.656      7.250
REMARK  7 active torsions:
REMARK  status: ('A' for Active; 'I' for Inactive)
REMARK    1  A    between atoms: C_2  and  O_3 
REMARK    2  A    between atoms: O_3  and  C_4 
REMARK    3  A    between atoms: C_4  and  C_5 
REMARK    4  A    between atoms: C_6  and  C_7 
REMARK    5  A    between atoms: C_18  and  C_19 
REMARK    6  A    between atoms: C_19  and  N_20 
REMARK    7  A    between atoms: N_20  and  C_21 
ROOT
HETATM    1  C   UNL     1      -9.809   2.383 -32.212  1.00  0.00     0.068 A 
HETATM    2  C   UNL     1     -11.097   3.107 -32.486  1.00  0.00     0.161 A 
HETATM    3  N   UNL     1     -12.107   2.219 -33.031  1.00  0.00    -0.330 N 
HETATM    4  C   UNL     1     -11.902   0.936 -33.408  1.00  0.00     0.321 A 
HETATM    5  O   UNL     1     -12.785   0.272 -33.938  1.00  0.00    -0.247 OA
HETATM    6  N   UNL     1     -10.671   0.418 -33.152  1.00  0.00    -0.310 N 
HETATM    7  C   UNL     1      -9.628   1.089 -32.544  1.00  0.00     0.046 A 
HETATM    8  H   UNL     1     -13.021   2.591 -33.251  1.00  0.00     0.165 HD
HETATM    9  H   UNL     1     -10.560  -0.554 -33.419  1.00  0.00     0.170 HD
ENDROOT
BRANCH   7  10
HETATM   10  C   UNL     1      -8.387   0.257 -32.283  1.00  0.00     0.177 C 
BRANCH  10  11
HETATM   11  N   UNL     1      -7.779  -0.074 -33.560  1.00  0.00    -0.384 N 
HETATM   12  H   UNL     1      -8.397  -0.013 -34.364  1.00  0.00     0.160 HD
BRANCH  11  13
HETATM   13  C   UNL     1      -6.797  -1.056 -33.661  1.00  0.00     0.029 A 
HETATM   14  C   UNL     1      -7.082  -2.217 -34.392  1.00  0.00     0.053 A 
HETATM   15  C   UNL     1      -6.110  -3.204 -34.606  1.00  0.00     0.042 A 
HETATM   16 CL   UNL     1      -6.563  -4.596 -35.527  1.00  0.00    -0.084 Cl
HETATM   17  C   UNL     1      -4.814  -3.054 -34.099  1.00  0.00    -0.040 A 
HETATM   18  C   UNL     1      -3.736  -4.074 -34.330  1.00  0.00     0.050 C 
HETATM   19  C   UNL     1      -4.513  -1.880 -33.401  1.00  0.00     0.011 A 
HETATM   20  C   UNL     1      -5.488  -0.895 -33.197  1.00  0.00     0.030 A 
ENDBRANCH  11  13
ENDBRANCH  10  11
ENDBRANCH   7  10
BRANCH   1  21
HETATM   21  C   UNL     1      -8.726   3.171 -31.579  1.00  0.00     0.293 C 
HETATM   22  O   UNL     1      -8.740   3.577 -30.430  1.00  0.00    -0.259 OA
BRANCH  21  23
HETATM   23  O   UNL     1      -7.736   3.389 -32.481  1.00  0.00    -0.318 OA
BRANCH  23  24
HETATM   24  C   UNL     1      -6.956   4.576 -32.264  1.00  0.00     0.174 C 
HETATM   25  C   UNL     1      -7.445   5.693 -33.166  1.00  0.00     0.034 C 
ENDBRANCH  23  24
ENDBRANCH  21  23
ENDBRANCH   1  21
BRANCH   2  26
HETATM   26  C   UNL     1     -10.938   4.313 -33.403  1.00  0.00    -0.031 A 
HETATM   27  C   UNL     1     -10.499   4.167 -34.730  1.00  0.00     0.011 A 
HETATM   28  C   UNL     1     -10.357   5.282 -35.560  1.00  0.00     0.024 A 
HETATM   29  C   UNL     1     -10.649   6.552 -35.070  1.00  0.00     0.034 A 
HETATM   30 CL   UNL     1     -10.476   7.925 -36.091  1.00  0.00    -0.084 Cl
HETATM   31  C   UNL     1     -11.079   6.718 -33.755  1.00  0.00     0.024 A 
HETATM   32  C   UNL     1     -11.225   5.604 -32.926  1.00  0.00     0.011 A 
ENDBRANCH   2  26
TORSDOF 7
ENDMDL
MODEL 8
REMARK VINA RESULT:      -6.9      2.871      7.104
REMARK  7 active torsions:
REMARK  status: ('A' for Active; 'I' for Inactive)
REMARK    1  A    between atoms: C_2  and  O_3 
REMARK    2  A    between atoms: O_3  and  C_4 
REMARK    3  A    between atoms: C_4  and  C_5 
REMARK    4  A    between atoms: C_6  and  C_7 
REMARK    5  A    between atoms: C_18  and  C_19 
REMARK    6  A    between atoms: C_19  and  N_20 
REMARK    7  A    between atoms: N_20  and  C_21 
ROOT
HETATM    1  C   UNL     1      -8.066   1.889 -32.847  1.00  0.00     0.068 A 
HETATM    2  C   UNL     1      -9.187   2.286 -31.928  1.00  0.00     0.161 A 
HETATM    3  N   UNL     1     -10.470   1.811 -32.410  1.00  0.00    -0.330 N 
HETATM    4  C   UNL     1     -10.689   1.222 -33.608  1.00  0.00     0.321 A 
HETATM    5  O   UNL     1     -11.817   0.921 -33.981  1.00  0.00    -0.247 OA
HETATM    6  N   UNL     1      -9.590   0.968 -34.368  1.00  0.00    -0.310 N 
HETATM    7  C   UNL     1      -8.286   1.257 -34.018  1.00  0.00     0.046 A 
HETATM    8  H   UNL     1     -11.302   2.011 -31.871  1.00  0.00     0.165 HD
HETATM    9  H   UNL     1      -9.786   0.499 -35.247  1.00  0.00     0.170 HD
ENDROOT
BRANCH   7  10
HETATM   10  C   UNL     1      -7.231   0.783 -34.999  1.00  0.00     0.177 C 
BRANCH  10  11
HETATM   11  N   UNL     1      -7.401  -0.645 -35.202  1.00  0.00    -0.384 N 
HETATM   12  H   UNL     1      -8.350  -0.989 -35.098  1.00  0.00     0.160 HD
BRANCH  11  13
HETATM   13  C   UNL     1      -6.414  -1.552 -34.824  1.00  0.00     0.029 A 
HETATM   14  C   UNL     1      -5.411  -1.123 -33.945  1.00  0.00     0.053 A 
HETATM   15  C   UNL     1      -4.439  -2.008 -33.456  1.00  0.00     0.042 A 
HETATM   16 CL   UNL     1      -3.250  -1.379 -32.370  1.00  0.00    -0.084 Cl
HETATM   17  C   UNL     1      -4.448  -3.357 -33.828  1.00  0.00    -0.040 A 
HETATM   18  C   UNL     1      -3.443  -4.343 -33.305  1.00  0.00     0.050 C 
HETATM   19  C   UNL     1      -5.469  -3.799 -34.676  1.00  0.00     0.011 A 
HETATM   20  C   UNL     1      -6.440  -2.910 -35.155  1.00  0.00     0.030 A 
ENDBRANCH  11  13
ENDBRANCH  10  11
ENDBRANCH   7  10
BRANCH   1  21
HETATM   21  C   UNL     1      -6.695   2.251 -32.418  1.00  0.00     0.293 C 
HETATM   22  O   UNL     1      -6.102   3.259 -32.759  1.00  0.00    -0.259 OA
BRANCH  21  23
HETATM   23  O   UNL     1      -6.198   1.276 -31.614  1.00  0.00    -0.318 OA
BRANCH  23  24
HETATM   24  C   UNL     1      -6.008   1.650 -30.240  1.00  0.00     0.174 C 
HETATM   25  C   UNL     1      -5.794   0.414 -29.389  1.00  0.00     0.034 C 
ENDBRANCH  23  24
ENDBRANCH  21  23
ENDBRANCH   1  21
BRANCH   2  26
HETATM   26  C   UNL     1      -9.266   3.786 -31.674  1.00  0.00    -0.031 A 
HETATM   27  C   UNL     1      -9.087   4.317 -30.385  1.00  0.00     0.011 A 
HETATM   28  C   UNL     1      -9.163   5.695 -30.166  1.00  0.00     0.024 A 
HETATM   29  C   UNL     1      -9.422   6.552 -31.231  1.00  0.00     0.034 A 
HETATM   30 CL   UNL     1      -9.514   8.249 -30.962  1.00  0.00    -0.084 Cl
HETATM   31  C   UNL     1      -9.609   6.045 -32.515  1.00  0.00     0.024 A 
HETATM   32  C   UNL     1      -9.530   4.667 -32.736  1.00  0.00     0.011 A 
ENDBRANCH   2  26
TORSDOF 7
ENDMDL
MODEL 9
REMARK VINA RESULT:      -6.8     16.278     18.938
REMARK  7 active torsions:
REMARK  status: ('A' for Active; 'I' for Inactive)
REMARK    1  A    between atoms: C_2  and  O_3 
REMARK    2  A    between atoms: O_3  and  C_4 
REMARK    3  A    between atoms: C_4  and  C_5 
REMARK    4  A    between atoms: C_6  and  C_7 
REMARK    5  A    between atoms: C_18  and  C_19 
REMARK    6  A    between atoms: C_19  and  N_20 
REMARK    7  A    between atoms: N_20  and  C_21 
ROOT
HETATM    1  C   UNL     1      -5.623 -13.731 -37.277  1.00  0.00     0.068 A 
HETATM    2  C   UNL     1      -6.918 -12.989 -37.107  1.00  0.00     0.161 A 
HETATM    3  N   UNL     1      -7.449 -13.135 -35.764  1.00  0.00    -0.330 N 
HETATM    4  C   UNL     1      -6.953 -13.956 -34.810  1.00  0.00     0.321 A 
HETATM    5  O   UNL     1      -7.505 -14.087 -33.724  1.00  0.00    -0.247 OA
HETATM    6  N   UNL     1      -5.802 -14.613 -35.114  1.00  0.00    -0.310 N 
HETATM    7  C   UNL     1      -5.107 -14.509 -36.303  1.00  0.00     0.046 A 
HETATM    8  H   UNL     1      -8.317 -12.674 -35.526  1.00  0.00     0.165 HD
HETATM    9  H   UNL     1      -5.441 -15.197 -34.367  1.00  0.00     0.170 HD
ENDROOT
BRANCH   7  10
HETATM   10  C   UNL     1      -3.797 -15.271 -36.357  1.00  0.00     0.177 C 
BRANCH  10  11
HETATM   11  N   UNL     1      -2.711 -14.334 -36.130  1.00  0.00    -0.384 N 
HETATM   12  H   UNL     1      -2.995 -13.383 -35.915  1.00  0.00     0.160 HD
BRANCH  11  13
HETATM   13  C   UNL     1      -1.512 -14.433 -36.831  1.00  0.00     0.029 A 
HETATM   14  C   UNL     1      -0.604 -15.436 -36.468  1.00  0.00     0.053 A 
HETATM   15  C   UNL     1       0.581 -15.646 -37.187  1.00  0.00     0.042 A 
HETATM   16 CL   UNL     1       1.630 -16.916 -36.660  1.00  0.00    -0.084 Cl
HETATM   17  C   UNL     1       0.890 -14.859 -38.302  1.00  0.00    -0.040 A 
HETATM   18  C   UNL     1       2.135 -15.069 -39.116  1.00  0.00     0.050 C 
HETATM   19  C   UNL     1      -0.029 -13.880 -38.691  1.00  0.00     0.011 A 
HETATM   20  C   UNL     1      -1.215 -13.680 -37.971  1.00  0.00     0.030 A 
ENDBRANCH  11  13
ENDBRANCH  10  11
ENDBRANCH   7  10
BRANCH   1  21
HETATM   21  C   UNL     1      -4.944 -13.592 -38.586  1.00  0.00     0.293 C 
HETATM   22  O   UNL     1      -4.349 -12.595 -38.960  1.00  0.00    -0.259 OA
BRANCH  21  23
HETATM   23  O   UNL     1      -5.110 -14.729 -39.308  1.00  0.00    -0.318 OA
BRANCH  23  24
HETATM   24  C   UNL     1      -5.005 -14.575 -40.732  1.00  0.00     0.174 C 
HETATM   25  C   UNL     1      -6.387 -14.496 -41.350  1.00  0.00     0.034 C 
ENDBRANCH  23  24
ENDBRANCH  21  23
ENDBRANCH   1  21
BRANCH   2  26
HETATM   26  C   UNL     1      -7.987 -13.384 -38.118  1.00  0.00    -0.031 A 
HETATM   27  C   UNL     1      -8.473 -14.702 -38.187  1.00  0.00     0.011 A 
HETATM   28  C   UNL     1      -9.454 -15.050 -39.119  1.00  0.00     0.024 A 
HETATM   29  C   UNL     1      -9.954 -14.087 -39.992  1.00  0.00     0.034 A 
HETATM   30 CL   UNL     1     -11.162 -14.516 -41.139  1.00  0.00    -0.084 Cl
HETATM   31  C   UNL     1      -9.481 -12.778 -39.943  1.00  0.00     0.024 A 
HETATM   32  C   UNL     1      -8.503 -12.427 -39.008  1.00  0.00     0.011 A 
ENDBRANCH   2  26
TORSDOF 7
ENDMDL
MODEL 10
REMARK VINA RESULT:      -6.8      5.260      8.423
REMARK  7 active torsions:
REMARK  status: ('A' for Active; 'I' for Inactive)
REMARK    1  A    between atoms: C_2  and  O_3 
REMARK    2  A    between atoms: O_3  and  C_4 
REMARK    3  A    between atoms: C_4  and  C_5 
REMARK    4  A    between atoms: C_6  and  C_7 
REMARK    5  A    between atoms: C_18  and  C_19 
REMARK    6  A    between atoms: C_19  and  N_20 
REMARK    7  A    between atoms: N_20  and  C_21 
ROOT
HETATM    1  C   UNL     1      -4.673   3.884 -32.092  1.00  0.00     0.068 A 
HETATM    2  C   UNL     1      -5.633   2.750 -32.314  1.00  0.00     0.161 A 
HETATM    3  N   UNL     1      -6.765   2.820 -31.410  1.00  0.00    -0.330 N 
HETATM    4  C   UNL     1      -6.894   3.688 -30.380  1.00  0.00     0.321 A 
HETATM    5  O   UNL     1      -7.843   3.632 -29.607  1.00  0.00    -0.247 OA
HETATM    6  N   UNL     1      -5.924   4.633 -30.259  1.00  0.00    -0.310 N 
HETATM    7  C   UNL     1      -4.833   4.777 -31.094  1.00  0.00     0.046 A 
HETATM    8  H   UNL     1      -7.484   2.112 -31.468  1.00  0.00     0.165 HD
HETATM    9  H   UNL     1      -6.066   5.285 -29.495  1.00  0.00     0.170 HD
ENDROOT
BRANCH   7  10
HETATM   10  C   UNL     1      -3.947   5.973 -30.803  1.00  0.00     0.177 C 
BRANCH  10  11
HETATM   11  N   UNL     1      -2.567   5.523 -30.764  1.00  0.00    -0.384 N 
HETATM   12  H   UNL     1      -2.439   4.523 -30.651  1.00  0.00     0.160 HD
BRANCH  11  13
HETATM   13  C   UNL     1      -1.569   6.301 -30.183  1.00  0.00     0.029 A 
HETATM   14  C   UNL     1      -1.926   7.207 -29.175  1.00  0.00     0.053 A 
HETATM   15  C   UNL     1      -0.960   7.957 -28.489  1.00  0.00     0.042 A 
HETATM   16 CL   UNL     1      -1.506   9.041 -27.258  1.00  0.00    -0.084 Cl
HETATM   17  C   UNL     1       0.400   7.815 -28.787  1.00  0.00    -0.040 A 
HETATM   18  C   UNL     1       1.468   8.578 -28.056  1.00  0.00     0.050 C 
HETATM   19  C   UNL     1       0.766   6.885 -29.766  1.00  0.00     0.011 A 
HETATM   20  C   UNL     1      -0.205   6.135 -30.443  1.00  0.00     0.030 A 
ENDBRANCH  11  13
ENDBRANCH  10  11
ENDBRANCH   7  10
BRANCH   1  21
HETATM   21  C   UNL     1      -3.514   3.964 -33.011  1.00  0.00     0.293 C 
HETATM   22  O   UNL     1      -2.466   3.358 -32.866  1.00  0.00    -0.259 OA
BRANCH  21  23
HETATM   23  O   UNL     1      -3.791   4.831 -34.018  1.00  0.00    -0.318 OA
BRANCH  23  24
HETATM   24  C   UNL     1      -2.649   5.321 -34.740  1.00  0.00     0.174 C 
HETATM   25  C   UNL     1      -2.198   6.648 -34.161  1.00  0.00     0.034 C 
ENDBRANCH  23  24
ENDBRANCH  21  23
ENDBRANCH   1  21
BRANCH   2  26
HETATM   26  C   UNL     1      -4.988   1.374 -32.210  1.00  0.00    -0.031 A 
HETATM   27  C   UNL     1      -4.238   1.003 -31.080  1.00  0.00     0.011 A 
HETATM   28  C   UNL     1      -3.652  -0.262 -30.998  1.00  0.00     0.024 A 
HETATM   29  C   UNL     1      -3.807  -1.166 -32.045  1.00  0.00     0.034 A 
HETATM   30 CL   UNL     1      -3.087  -2.726 -31.943  1.00  0.00    -0.084 Cl
HETATM   31  C   UNL     1      -4.541  -0.817 -33.175  1.00  0.00     0.024 A 
HETATM   32  C   UNL     1      -5.131   0.448 -33.257  1.00  0.00     0.011 A 
ENDBRANCH   2  26
TORSDOF 7
ENDMDL
