MODEL 1
REMARK VINA RESULT:     -10.5      0.000      0.000
REMARK  7 active torsions:
REMARK  status: ('A' for Active; 'I' for Inactive)
REMARK    1  A    between atoms: C_2  and  C_3 
REMARK    2  A    between atoms: C_4  and  N_5 
REMARK    3  A    between atoms: N_5  and  C_6 
REMARK    4  A    between atoms: C_8  and  N_9 
REMARK    5  A    between atoms: C_11  and  C_12 
REMARK    6  A    between atoms: C_12  and  N_13 
REMARK    7  A    between atoms: C_17  and  C_18 
ROOT
HETATM    1  C   UNL     1      -7.061   4.642 -32.087  1.00  0.00     0.218 C 
ENDROOT
BRANCH   1   2
HETATM    2  C   UNL     1      -8.396   4.684 -32.810  1.00  0.00     0.166 A 
HETATM    3  N   UNL     1      -8.477   5.357 -33.960  1.00  0.00    -0.200 NA
HETATM    4  C   UNL     1      -9.658   5.319 -34.550  1.00  0.00     0.219 A 
HETATM    5  N   UNL     1     -10.701   4.638 -34.114  1.00  0.00    -0.031 NA
HETATM    6  C   UNL     1     -10.539   3.989 -32.966  1.00  0.00     0.731 A 
HETATM    7  N   UNL     1      -9.404   3.993 -32.271  1.00  0.00    -0.045 NA
BRANCH   4   8
HETATM    8  N   UNL     1      -9.797   6.006 -35.739  1.00  0.00    -0.270 NA
HETATM    9  H   UNL     1      -9.215   6.832 -35.730  1.00  0.00     0.127 HD
HETATM   10  H   UNL     1     -10.773   6.129 -35.966  1.00  0.00     0.127 HD
ENDBRANCH   4   8
BRANCH   6  11
HETATM   11  N   UNL     1     -11.592   3.276 -32.395  1.00  0.00    -0.188 N 
HETATM   12  H   UNL     1     -11.465   3.211 -31.396  1.00  0.00     0.184 HD
BRANCH  11  13
HETATM   13  C   UNL     1     -12.559   2.420 -32.948  1.00  0.00     0.055 A 
HETATM   14  C   UNL     1     -12.165   1.257 -33.650  1.00  0.00    -0.031 A 
HETATM   15  C   UNL     1     -13.145   0.402 -34.192  1.00  0.00     0.009 A 
HETATM   16  C   UNL     1     -14.501   0.667 -34.025  1.00  0.00     0.001 A 
HETATM   17  C   UNL     1     -14.896   1.788 -33.308  1.00  0.00     0.002 A 
HETATM   18  C   UNL     1     -13.934   2.646 -32.769  1.00  0.00     0.030 A 
BRANCH  14  19
HETATM   19  C   UNL     1     -10.713   0.878 -33.848  1.00  0.00     0.036 C 
HETATM   20  C   UNL     1     -10.223  -0.080 -32.774  1.00  0.00     0.010 C 
ENDBRANCH  14  19
ENDBRANCH  11  13
ENDBRANCH   6  11
ENDBRANCH   1   2
BRANCH   1  21
HETATM   21  N   UNL     1      -6.495   3.313 -32.007  1.00  0.00    -0.260 N 
HETATM   22  C   UNL     1      -6.412   2.593 -30.862  1.00  0.00     0.326 A 
HETATM   23  O   UNL     1      -6.886   2.875 -29.775  1.00  0.00    -0.247 OA
HETATM   24  N   UNL     1      -5.685   1.457 -31.111  1.00  0.00    -0.321 N 
HETATM   25  C   UNL     1      -5.144   1.415 -32.455  1.00  0.00     0.140 A 
HETATM   26  H   UNL     1      -5.503   0.787 -30.378  1.00  0.00     0.165 HD
HETATM   27  C   UNL     1      -3.622   1.600 -32.432  1.00  0.00     0.054 C 
HETATM   28  C   UNL     1      -5.768   2.723 -33.002  1.00  0.00     0.261 A 
HETATM   29  O   UNL     1      -5.604   3.182 -34.127  1.00  0.00    -0.270 OA
BRANCH  25  30
HETATM   30  C   UNL     1      -5.559   0.126 -33.153  1.00  0.00    -0.020 A 
HETATM   31  C   UNL     1      -4.701  -0.994 -33.112  1.00  0.00     0.022 A 
HETATM   32  C   UNL     1      -5.027  -2.208 -33.746  1.00  0.00    -0.025 A 
HETATM   33  C   UNL     1      -6.248  -2.315 -34.442  1.00  0.00    -0.026 A 
HETATM   34  C   UNL     1      -4.163  -3.315 -33.701  1.00  0.00     0.012 A 
HETATM   35  C   UNL     1      -7.105  -1.207 -34.487  1.00  0.00     0.013 A 
HETATM   36  C   UNL     1      -6.576  -3.524 -35.077  1.00  0.00     0.012 A 
HETATM   37  C   UNL     1      -6.766  -0.006 -33.853  1.00  0.00     0.011 A 
HETATM   38  C   UNL     1      -5.708  -4.615 -35.024  1.00  0.00     0.001 A 
HETATM   39  C   UNL     1      -4.502  -4.511 -34.337  1.00  0.00     0.001 A 
ENDBRANCH  25  30
ENDBRANCH   1  21
TORSDOF 7
ENDMDL
MODEL 2
REMARK VINA RESULT:     -10.3      4.169      8.030
REMARK  7 active torsions:
REMARK  status: ('A' for Active; 'I' for Inactive)
REMARK    1  A    between atoms: C_2  and  C_3 
REMARK    2  A    between atoms: C_4  and  N_5 
REMARK    3  A    between atoms: N_5  and  C_6 
REMARK    4  A    between atoms: C_8  and  N_9 
REMARK    5  A    between atoms: C_11  and  C_12 
REMARK    6  A    between atoms: C_12  and  N_13 
REMARK    7  A    between atoms: C_17  and  C_18 
ROOT
HETATM    1  C   UNL     1      -6.419   5.015 -31.796  1.00  0.00     0.218 C 
ENDROOT
BRANCH   1   2
HETATM    2  C   UNL     1      -4.962   5.368 -32.041  1.00  0.00     0.166 A 
HETATM    3  N   UNL     1      -4.597   5.750 -33.267  1.00  0.00    -0.200 NA
HETATM    4  C   UNL     1      -3.323   6.076 -33.397  1.00  0.00     0.219 A 
HETATM    5  N   UNL     1      -2.443   6.097 -32.414  1.00  0.00    -0.031 NA
HETATM    6  C   UNL     1      -2.885   5.709 -31.222  1.00  0.00     0.731 A 
HETATM    7  N   UNL     1      -4.138   5.323 -30.991  1.00  0.00    -0.045 NA
BRANCH   4   8
HETATM    8  N   UNL     1      -2.893   6.471 -34.647  1.00  0.00    -0.270 NA
HETATM    9  H   UNL     1      -2.169   7.170 -34.559  1.00  0.00     0.127 HD
HETATM   10  H   UNL     1      -3.680   6.691 -35.240  1.00  0.00     0.127 HD
ENDBRANCH   4   8
BRANCH   6  11
HETATM   11  N   UNL     1      -2.025   5.651 -30.126  1.00  0.00    -0.188 N 
HETATM   12  H   UNL     1      -2.167   4.790 -29.621  1.00  0.00     0.184 HD
BRANCH  11  13
HETATM   13  C   UNL     1      -1.278   6.639 -29.463  1.00  0.00     0.055 A 
HETATM   14  C   UNL     1       0.059   6.384 -29.077  1.00  0.00    -0.031 A 
HETATM   15  C   UNL     1       0.801   7.386 -28.422  1.00  0.00     0.009 A 
HETATM   16  C   UNL     1       0.249   8.639 -28.170  1.00  0.00     0.001 A 
HETATM   17  C   UNL     1      -1.051   8.909 -28.576  1.00  0.00     0.002 A 
HETATM   18  C   UNL     1      -1.798   7.921 -29.224  1.00  0.00     0.030 A 
BRANCH  14  19
HETATM   19  C   UNL     1       0.744   5.060 -29.343  1.00  0.00     0.036 C 
HETATM   20  C   UNL     1       1.194   4.933 -30.790  1.00  0.00     0.010 C 
ENDBRANCH  14  19
ENDBRANCH  11  13
ENDBRANCH   6  11
ENDBRANCH   1   2
BRANCH   1  21
HETATM   21  N   UNL     1      -6.813   3.763 -32.404  1.00  0.00    -0.260 N 
HETATM   22  C   UNL     1      -7.479   3.668 -33.580  1.00  0.00     0.326 A 
HETATM   23  O   UNL     1      -7.742   4.571 -34.355  1.00  0.00    -0.247 OA
HETATM   24  N   UNL     1      -7.832   2.358 -33.779  1.00  0.00    -0.321 N 
HETATM   25  C   UNL     1      -7.495   1.505 -32.657  1.00  0.00     0.140 A 
HETATM   26  H   UNL     1      -8.345   2.079 -34.603  1.00  0.00     0.165 HD
HETATM   27  C   UNL     1      -8.762   1.054 -31.922  1.00  0.00     0.054 C 
HETATM   28  C   UNL     1      -6.783   2.554 -31.768  1.00  0.00     0.261 A 
HETATM   29  O   UNL     1      -6.308   2.350 -30.657  1.00  0.00    -0.270 OA
BRANCH  25  30
HETATM   30  C   UNL     1      -6.648   0.327 -33.123  1.00  0.00    -0.020 A 
HETATM   31  C   UNL     1      -7.281  -0.845 -33.588  1.00  0.00     0.022 A 
HETATM   32  C   UNL     1      -6.551  -1.967 -34.022  1.00  0.00    -0.025 A 
HETATM   33  C   UNL     1      -5.142  -1.923 -33.996  1.00  0.00    -0.026 A 
HETATM   34  C   UNL     1      -7.193  -3.129 -34.480  1.00  0.00     0.012 A 
HETATM   35  C   UNL     1      -4.505  -0.763 -33.535  1.00  0.00     0.013 A 
HETATM   36  C   UNL     1      -4.409  -3.042 -34.427  1.00  0.00     0.012 A 
HETATM   37  C   UNL     1      -5.246   0.344 -33.105  1.00  0.00     0.011 A 
HETATM   38  C   UNL     1      -5.062  -4.190 -34.878  1.00  0.00     0.001 A 
HETATM   39  C   UNL     1      -6.452  -4.234 -34.905  1.00  0.00     0.001 A 
ENDBRANCH  25  30
ENDBRANCH   1  21
TORSDOF 7
ENDMDL
MODEL 3
REMARK VINA RESULT:     -10.2      4.564      8.603
REMARK  7 active torsions:
REMARK  status: ('A' for Active; 'I' for Inactive)
REMARK    1  A    between atoms: C_2  and  C_3 
REMARK    2  A    between atoms: C_4  and  N_5 
REMARK    3  A    between atoms: N_5  and  C_6 
REMARK    4  A    between atoms: C_8  and  N_9 
REMARK    5  A    between atoms: C_11  and  C_12 
REMARK    6  A    between atoms: C_12  and  N_13 
REMARK    7  A    between atoms: C_17  and  C_18 
ROOT
HETATM    1  C   UNL     1      -5.179   4.027 -33.350  1.00  0.00     0.218 C 
ENDROOT
BRANCH   1   2
HETATM    2  C   UNL     1      -5.616   3.058 -32.265  1.00  0.00     0.166 A 
HETATM    3  N   UNL     1      -6.316   3.532 -31.232  1.00  0.00    -0.200 NA
HETATM    4  C   UNL     1      -6.693   2.627 -30.346  1.00  0.00     0.219 A 
HETATM    5  N   UNL     1      -6.472   1.330 -30.449  1.00  0.00    -0.031 NA
HETATM    6  C   UNL     1      -5.774   0.935 -31.509  1.00  0.00     0.731 A 
HETATM    7  N   UNL     1      -5.313   1.769 -32.439  1.00  0.00    -0.045 NA
BRANCH   4   8
HETATM    8  N   UNL     1      -7.413   3.066 -29.255  1.00  0.00    -0.270 NA
HETATM    9  H   UNL     1      -7.496   2.325 -28.574  1.00  0.00     0.127 HD
HETATM   10  H   UNL     1      -8.265   3.521 -29.551  1.00  0.00     0.127 HD
ENDBRANCH   4   8
BRANCH   6  11
HETATM   11  N   UNL     1      -5.447  -0.408 -31.689  1.00  0.00    -0.188 N 
HETATM   12  H   UNL     1      -4.872  -0.730 -30.926  1.00  0.00     0.184 HD
BRANCH  11  13
HETATM   13  C   UNL     1      -5.502  -1.247 -32.815  1.00  0.00     0.055 A 
HETATM   14  C   UNL     1      -4.414  -2.097 -33.125  1.00  0.00    -0.031 A 
HETATM   15  C   UNL     1      -4.485  -2.941 -34.251  1.00  0.00     0.009 A 
HETATM   16  C   UNL     1      -5.623  -2.973 -35.052  1.00  0.00     0.001 A 
HETATM   17  C   UNL     1      -6.708  -2.168 -34.735  1.00  0.00     0.002 A 
HETATM   18  C   UNL     1      -6.648  -1.323 -33.623  1.00  0.00     0.030 A 
BRANCH  14  19
HETATM   19  C   UNL     1      -3.155  -2.146 -32.286  1.00  0.00     0.036 C 
HETATM   20  C   UNL     1      -2.923  -3.525 -31.689  1.00  0.00     0.010 C 
ENDBRANCH  14  19
ENDBRANCH  11  13
ENDBRANCH   6  11
ENDBRANCH   1   2
BRANCH   1  21
HETATM   21  N   UNL     1      -4.274   5.049 -32.872  1.00  0.00    -0.260 N 
HETATM   22  C   UNL     1      -4.653   6.312 -32.562  1.00  0.00     0.326 A 
HETATM   23  O   UNL     1      -5.789   6.753 -32.516  1.00  0.00    -0.247 OA
HETATM   24  N   UNL     1      -3.530   7.055 -32.299  1.00  0.00    -0.321 N 
HETATM   25  C   UNL     1      -2.302   6.323 -32.530  1.00  0.00     0.140 A 
HETATM   26  H   UNL     1      -3.602   8.032 -32.053  1.00  0.00     0.165 HD
HETATM   27  C   UNL     1      -1.575   6.861 -33.767  1.00  0.00     0.054 C 
HETATM   28  C   UNL     1      -2.912   4.949 -32.903  1.00  0.00     0.261 A 
HETATM   29  O   UNL     1      -2.283   3.945 -33.219  1.00  0.00    -0.270 OA
BRANCH  25  30
HETATM   30  C   UNL     1      -1.424   6.355 -31.285  1.00  0.00    -0.020 A 
HETATM   31  C   UNL     1      -1.441   7.494 -30.452  1.00  0.00     0.022 A 
HETATM   32  C   UNL     1      -0.646   7.585 -29.294  1.00  0.00    -0.025 A 
HETATM   33  C   UNL     1       0.195   6.507 -28.951  1.00  0.00    -0.026 A 
HETATM   34  C   UNL     1      -0.669   8.725 -28.474  1.00  0.00     0.012 A 
HETATM   35  C   UNL     1       0.218   5.372 -29.773  1.00  0.00     0.013 A 
HETATM   36  C   UNL     1       0.992   6.594 -27.796  1.00  0.00     0.012 A 
HETATM   37  C   UNL     1      -0.578   5.298 -30.922  1.00  0.00     0.011 A 
HETATM   38  C   UNL     1       0.958   7.734 -26.992  1.00  0.00     0.001 A 
HETATM   39  C   UNL     1       0.129   8.799 -27.330  1.00  0.00     0.001 A 
ENDBRANCH  25  30
ENDBRANCH   1  21
TORSDOF 7
ENDMDL
MODEL 4
REMARK VINA RESULT:     -10.1      3.127      6.951
REMARK  7 active torsions:
REMARK  status: ('A' for Active; 'I' for Inactive)
REMARK    1  A    between atoms: C_2  and  C_3 
REMARK    2  A    between atoms: C_4  and  N_5 
REMARK    3  A    between atoms: N_5  and  C_6 
REMARK    4  A    between atoms: C_8  and  N_9 
REMARK    5  A    between atoms: C_11  and  C_12 
REMARK    6  A    between atoms: C_12  and  N_13 
REMARK    7  A    between atoms: C_17  and  C_18 
ROOT
HETATM    1  C   UNL     1      -8.450   4.482 -31.363  1.00  0.00     0.218 C 
ENDROOT
BRANCH   1   2
HETATM    2  C   UNL     1      -7.128   4.984 -30.808  1.00  0.00     0.166 A 
HETATM    3  N   UNL     1      -6.806   4.670 -29.551  1.00  0.00    -0.200 NA
HETATM    4  C   UNL     1      -5.627   5.110 -29.148  1.00  0.00     0.219 A 
HETATM    5  N   UNL     1      -4.765   5.765 -29.902  1.00  0.00    -0.031 NA
HETATM    6  C   UNL     1      -5.157   6.034 -31.143  1.00  0.00     0.731 A 
HETATM    7  N   UNL     1      -6.339   5.671 -31.637  1.00  0.00    -0.045 NA
BRANCH   4   8
HETATM    8  N   UNL     1      -5.249   4.819 -27.853  1.00  0.00    -0.270 NA
HETATM    9  H   UNL     1      -4.242   4.764 -27.791  1.00  0.00     0.127 HD
HETATM   10  H   UNL     1      -5.779   4.037 -27.496  1.00  0.00     0.127 HD
ENDBRANCH   4   8
BRANCH   6  11
HETATM   11  N   UNL     1      -4.340   6.760 -32.009  1.00  0.00    -0.188 N 
HETATM   12  H   UNL     1      -4.700   7.695 -32.121  1.00  0.00     0.184 HD
BRANCH  11  13
HETATM   13  C   UNL     1      -3.360   6.362 -32.933  1.00  0.00     0.055 A 
HETATM   14  C   UNL     1      -2.001   6.689 -32.717  1.00  0.00    -0.031 A 
HETATM   15  C   UNL     1      -1.026   6.276 -33.647  1.00  0.00     0.009 A 
HETATM   16  C   UNL     1      -1.375   5.525 -34.766  1.00  0.00     0.001 A 
HETATM   17  C   UNL     1      -2.702   5.171 -34.967  1.00  0.00     0.002 A 
HETATM   18  C   UNL     1      -3.678   5.578 -34.054  1.00  0.00     0.030 A 
BRANCH  14  19
HETATM   19  C   UNL     1      -1.534   7.474 -31.510  1.00  0.00     0.036 C 
HETATM   20  C   UNL     1      -0.169   7.011 -31.023  1.00  0.00     0.010 C 
ENDBRANCH  14  19
ENDBRANCH  11  13
ENDBRANCH   6  11
ENDBRANCH   1   2
BRANCH   1  21
HETATM   21  N   UNL     1      -8.298   3.390 -32.301  1.00  0.00    -0.260 N 
HETATM   22  C   UNL     1      -8.269   3.545 -33.646  1.00  0.00     0.326 A 
HETATM   23  O   UNL     1      -8.243   4.592 -34.269  1.00  0.00    -0.247 OA
HETATM   24  N   UNL     1      -8.275   2.304 -34.230  1.00  0.00    -0.321 N 
HETATM   25  C   UNL     1      -8.417   1.228 -33.271  1.00  0.00     0.140 A 
HETATM   26  H   UNL     1      -8.263   2.205 -35.235  1.00  0.00     0.165 HD
HETATM   27  C   UNL     1      -9.798   0.574 -33.392  1.00  0.00     0.054 C 
HETATM   28  C   UNL     1      -8.406   2.069 -31.970  1.00  0.00     0.261 A 
HETATM   29  O   UNL     1      -8.522   1.631 -30.831  1.00  0.00    -0.270 OA
BRANCH  25  30
HETATM   30  C   UNL     1      -7.285   0.221 -33.433  1.00  0.00    -0.020 A 
HETATM   31  C   UNL     1      -7.556  -1.045 -33.995  1.00  0.00     0.022 A 
HETATM   32  C   UNL     1      -6.553  -2.018 -34.161  1.00  0.00    -0.025 A 
HETATM   33  C   UNL     1      -5.235  -1.724 -33.757  1.00  0.00    -0.026 A 
HETATM   34  C   UNL     1      -6.835  -3.276 -34.718  1.00  0.00     0.012 A 
HETATM   35  C   UNL     1      -4.958  -0.469 -33.198  1.00  0.00     0.013 A 
HETATM   36  C   UNL     1      -4.231  -2.694 -33.920  1.00  0.00     0.012 A 
HETATM   37  C   UNL     1      -5.966   0.488 -33.038  1.00  0.00     0.011 A 
HETATM   38  C   UNL     1      -4.527  -3.939 -34.475  1.00  0.00     0.001 A 
HETATM   39  C   UNL     1      -5.827  -4.230 -34.874  1.00  0.00     0.001 A 
ENDBRANCH  25  30
ENDBRANCH   1  21
TORSDOF 7
ENDMDL
MODEL 5
REMARK VINA RESULT:     -10.1      5.633      8.906
REMARK  7 active torsions:
REMARK  status: ('A' for Active; 'I' for Inactive)
REMARK    1  A    between atoms: C_2  and  C_3 
REMARK    2  A    between atoms: C_4  and  N_5 
REMARK    3  A    between atoms: N_5  and  C_6 
REMARK    4  A    between atoms: C_8  and  N_9 
REMARK    5  A    between atoms: C_11  and  C_12 
REMARK    6  A    between atoms: C_12  and  N_13 
REMARK    7  A    between atoms: C_17  and  C_18 
ROOT
HETATM    1  C   UNL     1      -2.705   4.844 -33.759  1.00  0.00     0.218 C 
ENDROOT
BRANCH   1   2
HETATM    2  C   UNL     1      -4.145   4.818 -33.279  1.00  0.00     0.166 A 
HETATM    3  N   UNL     1      -4.799   5.977 -33.162  1.00  0.00    -0.200 NA
HETATM    4  C   UNL     1      -6.057   5.875 -32.774  1.00  0.00     0.219 A 
HETATM    5  N   UNL     1      -6.693   4.739 -32.559  1.00  0.00    -0.031 NA
HETATM    6  C   UNL     1      -5.977   3.629 -32.702  1.00  0.00     0.731 A 
HETATM    7  N   UNL     1      -4.692   3.621 -33.050  1.00  0.00    -0.045 NA
BRANCH   4   8
HETATM    8  N   UNL     1      -6.774   7.045 -32.630  1.00  0.00    -0.270 NA
HETATM    9  H   UNL     1      -6.509   7.509 -31.773  1.00  0.00     0.127 HD
HETATM   10  H   UNL     1      -7.759   6.878 -32.782  1.00  0.00     0.127 HD
ENDBRANCH   4   8
BRANCH   6  11
HETATM   11  N   UNL     1      -6.541   2.378 -32.455  1.00  0.00    -0.188 N 
HETATM   12  H   UNL     1      -6.710   2.264 -31.467  1.00  0.00     0.184 HD
BRANCH  11  13
HETATM   13  C   UNL     1      -6.616   1.210 -33.231  1.00  0.00     0.055 A 
HETATM   14  C   UNL     1      -6.226  -0.036 -32.684  1.00  0.00    -0.031 A 
HETATM   15  C   UNL     1      -6.316  -1.202 -33.470  1.00  0.00     0.009 A 
HETATM   16  C   UNL     1      -6.809  -1.155 -34.770  1.00  0.00     0.001 A 
HETATM   17  C   UNL     1      -7.226   0.058 -35.302  1.00  0.00     0.002 A 
HETATM   18  C   UNL     1      -7.138   1.222 -34.534  1.00  0.00     0.030 A 
BRANCH  14  19
HETATM   19  C   UNL     1      -5.711  -0.179 -31.268  1.00  0.00     0.036 C 
HETATM   20  C   UNL     1      -4.195  -0.076 -31.202  1.00  0.00     0.010 C 
ENDBRANCH  14  19
ENDBRANCH  11  13
ENDBRANCH   6  11
ENDBRANCH   1   2
BRANCH   1  21
HETATM   21  N   UNL     1      -1.837   5.644 -32.922  1.00  0.00    -0.260 N 
HETATM   22  C   UNL     1      -1.303   6.830 -33.299  1.00  0.00     0.326 A 
HETATM   23  O   UNL     1      -1.546   7.461 -34.314  1.00  0.00    -0.247 OA
HETATM   24  N   UNL     1      -0.412   7.235 -32.339  1.00  0.00    -0.321 N 
HETATM   25  C   UNL     1      -0.229   6.254 -31.289  1.00  0.00     0.140 A 
HETATM   26  H   UNL     1       0.100   8.100 -32.439  1.00  0.00     0.165 HD
HETATM   27  C   UNL     1       1.162   5.616 -31.382  1.00  0.00     0.054 C 
HETATM   28  C   UNL     1      -1.262   5.203 -31.764  1.00  0.00     0.261 A 
HETATM   29  O   UNL     1      -1.496   4.129 -31.221  1.00  0.00    -0.270 OA
BRANCH  25  30
HETATM   30  C   UNL     1      -0.485   6.883 -29.925  1.00  0.00    -0.020 A 
HETATM   31  C   UNL     1       0.598   7.402 -29.184  1.00  0.00     0.022 A 
HETATM   32  C   UNL     1       0.424   7.986 -27.915  1.00  0.00    -0.025 A 
HETATM   33  C   UNL     1      -0.871   8.060 -27.364  1.00  0.00    -0.026 A 
HETATM   34  C   UNL     1       1.510   8.496 -27.185  1.00  0.00     0.012 A 
HETATM   35  C   UNL     1      -1.952   7.547 -28.094  1.00  0.00     0.013 A 
HETATM   36  C   UNL     1      -1.049   8.642 -26.097  1.00  0.00     0.012 A 
HETATM   37  C   UNL     1      -1.762   6.968 -29.353  1.00  0.00     0.011 A 
HETATM   38  C   UNL     1       0.040   9.143 -25.384  1.00  0.00     0.001 A 
HETATM   39  C   UNL     1       1.319   9.071 -25.927  1.00  0.00     0.001 A 
ENDBRANCH  25  30
ENDBRANCH   1  21
TORSDOF 7
ENDMDL
MODEL 6
REMARK VINA RESULT:     -10.0      3.429      6.987
REMARK  7 active torsions:
REMARK  status: ('A' for Active; 'I' for Inactive)
REMARK    1  A    between atoms: C_2  and  C_3 
REMARK    2  A    between atoms: C_4  and  N_5 
REMARK    3  A    between atoms: N_5  and  C_6 
REMARK    4  A    between atoms: C_8  and  N_9 
REMARK    5  A    between atoms: C_11  and  C_12 
REMARK    6  A    between atoms: C_12  and  N_13 
REMARK    7  A    between atoms: C_17  and  C_18 
ROOT
HETATM    1  C   UNL     1      -7.374   4.593 -32.113  1.00  0.00     0.218 C 
ENDROOT
BRANCH   1   2
HETATM    2  C   UNL     1      -6.527   5.691 -31.492  1.00  0.00     0.166 A 
HETATM    3  N   UNL     1      -6.997   6.325 -30.415  1.00  0.00    -0.200 NA
HETATM    4  C   UNL     1      -6.192   7.241 -29.908  1.00  0.00     0.219 A 
HETATM    5  N   UNL     1      -4.980   7.514 -30.353  1.00  0.00    -0.031 NA
HETATM    6  C   UNL     1      -4.581   6.836 -31.424  1.00  0.00     0.731 A 
HETATM    7  N   UNL     1      -5.329   5.920 -32.036  1.00  0.00    -0.045 NA
BRANCH   4   8
HETATM    8  N   UNL     1      -6.634   7.931 -28.798  1.00  0.00    -0.270 NA
HETATM    9  H   UNL     1      -5.883   8.489 -28.416  1.00  0.00     0.127 HD
HETATM   10  H   UNL     1      -7.119   7.312 -28.165  1.00  0.00     0.127 HD
ENDBRANCH   4   8
BRANCH   6  11
HETATM   11  N   UNL     1      -3.336   7.081 -32.001  1.00  0.00    -0.188 N 
HETATM   12  H   UNL     1      -3.448   7.339 -32.970  1.00  0.00     0.184 HD
BRANCH  11  13
HETATM   13  C   UNL     1      -2.031   6.748 -31.600  1.00  0.00     0.055 A 
HETATM   14  C   UNL     1      -1.367   5.643 -32.182  1.00  0.00    -0.031 A 
HETATM   15  C   UNL     1      -0.054   5.326 -31.779  1.00  0.00     0.009 A 
HETATM   16  C   UNL     1       0.613   6.100 -30.834  1.00  0.00     0.001 A 
HETATM   17  C   UNL     1      -0.020   7.206 -30.284  1.00  0.00     0.002 A 
HETATM   18  C   UNL     1      -1.323   7.529 -30.673  1.00  0.00     0.030 A 
BRANCH  14  19
HETATM   19  C   UNL     1      -2.008   4.770 -33.239  1.00  0.00     0.036 C 
HETATM   20  C   UNL     1      -1.678   5.244 -34.646  1.00  0.00     0.010 C 
ENDBRANCH  14  19
ENDBRANCH  11  13
ENDBRANCH   6  11
ENDBRANCH   1   2
BRANCH   1  21
HETATM   21  N   UNL     1      -6.773   3.281 -32.011  1.00  0.00    -0.260 N 
HETATM   22  C   UNL     1      -6.663   2.587 -30.853  1.00  0.00     0.326 A 
HETATM   23  O   UNL     1      -7.136   2.878 -29.768  1.00  0.00    -0.247 OA
HETATM   24  N   UNL     1      -5.908   1.465 -31.085  1.00  0.00    -0.321 N 
HETATM   25  C   UNL     1      -5.377   1.410 -32.431  1.00  0.00     0.140 A 
HETATM   26  H   UNL     1      -5.704   0.815 -30.339  1.00  0.00     0.165 HD
HETATM   27  C   UNL     1      -3.860   1.634 -32.423  1.00  0.00     0.054 C 
HETATM   28  C   UNL     1      -6.038   2.690 -32.999  1.00  0.00     0.261 A 
HETATM   29  O   UNL     1      -5.894   3.130 -34.134  1.00  0.00    -0.270 OA
BRANCH  25  30
HETATM   30  C   UNL     1      -5.763   0.097 -33.100  1.00  0.00    -0.020 A 
HETATM   31  C   UNL     1      -4.831  -0.963 -33.141  1.00  0.00     0.022 A 
HETATM   32  C   UNL     1      -5.129  -2.195 -33.753  1.00  0.00    -0.025 A 
HETATM   33  C   UNL     1      -6.396  -2.383 -34.342  1.00  0.00    -0.026 A 
HETATM   34  C   UNL     1      -4.192  -3.241 -33.791  1.00  0.00     0.012 A 
HETATM   35  C   UNL     1      -7.326  -1.336 -34.305  1.00  0.00     0.013 A 
HETATM   36  C   UNL     1      -6.695  -3.612 -34.955  1.00  0.00     0.012 A 
HETATM   37  C   UNL     1      -7.015  -0.116 -33.695  1.00  0.00     0.011 A 
HETATM   38  C   UNL     1      -5.754  -4.641 -34.985  1.00  0.00     0.001 A 
HETATM   39  C   UNL     1      -4.504  -4.457 -34.404  1.00  0.00     0.001 A 
ENDBRANCH  25  30
ENDBRANCH   1  21
TORSDOF 7
ENDMDL
MODEL 7
REMARK VINA RESULT:     -10.0      1.861      3.010
REMARK  7 active torsions:
REMARK  status: ('A' for Active; 'I' for Inactive)
REMARK    1  A    between atoms: C_2  and  C_3 
REMARK    2  A    between atoms: C_4  and  N_5 
REMARK    3  A    between atoms: N_5  and  C_6 
REMARK    4  A    between atoms: C_8  and  N_9 
REMARK    5  A    between atoms: C_11  and  C_12 
REMARK    6  A    between atoms: C_12  and  N_13 
REMARK    7  A    between atoms: C_17  and  C_18 
ROOT
HETATM    1  C   UNL     1      -8.276   2.913 -30.335  1.00  0.00     0.218 C 
ENDROOT
BRANCH   1   2
HETATM    2  C   UNL     1      -9.325   3.973 -30.623  1.00  0.00     0.166 A 
HETATM    3  N   UNL     1      -9.058   5.240 -30.293  1.00  0.00    -0.200 NA
HETATM    4  C   UNL     1     -10.000   6.112 -30.606  1.00  0.00     0.219 A 
HETATM    5  N   UNL     1     -11.116   5.823 -31.248  1.00  0.00    -0.031 NA
HETATM    6  C   UNL     1     -11.306   4.542 -31.547  1.00  0.00     0.731 A 
HETATM    7  N   UNL     1     -10.440   3.578 -31.243  1.00  0.00    -0.045 NA
BRANCH   4   8
HETATM    8  N   UNL     1      -9.776   7.433 -30.279  1.00  0.00    -0.270 NA
HETATM    9  H   UNL     1      -9.713   7.991 -31.119  1.00  0.00     0.127 HD
HETATM   10  H   UNL     1      -9.020   7.511 -29.613  1.00  0.00     0.127 HD
ENDBRANCH   4   8
BRANCH   6  11
HETATM   11  N   UNL     1     -12.473   4.123 -32.185  1.00  0.00    -0.188 N 
HETATM   12  H   UNL     1     -13.275   4.566 -31.764  1.00  0.00     0.184 HD
BRANCH  11  13
HETATM   13  C   UNL     1     -12.744   3.036 -33.032  1.00  0.00     0.055 A 
HETATM   14  C   UNL     1     -13.903   2.250 -32.835  1.00  0.00    -0.031 A 
HETATM   15  C   UNL     1     -14.169   1.168 -33.698  1.00  0.00     0.009 A 
HETATM   16  C   UNL     1     -13.323   0.875 -34.762  1.00  0.00     0.001 A 
HETATM   17  C   UNL     1     -12.201   1.662 -34.984  1.00  0.00     0.002 A 
HETATM   18  C   UNL     1     -11.924   2.736 -34.132  1.00  0.00     0.030 A 
BRANCH  14  19
HETATM   19  C   UNL     1     -14.892   2.522 -31.722  1.00  0.00     0.036 C 
HETATM   20  C   UNL     1     -16.331   2.446 -32.208  1.00  0.00     0.010 C 
ENDBRANCH  14  19
ENDBRANCH  11  13
ENDBRANCH   6  11
ENDBRANCH   1   2
BRANCH   1  21
HETATM   21  N   UNL     1      -7.694   2.345 -31.531  1.00  0.00    -0.260 N 
HETATM   22  C   UNL     1      -6.838   3.008 -32.346  1.00  0.00     0.326 A 
HETATM   23  O   UNL     1      -6.337   4.102 -32.158  1.00  0.00    -0.247 OA
HETATM   24  N   UNL     1      -6.610   2.240 -33.459  1.00  0.00    -0.321 N 
HETATM   25  C   UNL     1      -7.411   1.033 -33.487  1.00  0.00     0.140 A 
HETATM   26  H   UNL     1      -6.000   2.564 -34.195  1.00  0.00     0.165 HD
HETATM   27  C   UNL     1      -8.490   1.125 -34.572  1.00  0.00     0.054 C 
HETATM   28  C   UNL     1      -8.111   1.181 -32.114  1.00  0.00     0.261 A 
HETATM   29  O   UNL     1      -8.937   0.409 -31.641  1.00  0.00    -0.270 OA
BRANCH  25  30
HETATM   30  C   UNL     1      -6.520  -0.190 -33.662  1.00  0.00    -0.020 A 
HETATM   31  C   UNL     1      -7.070  -1.384 -34.177  1.00  0.00     0.022 A 
HETATM   32  C   UNL     1      -6.297  -2.547 -34.352  1.00  0.00    -0.025 A 
HETATM   33  C   UNL     1      -4.931  -2.525 -34.006  1.00  0.00    -0.026 A 
HETATM   34  C   UNL     1      -6.857  -3.730 -34.863  1.00  0.00     0.012 A 
HETATM   35  C   UNL     1      -4.378  -1.344 -33.493  1.00  0.00     0.013 A 
HETATM   36  C   UNL     1      -4.158  -3.685 -34.178  1.00  0.00     0.012 A 
HETATM   37  C   UNL     1      -5.159  -0.196 -33.324  1.00  0.00     0.011 A 
HETATM   38  C   UNL     1      -4.728  -4.853 -34.686  1.00  0.00     0.001 A 
HETATM   39  C   UNL     1      -6.076  -4.876 -35.028  1.00  0.00     0.001 A 
ENDBRANCH  25  30
ENDBRANCH   1  21
TORSDOF 7
ENDMDL
MODEL 8
REMARK VINA RESULT:      -9.8      5.143      9.015
REMARK  7 active torsions:
REMARK  status: ('A' for Active; 'I' for Inactive)
REMARK    1  A    between atoms: C_2  and  C_3 
REMARK    2  A    between atoms: C_4  and  N_5 
REMARK    3  A    between atoms: N_5  and  C_6 
REMARK    4  A    between atoms: C_8  and  N_9 
REMARK    5  A    between atoms: C_11  and  C_12 
REMARK    6  A    between atoms: C_12  and  N_13 
REMARK    7  A    between atoms: C_17  and  C_18 
ROOT
HETATM    1  C   UNL     1      -3.210   3.511 -32.966  1.00  0.00     0.218 C 
ENDROOT
BRANCH   1   2
HETATM    2  C   UNL     1      -4.160   2.914 -31.942  1.00  0.00     0.166 A 
HETATM    3  N   UNL     1      -4.526   3.665 -30.899  1.00  0.00    -0.200 NA
HETATM    4  C   UNL     1      -5.381   3.094 -30.070  1.00  0.00     0.219 A 
HETATM    5  N   UNL     1      -5.914   1.898 -30.236  1.00  0.00    -0.031 NA
HETATM    6  C   UNL     1      -5.505   1.216 -31.300  1.00  0.00     0.731 A 
HETATM    7  N   UNL     1      -4.617   1.682 -32.177  1.00  0.00    -0.045 NA
BRANCH   4   8
HETATM    8  N   UNL     1      -5.785   3.825 -28.972  1.00  0.00    -0.270 NA
HETATM    9  H   UNL     1      -4.984   4.069 -28.406  1.00  0.00     0.127 HD
HETATM   10  H   UNL     1      -6.559   3.371 -28.508  1.00  0.00     0.127 HD
ENDBRANCH   4   8
BRANCH   6  11
HETATM   11  N   UNL     1      -5.971  -0.075 -31.544  1.00  0.00    -0.188 N 
HETATM   12  H   UNL     1      -6.227  -0.520 -30.676  1.00  0.00     0.184 HD
BRANCH  11  13
HETATM   13  C   UNL     1      -5.859  -0.921 -32.660  1.00  0.00     0.055 A 
HETATM   14  C   UNL     1      -6.928  -1.034 -33.579  1.00  0.00    -0.031 A 
HETATM   15  C   UNL     1      -6.799  -1.879 -34.700  1.00  0.00     0.009 A 
HETATM   16  C   UNL     1      -5.624  -2.585 -34.935  1.00  0.00     0.001 A 
HETATM   17  C   UNL     1      -4.557  -2.452 -34.056  1.00  0.00     0.002 A 
HETATM   18  C   UNL     1      -4.674  -1.621 -32.939  1.00  0.00     0.030 A 
BRANCH  14  19
HETATM   19  C   UNL     1      -8.227  -0.276 -33.415  1.00  0.00     0.036 C 
HETATM   20  C   UNL     1      -8.257   0.992 -34.255  1.00  0.00     0.010 C 
ENDBRANCH  14  19
ENDBRANCH  11  13
ENDBRANCH   6  11
ENDBRANCH   1   2
BRANCH   1  21
HETATM   21  N   UNL     1      -2.849   4.882 -32.679  1.00  0.00    -0.260 N 
HETATM   22  C   UNL     1      -3.540   5.957 -33.127  1.00  0.00     0.326 A 
HETATM   23  O   UNL     1      -4.606   5.957 -33.718  1.00  0.00    -0.247 OA
HETATM   24  N   UNL     1      -2.839   7.092 -32.809  1.00  0.00    -0.321 N 
HETATM   25  C   UNL     1      -1.553   6.812 -32.204  1.00  0.00     0.140 A 
HETATM   26  H   UNL     1      -3.188   8.005 -33.065  1.00  0.00     0.165 HD
HETATM   27  C   UNL     1      -0.414   7.163 -33.167  1.00  0.00     0.054 C 
HETATM   28  C   UNL     1      -1.655   5.268 -32.138  1.00  0.00     0.261 A 
HETATM   29  O   UNL     1      -0.791   4.508 -31.713  1.00  0.00    -0.270 OA
BRANCH  25  30
HETATM   30  C   UNL     1      -1.425   7.537 -30.870  1.00  0.00    -0.020 A 
HETATM   31  C   UNL     1      -0.215   7.459 -30.149  1.00  0.00     0.022 A 
HETATM   32  C   UNL     1      -0.041   8.101 -28.908  1.00  0.00    -0.025 A 
HETATM   33  C   UNL     1      -1.107   8.847 -28.365  1.00  0.00    -0.026 A 
HETATM   34  C   UNL     1       1.167   8.013 -28.198  1.00  0.00     0.012 A 
HETATM   35  C   UNL     1      -2.312   8.929 -29.074  1.00  0.00     0.013 A 
HETATM   36  C   UNL     1      -0.938   9.488 -27.126  1.00  0.00     0.012 A 
HETATM   37  C   UNL     1      -2.469   8.284 -30.307  1.00  0.00     0.011 A 
HETATM   38  C   UNL     1       0.269   9.391 -26.432  1.00  0.00     0.001 A 
HETATM   39  C   UNL     1       1.321   8.655 -26.968  1.00  0.00     0.001 A 
ENDBRANCH  25  30
ENDBRANCH   1  21
TORSDOF 7
ENDMDL
MODEL 9
REMARK VINA RESULT:      -9.7      1.416      2.184
REMARK  7 active torsions:
REMARK  status: ('A' for Active; 'I' for Inactive)
REMARK    1  A    between atoms: C_2  and  C_3 
REMARK    2  A    between atoms: C_4  and  N_5 
REMARK    3  A    between atoms: N_5  and  C_6 
REMARK    4  A    between atoms: C_8  and  N_9 
REMARK    5  A    between atoms: C_11  and  C_12 
REMARK    6  A    between atoms: C_12  and  N_13 
REMARK    7  A    between atoms: C_17  and  C_18 
ROOT
HETATM    1  C   UNL     1      -8.348   4.132 -32.787  1.00  0.00     0.218 C 
ENDROOT
BRANCH   1   2
HETATM    2  C   UNL     1      -9.748   3.850 -33.303  1.00  0.00     0.166 A 
HETATM    3  N   UNL     1      -9.933   3.754 -34.623  1.00  0.00    -0.200 NA
HETATM    4  C   UNL     1     -11.168   3.472 -34.997  1.00  0.00     0.219 A 
HETATM    5  N   UNL     1     -12.172   3.235 -34.175  1.00  0.00    -0.031 NA
HETATM    6  C   UNL     1     -11.907   3.343 -32.877  1.00  0.00     0.731 A 
HETATM    7  N   UNL     1     -10.708   3.662 -32.395  1.00  0.00    -0.045 NA
BRANCH   4   8
HETATM    8  N   UNL     1     -11.414   3.370 -36.350  1.00  0.00    -0.270 NA
HETATM    9  H   UNL     1     -11.236   4.256 -36.802  1.00  0.00     0.127 HD
HETATM   10  H   UNL     1     -12.311   2.936 -36.516  1.00  0.00     0.127 HD
ENDBRANCH   4   8
BRANCH   6  11
HETATM   11  N   UNL     1     -12.909   3.157 -31.925  1.00  0.00    -0.188 N 
HETATM   12  H   UNL     1     -12.574   2.564 -31.182  1.00  0.00     0.184 HD
BRANCH  11  13
HETATM   13  C   UNL     1     -14.297   3.368 -31.967  1.00  0.00     0.055 A 
HETATM   14  C   UNL     1     -15.161   2.341 -32.416  1.00  0.00    -0.031 A 
HETATM   15  C   UNL     1     -16.553   2.561 -32.443  1.00  0.00     0.009 A 
HETATM   16  C   UNL     1     -17.097   3.766 -32.009  1.00  0.00     0.001 A 
HETATM   17  C   UNL     1     -16.259   4.766 -31.535  1.00  0.00     0.002 A 
HETATM   18  C   UNL     1     -14.877   4.561 -31.507  1.00  0.00     0.030 A 
BRANCH  14  19
HETATM   19  C   UNL     1     -14.652   0.991 -32.873  1.00  0.00     0.036 C 
HETATM   20  C   UNL     1     -14.961   0.734 -34.340  1.00  0.00     0.010 C 
ENDBRANCH  14  19
ENDBRANCH  11  13
ENDBRANCH   6  11
ENDBRANCH   1   2
BRANCH   1  21
HETATM   21  N   UNL     1      -7.584   2.932 -32.521  1.00  0.00    -0.260 N 
HETATM   22  C   UNL     1      -7.534   2.318 -31.314  1.00  0.00     0.326 A 
HETATM   23  O   UNL     1      -8.187   2.585 -30.321  1.00  0.00    -0.247 OA
HETATM   24  N   UNL     1      -6.601   1.314 -31.372  1.00  0.00    -0.321 N 
HETATM   25  C   UNL     1      -5.889   1.277 -32.633  1.00  0.00     0.140 A 
HETATM   26  H   UNL     1      -6.409   0.739 -30.565  1.00  0.00     0.165 HD
HETATM   27  C   UNL     1      -4.436   1.728 -32.447  1.00  0.00     0.054 C 
HETATM   28  C   UNL     1      -6.644   2.413 -33.366  1.00  0.00     0.261 A 
HETATM   29  O   UNL     1      -6.412   2.816 -34.500  1.00  0.00    -0.270 OA
BRANCH  25  30
HETATM   30  C   UNL     1      -5.987  -0.110 -33.256  1.00  0.00    -0.020 A 
HETATM   31  C   UNL     1      -4.931  -1.029 -33.077  1.00  0.00     0.022 A 
HETATM   32  C   UNL     1      -4.962  -2.321 -33.636  1.00  0.00    -0.025 A 
HETATM   33  C   UNL     1      -6.082  -2.714 -34.397  1.00  0.00    -0.026 A 
HETATM   34  C   UNL     1      -3.904  -3.226 -33.455  1.00  0.00     0.012 A 
HETATM   35  C   UNL     1      -7.134  -1.807 -34.580  1.00  0.00     0.013 A 
HETATM   36  C   UNL     1      -6.116  -4.002 -34.959  1.00  0.00     0.012 A 
HETATM   37  C   UNL     1      -7.088  -0.526 -34.019  1.00  0.00     0.011 A 
HETATM   38  C   UNL     1      -5.056  -4.890 -34.769  1.00  0.00     0.001 A 
HETATM   39  C   UNL     1      -3.951  -4.503 -34.018  1.00  0.00     0.001 A 
ENDBRANCH  25  30
ENDBRANCH   1  21
TORSDOF 7
ENDMDL
MODEL 10
REMARK VINA RESULT:      -9.4      1.862      3.131
REMARK  7 active torsions:
REMARK  status: ('A' for Active; 'I' for Inactive)
REMARK    1  A    between atoms: C_2  and  C_3 
REMARK    2  A    between atoms: C_4  and  N_5 
REMARK    3  A    between atoms: N_5  and  C_6 
REMARK    4  A    between atoms: C_8  and  N_9 
REMARK    5  A    between atoms: C_11  and  C_12 
REMARK    6  A    between atoms: C_12  and  N_13 
REMARK    7  A    between atoms: C_17  and  C_18 
ROOT
HETATM    1  C   UNL     1      -8.689   4.223 -32.927  1.00  0.00     0.218 C 
ENDROOT
BRANCH   1   2
HETATM    2  C   UNL     1     -10.037   3.588 -33.218  1.00  0.00     0.166 A 
HETATM    3  N   UNL     1     -10.173   2.863 -34.331  1.00  0.00    -0.200 NA
HETATM    4  C   UNL     1     -11.361   2.311 -34.501  1.00  0.00     0.219 A 
HETATM    5  N   UNL     1     -12.360   2.387 -33.642  1.00  0.00    -0.031 NA
HETATM    6  C   UNL     1     -12.146   3.122 -32.556  1.00  0.00     0.731 A 
HETATM    7  N   UNL     1     -11.000   3.752 -32.307  1.00  0.00    -0.045 NA
BRANCH   4   8
HETATM    8  N   UNL     1     -11.555   1.558 -35.640  1.00  0.00    -0.270 NA
HETATM    9  H   UNL     1     -11.455   2.139 -36.460  1.00  0.00     0.127 HD
HETATM   10  H   UNL     1     -12.398   1.007 -35.562  1.00  0.00     0.127 HD
ENDBRANCH   4   8
BRANCH   6  11
HETATM   11  N   UNL     1     -13.151   3.304 -31.607  1.00  0.00    -0.188 N 
HETATM   12  H   UNL     1     -12.801   3.090 -30.686  1.00  0.00     0.184 HD
BRANCH  11  13
HETATM   13  C   UNL     1     -14.547   3.416 -31.725  1.00  0.00     0.055 A 
HETATM   14  C   UNL     1     -15.176   4.675 -31.577  1.00  0.00    -0.031 A 
HETATM   15  C   UNL     1     -16.576   4.776 -31.708  1.00  0.00     0.009 A 
HETATM   16  C   UNL     1     -17.351   3.659 -32.008  1.00  0.00     0.001 A 
HETATM   17  C   UNL     1     -16.737   2.427 -32.189  1.00  0.00     0.002 A 
HETATM   18  C   UNL     1     -15.350   2.314 -32.058  1.00  0.00     0.030 A 
BRANCH  14  19
HETATM   19  C   UNL     1     -14.403   5.943 -31.283  1.00  0.00     0.036 C 
HETATM   20  C   UNL     1     -14.385   6.266 -29.797  1.00  0.00     0.010 C 
ENDBRANCH  14  19
ENDBRANCH  11  13
ENDBRANCH   6  11
ENDBRANCH   1   2
BRANCH   1  21
HETATM   21  N   UNL     1      -7.691   3.272 -32.489  1.00  0.00    -0.260 N 
HETATM   22  C   UNL     1      -7.650   2.735 -31.246  1.00  0.00     0.326 A 
HETATM   23  O   UNL     1      -8.478   2.859 -30.359  1.00  0.00    -0.247 OA
HETATM   24  N   UNL     1      -6.496   2.004 -31.122  1.00  0.00    -0.321 N 
HETATM   25  C   UNL     1      -5.635   2.107 -32.282  1.00  0.00     0.140 A 
HETATM   26  H   UNL     1      -6.276   1.527 -30.260  1.00  0.00     0.165 HD
HETATM   27  C   UNL     1      -4.381   2.925 -31.953  1.00  0.00     0.054 C 
HETATM   28  C   UNL     1      -6.546   2.983 -33.176  1.00  0.00     0.261 A 
HETATM   29  O   UNL     1      -6.273   3.391 -34.299  1.00  0.00    -0.270 OA
BRANCH  25  30
HETATM   30  C   UNL     1      -5.297   0.721 -32.816  1.00  0.00    -0.020 A 
HETATM   31  C   UNL     1      -6.328  -0.101 -33.318  1.00  0.00     0.022 A 
HETATM   32  C   UNL     1      -6.078  -1.394 -33.816  1.00  0.00    -0.025 A 
HETATM   33  C   UNL     1      -4.757  -1.887 -33.817  1.00  0.00    -0.026 A 
HETATM   34  C   UNL     1      -7.113  -2.204 -34.310  1.00  0.00     0.012 A 
HETATM   35  C   UNL     1      -3.728  -1.077 -33.319  1.00  0.00     0.013 A 
HETATM   36  C   UNL     1      -4.503  -3.178 -34.311  1.00  0.00     0.012 A 
HETATM   37  C   UNL     1      -3.993   0.206 -32.826  1.00  0.00     0.011 A 
HETATM   38  C   UNL     1      -5.542  -3.971 -34.798  1.00  0.00     0.001 A 
HETATM   39  C   UNL     1      -6.846  -3.485 -34.799  1.00  0.00     0.001 A 
ENDBRANCH  25  30
ENDBRANCH   1  21
TORSDOF 7
ENDMDL
