MODEL 1
REMARK VINA RESULT:      -8.2      0.000      0.000
REMARK  6 active torsions:
REMARK  status: ('A' for Active; 'I' for Inactive)
REMARK    1  A    between atoms: O_2  and  C_3 
REMARK    2  A    between atoms: C_3  and  C_4 
REMARK    3  A    between atoms: C_4  and  N_5 
REMARK       I    between atoms: N_5  and  C_6 
REMARK    4  A    between atoms: C_6  and  C_7 
REMARK    5  A    between atoms: C_12  and  C_13 
REMARK    6  A    between atoms: C_21  and  C_22 
ROOT
HETATM    1  C   UNL     1     -11.057   2.110 -33.770  1.00  0.00     0.170 A 
HETATM    2  N   UNL     1      -9.981   2.903 -34.012  1.00  0.00    -0.163 NA
HETATM    3  N   UNL     1      -8.935   2.094 -33.785  1.00  0.00    -0.238 N 
HETATM    4  C   UNL     1      -9.274   0.809 -33.465  1.00  0.00     0.145 A 
HETATM    5  N   UNL     1      -8.320  -0.137 -33.264  1.00  0.00    -0.365 N 
HETATM    6  C   UNL     1      -6.914   0.236 -33.145  1.00  0.00     0.118 C 
HETATM    7  C   UNL     1      -6.608   1.390 -34.118  1.00  0.00     0.066 C 
HETATM    8  C   UNL     1      -7.568   2.574 -33.897  1.00  0.00     0.221 C 
HETATM    9  C   UNL     1     -10.649   0.787 -33.435  1.00  0.00     0.115 A 
HETATM   10 CL   UNL     1     -11.632  -0.549 -33.074  1.00  0.00    -0.077 Cl
HETATM   11  H   UNL     1      -8.578  -1.025 -32.829  1.00  0.00     0.162 HD
ENDROOT
BRANCH   1  12
HETATM   12  C   UNL     1     -12.425   2.645 -33.871  1.00  0.00     0.273 C 
HETATM   13  N   UNL     1     -13.171   2.435 -32.733  1.00  0.00    -0.353 N 
HETATM   14  H   UNL     1     -12.661   2.088 -31.924  1.00  0.00     0.162 HD
HETATM   15  O   UNL     1     -12.863   3.220 -34.862  1.00  0.00    -0.266 OA
BRANCH  13  16
HETATM   16  C   UNL     1     -14.477   3.025 -32.526  1.00  0.00     0.149 C 
BRANCH  16  17
HETATM   17  C   UNL     1     -15.469   2.003 -31.972  1.00  0.00     0.186 C 
BRANCH  17  18
HETATM   18  O   UNL     1     -16.700   2.105 -32.695  1.00  0.00    -0.394 OA
HETATM   19  C   UNL     1     -17.651   2.898 -31.993  1.00  0.00     0.201 C 
ENDBRANCH  17  18
ENDBRANCH  16  17
ENDBRANCH  13  16
ENDBRANCH   1  12
BRANCH   8  20
HETATM   20  C   UNL     1      -7.205   3.380 -32.668  1.00  0.00     0.409 C 
HETATM   21  F   UNL     1      -5.888   3.322 -32.370  1.00  0.00    -0.169 F 
HETATM   22  F   UNL     1      -7.497   4.691 -32.873  1.00  0.00    -0.169 F 
HETATM   23  F   UNL     1      -7.893   3.002 -31.571  1.00  0.00    -0.169 F 
ENDBRANCH   8  20
BRANCH   6  24
HETATM   24  C   UNL     1      -6.023  -0.961 -33.427  1.00  0.00    -0.035 A 
HETATM   25  C   UNL     1      -4.802  -1.146 -32.758  1.00  0.00     0.011 A 
HETATM   26  C   UNL     1      -4.008  -2.266 -33.018  1.00  0.00     0.024 A 
HETATM   27  C   UNL     1      -4.433  -3.216 -33.945  1.00  0.00     0.034 A 
HETATM   28 CL   UNL     1      -3.459  -4.597 -34.264  1.00  0.00    -0.084 Cl
HETATM   29  C   UNL     1      -5.644  -3.054 -34.612  1.00  0.00     0.024 A 
HETATM   30  C   UNL     1      -6.437  -1.932 -34.355  1.00  0.00     0.011 A 
ENDBRANCH   6  24
TORSDOF 6
ENDMDL
MODEL 2
REMARK VINA RESULT:      -8.2      5.227      7.749
REMARK  6 active torsions:
REMARK  status: ('A' for Active; 'I' for Inactive)
REMARK    1  A    between atoms: O_2  and  C_3 
REMARK    2  A    between atoms: C_3  and  C_4 
REMARK    3  A    between atoms: C_4  and  N_5 
REMARK       I    between atoms: N_5  and  C_6 
REMARK    4  A    between atoms: C_6  and  C_7 
REMARK    5  A    between atoms: C_12  and  C_13 
REMARK    6  A    between atoms: C_21  and  C_22 
ROOT
HETATM    1  C   UNL     1      -4.249   4.398 -31.163  1.00  0.00     0.170 A 
HETATM    2  N   UNL     1      -5.201   3.825 -30.383  1.00  0.00    -0.163 NA
HETATM    3  N   UNL     1      -5.581   2.748 -31.087  1.00  0.00    -0.238 N 
HETATM    4  C   UNL     1      -4.889   2.562 -32.251  1.00  0.00     0.145 A 
HETATM    5  N   UNL     1      -5.123   1.482 -33.041  1.00  0.00    -0.365 N 
HETATM    6  C   UNL     1      -6.277   0.622 -32.801  1.00  0.00     0.118 C 
HETATM    7  C   UNL     1      -6.505   0.484 -31.285  1.00  0.00     0.066 C 
HETATM    8  C   UNL     1      -6.632   1.864 -30.613  1.00  0.00     0.221 C 
HETATM    9  C   UNL     1      -4.020   3.626 -32.337  1.00  0.00     0.115 A 
HETATM   10 CL   UNL     1      -2.916   3.931 -33.589  1.00  0.00    -0.077 Cl
HETATM   11  H   UNL     1      -4.752   1.466 -33.992  1.00  0.00     0.162 HD
ENDROOT
BRANCH   1  12
HETATM   12  C   UNL     1      -3.597   5.654 -30.755  1.00  0.00     0.273 C 
HETATM   13  N   UNL     1      -2.248   5.510 -30.518  1.00  0.00    -0.353 N 
HETATM   14  H   UNL     1      -1.840   4.620 -30.796  1.00  0.00     0.162 HD
HETATM   15  O   UNL     1      -4.188   6.722 -30.635  1.00  0.00    -0.266 OA
BRANCH  13  16
HETATM   16  C   UNL     1      -1.365   6.633 -30.282  1.00  0.00     0.149 C 
BRANCH  16  17
HETATM   17  C   UNL     1      -0.604   7.019 -31.548  1.00  0.00     0.186 C 
BRANCH  17  18
HETATM   18  O   UNL     1      -1.394   7.940 -32.308  1.00  0.00    -0.394 OA
HETATM   19  C   UNL     1      -1.774   7.387 -33.562  1.00  0.00     0.201 C 
ENDBRANCH  17  18
ENDBRANCH  16  17
ENDBRANCH  13  16
ENDBRANCH   1  12
BRANCH   8  20
HETATM   20  C   UNL     1      -7.985   2.496 -30.862  1.00  0.00     0.409 C 
HETATM   21  F   UNL     1      -8.960   1.587 -31.079  1.00  0.00    -0.169 F 
HETATM   22  F   UNL     1      -8.365   3.217 -29.774  1.00  0.00    -0.169 F 
HETATM   23  F   UNL     1      -7.980   3.353 -31.904  1.00  0.00    -0.169 F 
ENDBRANCH   8  20
BRANCH   6  24
HETATM   24  C   UNL     1      -6.065  -0.739 -33.442  1.00  0.00    -0.035 A 
HETATM   25  C   UNL     1      -4.800  -1.349 -33.480  1.00  0.00     0.011 A 
HETATM   26  C   UNL     1      -4.633  -2.610 -34.055  1.00  0.00     0.024 A 
HETATM   27  C   UNL     1      -5.731  -3.278 -34.593  1.00  0.00     0.034 A 
HETATM   28 CL   UNL     1      -5.527  -4.833 -35.299  1.00  0.00    -0.084 Cl
HETATM   29  C   UNL     1      -6.994  -2.694 -34.558  1.00  0.00     0.024 A 
HETATM   30  C   UNL     1      -7.162  -1.431 -33.985  1.00  0.00     0.011 A 
ENDBRANCH   6  24
TORSDOF 6
ENDMDL
MODEL 3
REMARK VINA RESULT:      -8.1      7.430      9.959
REMARK  6 active torsions:
REMARK  status: ('A' for Active; 'I' for Inactive)
REMARK    1  A    between atoms: O_2  and  C_3 
REMARK    2  A    between atoms: C_3  and  C_4 
REMARK    3  A    between atoms: C_4  and  N_5 
REMARK       I    between atoms: N_5  and  C_6 
REMARK    4  A    between atoms: C_6  and  C_7 
REMARK    5  A    between atoms: C_12  and  C_13 
REMARK    6  A    between atoms: C_21  and  C_22 
ROOT
HETATM    1  C   UNL     1      -3.971   3.186 -32.269  1.00  0.00     0.170 A 
HETATM    2  N   UNL     1      -2.840   3.447 -32.975  1.00  0.00    -0.163 NA
HETATM    3  N   UNL     1      -2.321   4.518 -32.356  1.00  0.00    -0.238 N 
HETATM    4  C   UNL     1      -3.023   4.931 -31.258  1.00  0.00     0.145 A 
HETATM    5  N   UNL     1      -2.587   5.968 -30.497  1.00  0.00    -0.365 N 
HETATM    6  C   UNL     1      -1.498   6.823 -30.958  1.00  0.00     0.118 C 
HETATM    7  C   UNL     1      -0.454   5.967 -31.697  1.00  0.00     0.066 C 
HETATM    8  C   UNL     1      -1.103   5.152 -32.831  1.00  0.00     0.221 C 
HETATM    9  C   UNL     1      -4.110   4.091 -31.178  1.00  0.00     0.115 A 
HETATM   10 CL   UNL     1      -5.345   4.142 -30.015  1.00  0.00    -0.077 Cl
HETATM   11  H   UNL     1      -3.219   6.389 -29.814  1.00  0.00     0.162 HD
ENDROOT
BRANCH   1  12
HETATM   12  C   UNL     1      -4.867   2.086 -32.663  1.00  0.00     0.273 C 
HETATM   13  N   UNL     1      -4.295   0.842 -32.510  1.00  0.00    -0.353 N 
HETATM   14  H   UNL     1      -3.408   0.819 -32.011  1.00  0.00     0.162 HD
HETATM   15  O   UNL     1      -6.007   2.251 -33.085  1.00  0.00    -0.266 OA
BRANCH  13  16
HETATM   16  C   UNL     1      -5.038  -0.391 -32.661  1.00  0.00     0.149 C 
BRANCH  16  17
HETATM   17  C   UNL     1      -4.340  -1.347 -33.626  1.00  0.00     0.186 C 
BRANCH  17  18
HETATM   18  O   UNL     1      -5.328  -2.041 -34.395  1.00  0.00    -0.394 OA
HETATM   19  C   UNL     1      -6.457  -1.215 -34.658  1.00  0.00     0.201 C 
ENDBRANCH  17  18
ENDBRANCH  16  17
ENDBRANCH  13  16
ENDBRANCH   1  12
BRANCH   8  20
HETATM   20  C   UNL     1      -1.409   6.007 -34.043  1.00  0.00     0.409 C 
HETATM   21  F   UNL     1      -0.626   7.104 -34.124  1.00  0.00    -0.169 F 
HETATM   22  F   UNL     1      -1.191   5.292 -35.178  1.00  0.00    -0.169 F 
HETATM   23  F   UNL     1      -2.695   6.412 -34.088  1.00  0.00    -0.169 F 
ENDBRANCH   8  20
BRANCH   6  24
HETATM   24  C   UNL     1      -0.867   7.555 -29.786  1.00  0.00    -0.035 A 
HETATM   25  C   UNL     1       0.451   7.296 -29.377  1.00  0.00     0.011 A 
HETATM   26  C   UNL     1       1.018   7.997 -28.310  1.00  0.00     0.024 A 
HETATM   27  C   UNL     1       0.274   8.969 -27.646  1.00  0.00     0.034 A 
HETATM   28 CL   UNL     1       0.972   9.836 -26.335  1.00  0.00    -0.084 Cl
HETATM   29  C   UNL     1      -1.032   9.247 -28.042  1.00  0.00     0.024 A 
HETATM   30  C   UNL     1      -1.600   8.544 -29.107  1.00  0.00     0.011 A 
ENDBRANCH   6  24
TORSDOF 6
ENDMDL
MODEL 4
REMARK VINA RESULT:      -7.8      5.328      8.021
REMARK  6 active torsions:
REMARK  status: ('A' for Active; 'I' for Inactive)
REMARK    1  A    between atoms: O_2  and  C_3 
REMARK    2  A    between atoms: C_3  and  C_4 
REMARK    3  A    between atoms: C_4  and  N_5 
REMARK       I    between atoms: N_5  and  C_6 
REMARK    4  A    between atoms: C_6  and  C_7 
REMARK    5  A    between atoms: C_12  and  C_13 
REMARK    6  A    between atoms: C_21  and  C_22 
ROOT
HETATM    1  C   UNL     1      -4.433   4.306 -31.080  1.00  0.00     0.170 A 
HETATM    2  N   UNL     1      -5.447   3.728 -30.385  1.00  0.00    -0.163 NA
HETATM    3  N   UNL     1      -5.756   2.647 -31.117  1.00  0.00    -0.238 N 
HETATM    4  C   UNL     1      -4.964   2.464 -32.216  1.00  0.00     0.145 A 
HETATM    5  N   UNL     1      -5.121   1.381 -33.020  1.00  0.00    -0.365 N 
HETATM    6  C   UNL     1      -6.286   0.512 -32.880  1.00  0.00     0.118 C 
HETATM    7  C   UNL     1      -6.645   0.376 -31.389  1.00  0.00     0.066 C 
HETATM    8  C   UNL     1      -6.839   1.757 -30.734  1.00  0.00     0.221 C 
HETATM    9  C   UNL     1      -4.097   3.533 -32.228  1.00  0.00     0.115 A 
HETATM   10 CL   UNL     1      -2.890   3.843 -33.380  1.00  0.00    -0.077 Cl
HETATM   11  H   UNL     1      -4.668   1.365 -33.935  1.00  0.00     0.162 HD
ENDROOT
BRANCH   1  12
HETATM   12  C   UNL     1      -3.828   5.567 -30.621  1.00  0.00     0.273 C 
HETATM   13  N   UNL     1      -2.457   5.499 -30.509  1.00  0.00    -0.353 N 
HETATM   14  H   UNL     1      -2.021   4.664 -30.896  1.00  0.00     0.162 HD
HETATM   15  O   UNL     1      -4.471   6.579 -30.361  1.00  0.00    -0.266 OA
BRANCH  13  16
HETATM   16  C   UNL     1      -1.628   6.657 -30.250  1.00  0.00     0.149 C 
BRANCH  16  17
HETATM   17  C   UNL     1      -0.178   6.407 -30.657  1.00  0.00     0.186 C 
BRANCH  17  18
HETATM   18  O   UNL     1       0.684   7.201 -29.836  1.00  0.00    -0.394 OA
HETATM   19  C   UNL     1       0.322   7.112 -28.463  1.00  0.00     0.201 C 
ENDBRANCH  17  18
ENDBRANCH  16  17
ENDBRANCH  13  16
ENDBRANCH   1  12
BRANCH   8  20
HETATM   20  C   UNL     1      -8.169   2.380 -31.102  1.00  0.00     0.409 C 
HETATM   21  F   UNL     1      -8.098   3.162 -32.201  1.00  0.00    -0.169 F 
HETATM   22  F   UNL     1      -9.074   1.405 -31.379  1.00  0.00    -0.169 F 
HETATM   23  F   UNL     1      -8.697   3.117 -30.103  1.00  0.00    -0.169 F 
ENDBRANCH   8  20
BRANCH   6  24
HETATM   24  C   UNL     1      -6.010  -0.848 -33.496  1.00  0.00    -0.035 A 
HETATM   25  C   UNL     1      -4.721  -1.407 -33.505  1.00  0.00     0.011 A 
HETATM   26  C   UNL     1      -4.495  -2.669 -34.059  1.00  0.00     0.024 A 
HETATM   27  C   UNL     1      -5.557  -3.388 -34.602  1.00  0.00     0.034 A 
HETATM   28 CL   UNL     1      -5.280  -4.944 -35.281  1.00  0.00    -0.084 Cl
HETATM   29  C   UNL     1      -6.843  -2.855 -34.595  1.00  0.00     0.024 A 
HETATM   30  C   UNL     1      -7.069  -1.591 -34.044  1.00  0.00     0.011 A 
ENDBRANCH   6  24
TORSDOF 6
ENDMDL
MODEL 5
REMARK VINA RESULT:      -7.6      4.650      8.259
REMARK  6 active torsions:
REMARK  status: ('A' for Active; 'I' for Inactive)
REMARK    1  A    between atoms: O_2  and  C_3 
REMARK    2  A    between atoms: C_3  and  C_4 
REMARK    3  A    between atoms: C_4  and  N_5 
REMARK       I    between atoms: N_5  and  C_6 
REMARK    4  A    between atoms: C_6  and  C_7 
REMARK    5  A    between atoms: C_12  and  C_13 
REMARK    6  A    between atoms: C_21  and  C_22 
ROOT
HETATM    1  C   UNL     1      -5.110   2.649 -32.315  1.00  0.00     0.170 A 
HETATM    2  N   UNL     1      -5.086   1.641 -33.224  1.00  0.00    -0.163 NA
HETATM    3  N   UNL     1      -6.359   1.219 -33.263  1.00  0.00    -0.238 N 
HETATM    4  C   UNL     1      -7.214   1.934 -32.472  1.00  0.00     0.145 A 
HETATM    5  N   UNL     1      -8.544   1.660 -32.452  1.00  0.00    -0.365 N 
HETATM    6  C   UNL     1      -9.064   0.450 -33.081  1.00  0.00     0.118 C 
HETATM    7  C   UNL     1      -8.277   0.168 -34.374  1.00  0.00     0.066 C 
HETATM    8  C   UNL     1      -6.763   0.104 -34.102  1.00  0.00     0.221 C 
HETATM    9  C   UNL     1      -6.432   2.867 -31.831  1.00  0.00     0.115 A 
HETATM   10 CL   UNL     1      -6.954   4.025 -30.705  1.00  0.00    -0.077 Cl
HETATM   11  H   UNL     1      -9.128   2.058 -31.714  1.00  0.00     0.162 HD
ENDROOT
BRANCH   1  12
HETATM   12  C   UNL     1      -3.875   3.362 -31.947  1.00  0.00     0.273 C 
HETATM   13  N   UNL     1      -3.919   4.706 -32.244  1.00  0.00    -0.353 N 
HETATM   14  H   UNL     1      -4.826   5.070 -32.526  1.00  0.00     0.162 HD
HETATM   15  O   UNL     1      -2.902   2.821 -31.431  1.00  0.00    -0.266 OA
BRANCH  13  16
HETATM   16  C   UNL     1      -2.901   5.642 -31.815  1.00  0.00     0.149 C 
BRANCH  16  17
HETATM   17  C   UNL     1      -2.691   6.749 -32.846  1.00  0.00     0.186 C 
BRANCH  17  18
HETATM   18  O   UNL     1      -2.619   6.166 -34.152  1.00  0.00    -0.394 OA
HETATM   19  C   UNL     1      -1.285   5.802 -34.485  1.00  0.00     0.201 C 
ENDBRANCH  17  18
ENDBRANCH  16  17
ENDBRANCH  13  16
ENDBRANCH   1  12
BRANCH   8  20
HETATM   20  C   UNL     1      -6.357  -1.201 -33.450  1.00  0.00     0.409 C 
HETATM   21  F   UNL     1      -6.404  -1.153 -32.101  1.00  0.00    -0.169 F 
HETATM   22  F   UNL     1      -7.206  -2.191 -33.831  1.00  0.00    -0.169 F 
HETATM   23  F   UNL     1      -5.119  -1.602 -33.805  1.00  0.00    -0.169 F 
ENDBRANCH   8  20
BRANCH   6  24
HETATM   24  C   UNL     1     -10.548   0.600 -33.372  1.00  0.00    -0.035 A 
HETATM   25  C   UNL     1     -11.087   1.802 -33.860  1.00  0.00     0.011 A 
HETATM   26  C   UNL     1     -12.451   1.910 -34.141  1.00  0.00     0.024 A 
HETATM   27  C   UNL     1     -13.288   0.814 -33.944  1.00  0.00     0.034 A 
HETATM   28 CL   UNL     1     -14.967   0.945 -34.292  1.00  0.00    -0.084 Cl
HETATM   29  C   UNL     1     -12.771  -0.388 -33.468  1.00  0.00     0.024 A 
HETATM   30  C   UNL     1     -11.408  -0.496 -33.184  1.00  0.00     0.011 A 
ENDBRANCH   6  24
TORSDOF 6
ENDMDL
MODEL 6
REMARK VINA RESULT:      -7.6      5.256      7.088
REMARK  6 active torsions:
REMARK  status: ('A' for Active; 'I' for Inactive)
REMARK    1  A    between atoms: O_2  and  C_3 
REMARK    2  A    between atoms: C_3  and  C_4 
REMARK    3  A    between atoms: C_4  and  N_5 
REMARK       I    between atoms: N_5  and  C_6 
REMARK    4  A    between atoms: C_6  and  C_7 
REMARK    5  A    between atoms: C_12  and  C_13 
REMARK    6  A    between atoms: C_21  and  C_22 
ROOT
HETATM    1  C   UNL     1      -4.576   4.235 -30.886  1.00  0.00     0.170 A 
HETATM    2  N   UNL     1      -5.616   3.661 -30.227  1.00  0.00    -0.163 NA
HETATM    3  N   UNL     1      -5.915   2.591 -30.979  1.00  0.00    -0.238 N 
HETATM    4  C   UNL     1      -5.093   2.412 -32.057  1.00  0.00     0.145 A 
HETATM    5  N   UNL     1      -5.239   1.339 -32.878  1.00  0.00    -0.365 N 
HETATM    6  C   UNL     1      -6.417   0.482 -32.781  1.00  0.00     0.118 C 
HETATM    7  C   UNL     1      -6.820   0.334 -31.303  1.00  0.00     0.066 C 
HETATM    8  C   UNL     1      -7.018   1.709 -30.638  1.00  0.00     0.221 C 
HETATM    9  C   UNL     1      -4.216   3.471 -32.033  1.00  0.00     0.115 A 
HETATM   10 CL   UNL     1      -2.973   3.781 -33.145  1.00  0.00    -0.077 Cl
HETATM   11  H   UNL     1      -4.760   1.329 -33.780  1.00  0.00     0.162 HD
ENDROOT
BRANCH   1  12
HETATM   12  C   UNL     1      -3.972   5.484 -30.395  1.00  0.00     0.273 C 
HETATM   13  N   UNL     1      -4.586   5.974 -29.263  1.00  0.00    -0.353 N 
HETATM   14  H   UNL     1      -5.262   5.354 -28.821  1.00  0.00     0.162 HD
HETATM   15  O   UNL     1      -3.019   6.040 -30.932  1.00  0.00    -0.266 OA
BRANCH  13  16
HETATM   16  C   UNL     1      -4.061   7.084 -28.498  1.00  0.00     0.149 C 
BRANCH  16  17
HETATM   17  C   UNL     1      -3.987   6.750 -27.010  1.00  0.00     0.186 C 
BRANCH  17  18
HETATM   18  O   UNL     1      -5.033   7.444 -26.320  1.00  0.00    -0.394 OA
HETATM   19  C   UNL     1      -5.456   8.595 -27.041  1.00  0.00     0.201 C 
ENDBRANCH  17  18
ENDBRANCH  16  17
ENDBRANCH  13  16
ENDBRANCH   1  12
BRANCH   8  20
HETATM   20  C   UNL     1      -8.330   2.350 -31.037  1.00  0.00     0.409 C 
HETATM   21  F   UNL     1      -8.217   3.152 -32.118  1.00  0.00    -0.169 F 
HETATM   22  F   UNL     1      -9.234   1.388 -31.363  1.00  0.00    -0.169 F 
HETATM   23  F   UNL     1      -8.884   3.074 -30.042  1.00  0.00    -0.169 F 
ENDBRANCH   8  20
BRANCH   6  24
HETATM   24  C   UNL     1      -6.137  -0.874 -33.405  1.00  0.00    -0.035 A 
HETATM   25  C   UNL     1      -7.157  -1.641 -33.992  1.00  0.00     0.011 A 
HETATM   26  C   UNL     1      -6.873  -2.877 -34.579  1.00  0.00     0.024 A 
HETATM   27  C   UNL     1      -5.564  -3.353 -34.591  1.00  0.00     0.034 A 
HETATM   28 CL   UNL     1      -5.211  -4.872 -35.317  1.00  0.00    -0.084 Cl
HETATM   29  C   UNL     1      -4.538  -2.603 -34.022  1.00  0.00     0.024 A 
HETATM   30  C   UNL     1      -4.822  -1.369 -33.432  1.00  0.00     0.011 A 
ENDBRANCH   6  24
TORSDOF 6
ENDMDL
MODEL 7
REMARK VINA RESULT:      -7.5      5.471      8.811
REMARK  6 active torsions:
REMARK  status: ('A' for Active; 'I' for Inactive)
REMARK    1  A    between atoms: O_2  and  C_3 
REMARK    2  A    between atoms: C_3  and  C_4 
REMARK    3  A    between atoms: C_4  and  N_5 
REMARK       I    between atoms: N_5  and  C_6 
REMARK    4  A    between atoms: C_6  and  C_7 
REMARK    5  A    between atoms: C_12  and  C_13 
REMARK    6  A    between atoms: C_21  and  C_22 
ROOT
HETATM    1  C   UNL     1      -3.118   3.795 -31.990  1.00  0.00     0.170 A 
HETATM    2  N   UNL     1      -2.998   2.493 -32.356  1.00  0.00    -0.163 NA
HETATM    3  N   UNL     1      -4.267   2.059 -32.405  1.00  0.00    -0.238 N 
HETATM    4  C   UNL     1      -5.202   3.021 -32.144  1.00  0.00     0.145 A 
HETATM    5  N   UNL     1      -6.530   2.744 -32.213  1.00  0.00    -0.365 N 
HETATM    6  C   UNL     1      -6.997   1.366 -32.327  1.00  0.00     0.118 C 
HETATM    7  C   UNL     1      -6.036   0.573 -33.231  1.00  0.00     0.066 C 
HETATM    8  C   UNL     1      -4.584   0.678 -32.727  1.00  0.00     0.221 C 
HETATM    9  C   UNL     1      -4.488   4.163 -31.860  1.00  0.00     0.115 A 
HETATM   10 CL   UNL     1      -5.127   5.678 -31.443  1.00  0.00    -0.077 Cl
HETATM   11  H   UNL     1      -7.202   3.406 -31.821  1.00  0.00     0.162 HD
ENDROOT
BRANCH   1  12
HETATM   12  C   UNL     1      -1.925   4.632 -31.783  1.00  0.00     0.273 C 
HETATM   13  N   UNL     1      -1.878   5.723 -32.623  1.00  0.00    -0.353 N 
HETATM   14  H   UNL     1      -2.722   5.906 -33.161  1.00  0.00     0.162 HD
HETATM   15  O   UNL     1      -1.057   4.390 -30.951  1.00  0.00    -0.266 OA
BRANCH  13  16
HETATM   16  C   UNL     1      -0.900   6.782 -32.486  1.00  0.00     0.149 C 
BRANCH  16  17
HETATM   17  C   UNL     1      -1.557   8.096 -32.070  1.00  0.00     0.186 C 
BRANCH  17  18
HETATM   18  O   UNL     1      -2.166   7.930 -30.785  1.00  0.00    -0.394 OA
HETATM   19  C   UNL     1      -1.193   7.898 -29.748  1.00  0.00     0.201 C 
ENDBRANCH  17  18
ENDBRANCH  16  17
ENDBRANCH  13  16
ENDBRANCH   1  12
BRANCH   8  20
HETATM   20  C   UNL     1      -4.336  -0.201 -31.520  1.00  0.00     0.409 C 
HETATM   21  F   UNL     1      -5.106  -1.310 -31.509  1.00  0.00    -0.169 F 
HETATM   22  F   UNL     1      -3.045  -0.627 -31.517  1.00  0.00    -0.169 F 
HETATM   23  F   UNL     1      -4.527   0.446 -30.352  1.00  0.00    -0.169 F 
ENDBRANCH   8  20
BRANCH   6  24
HETATM   24  C   UNL     1      -8.412   1.331 -32.879  1.00  0.00    -0.035 A 
HETATM   25  C   UNL     1      -8.886   2.318 -33.759  1.00  0.00     0.011 A 
HETATM   26  C   UNL     1     -10.184   2.254 -34.272  1.00  0.00     0.024 A 
HETATM   27  C   UNL     1     -11.018   1.197 -33.915  1.00  0.00     0.034 A 
HETATM   28 CL   UNL     1     -12.615   1.114 -34.548  1.00  0.00    -0.084 Cl
HETATM   29  C   UNL     1     -10.564   0.204 -33.051  1.00  0.00     0.024 A 
HETATM   30  C   UNL     1      -9.267   0.270 -32.535  1.00  0.00     0.011 A 
ENDBRANCH   6  24
TORSDOF 6
ENDMDL
MODEL 8
REMARK VINA RESULT:      -7.4      4.870      7.736
REMARK  6 active torsions:
REMARK  status: ('A' for Active; 'I' for Inactive)
REMARK    1  A    between atoms: O_2  and  C_3 
REMARK    2  A    between atoms: C_3  and  C_4 
REMARK    3  A    between atoms: C_4  and  N_5 
REMARK       I    between atoms: N_5  and  C_6 
REMARK    4  A    between atoms: C_6  and  C_7 
REMARK    5  A    between atoms: C_12  and  C_13 
REMARK    6  A    between atoms: C_21  and  C_22 
ROOT
HETATM    1  C   UNL     1      -6.526   0.434 -33.587  1.00  0.00     0.170 A 
HETATM    2  N   UNL     1      -6.874   1.544 -34.288  1.00  0.00    -0.163 NA
HETATM    3  N   UNL     1      -6.072   2.497 -33.791  1.00  0.00    -0.238 N 
HETATM    4  C   UNL     1      -5.187   2.055 -32.848  1.00  0.00     0.145 A 
HETATM    5  N   UNL     1      -4.273   2.894 -32.296  1.00  0.00    -0.365 N 
HETATM    6  C   UNL     1      -4.362   4.336 -32.510  1.00  0.00     0.118 C 
HETATM    7  C   UNL     1      -4.835   4.610 -33.949  1.00  0.00     0.066 C 
HETATM    8  C   UNL     1      -6.152   3.872 -34.253  1.00  0.00     0.221 C 
HETATM    9  C   UNL     1      -5.463   0.717 -32.682  1.00  0.00     0.115 A 
HETATM   10 CL   UNL     1      -4.685  -0.352 -31.618  1.00  0.00    -0.077 Cl
HETATM   11  H   UNL     1      -3.767   2.604 -31.458  1.00  0.00     0.162 HD
ENDROOT
BRANCH   1  12
HETATM   12  C   UNL     1      -7.219  -0.846 -33.809  1.00  0.00     0.273 C 
HETATM   13  N   UNL     1      -6.427  -1.788 -34.428  1.00  0.00    -0.353 N 
HETATM   14  H   UNL     1      -5.441  -1.552 -34.514  1.00  0.00     0.162 HD
HETATM   15  O   UNL     1      -8.381  -1.060 -33.481  1.00  0.00    -0.266 OA
BRANCH  13  16
HETATM   16  C   UNL     1      -6.826  -3.170 -34.590  1.00  0.00     0.149 C 
BRANCH  16  17
HETATM   17  C   UNL     1      -5.769  -3.970 -35.348  1.00  0.00     0.186 C 
BRANCH  17  18
HETATM   18  O   UNL     1      -5.444  -5.146 -34.600  1.00  0.00    -0.394 OA
HETATM   19  C   UNL     1      -4.203  -5.002 -33.918  1.00  0.00     0.201 C 
ENDBRANCH  17  18
ENDBRANCH  16  17
ENDBRANCH  13  16
ENDBRANCH   1  12
BRANCH   8  20
HETATM   20  C   UNL     1      -7.346   4.557 -33.622  1.00  0.00     0.409 C 
HETATM   21  F   UNL     1      -7.627   4.092 -32.385  1.00  0.00    -0.169 F 
HETATM   22  F   UNL     1      -7.099   5.886 -33.489  1.00  0.00    -0.169 F 
HETATM   23  F   UNL     1      -8.466   4.449 -34.367  1.00  0.00    -0.169 F 
ENDBRANCH   8  20
BRANCH   6  24
HETATM   24  C   UNL     1      -3.019   4.994 -32.246  1.00  0.00    -0.035 A 
HETATM   25  C   UNL     1      -2.630   6.169 -32.910  1.00  0.00     0.011 A 
HETATM   26  C   UNL     1      -1.398   6.769 -32.636  1.00  0.00     0.024 A 
HETATM   27  C   UNL     1      -0.547   6.203 -31.689  1.00  0.00     0.034 A 
HETATM   28 CL   UNL     1       0.968   6.942 -31.348  1.00  0.00    -0.084 Cl
HETATM   29  C   UNL     1      -0.919   5.043 -31.015  1.00  0.00     0.024 A 
HETATM   30  C   UNL     1      -2.149   4.441 -31.291  1.00  0.00     0.011 A 
ENDBRANCH   6  24
TORSDOF 6
ENDMDL
MODEL 9
REMARK VINA RESULT:      -7.3      4.725      6.879
REMARK  6 active torsions:
REMARK  status: ('A' for Active; 'I' for Inactive)
REMARK    1  A    between atoms: O_2  and  C_3 
REMARK    2  A    between atoms: C_3  and  C_4 
REMARK    3  A    between atoms: C_4  and  N_5 
REMARK       I    between atoms: N_5  and  C_6 
REMARK    4  A    between atoms: C_6  and  C_7 
REMARK    5  A    between atoms: C_12  and  C_13 
REMARK    6  A    between atoms: C_21  and  C_22 
ROOT
HETATM    1  C   UNL     1      -5.594   4.224 -30.985  1.00  0.00     0.170 A 
HETATM    2  N   UNL     1      -6.897   3.897 -31.185  1.00  0.00    -0.163 NA
HETATM    3  N   UNL     1      -6.833   2.797 -31.951  1.00  0.00    -0.238 N 
HETATM    4  C   UNL     1      -5.562   2.364 -32.210  1.00  0.00     0.145 A 
HETATM    5  N   UNL     1      -5.341   1.230 -32.924  1.00  0.00    -0.365 N 
HETATM    6  C   UNL     1      -6.433   0.574 -33.638  1.00  0.00     0.118 C 
HETATM    7  C   UNL     1      -7.721   0.674 -32.802  1.00  0.00     0.066 C 
HETATM    8  C   UNL     1      -8.034   2.136 -32.432  1.00  0.00     0.221 C 
HETATM    9  C   UNL     1      -4.730   3.277 -31.605  1.00  0.00     0.115 A 
HETATM   10 CL   UNL     1      -3.033   3.258 -31.609  1.00  0.00    -0.077 Cl
HETATM   11  H   UNL     1      -4.403   1.036 -33.280  1.00  0.00     0.162 HD
ENDROOT
BRANCH   1  12
HETATM   12  C   UNL     1      -5.230   5.423 -30.211  1.00  0.00     0.273 C 
HETATM   13  N   UNL     1      -4.784   6.460 -31.000  1.00  0.00    -0.353 N 
HETATM   14  H   UNL     1      -4.903   6.338 -32.004  1.00  0.00     0.162 HD
HETATM   15  O   UNL     1      -5.311   5.498 -28.990  1.00  0.00    -0.266 OA
BRANCH  13  16
HETATM   16  C   UNL     1      -4.539   7.792 -30.489  1.00  0.00     0.149 C 
BRANCH  16  17
HETATM   17  C   UNL     1      -3.419   8.488 -31.259  1.00  0.00     0.186 C 
BRANCH  17  18
HETATM   18  O   UNL     1      -3.611   9.904 -31.189  1.00  0.00    -0.394 OA
HETATM   19  C   UNL     1      -4.931  10.230 -30.768  1.00  0.00     0.201 C 
ENDBRANCH  17  18
ENDBRANCH  16  17
ENDBRANCH  13  16
ENDBRANCH   1  12
BRANCH   8  20
HETATM   20  C   UNL     1      -8.611   2.908 -33.600  1.00  0.00     0.409 C 
HETATM   21  F   UNL     1      -9.173   2.109 -34.533  1.00  0.00    -0.169 F 
HETATM   22  F   UNL     1      -9.592   3.741 -33.163  1.00  0.00    -0.169 F 
HETATM   23  F   UNL     1      -7.697   3.685 -34.218  1.00  0.00    -0.169 F 
ENDBRANCH   8  20
BRANCH   6  24
HETATM   24  C   UNL     1      -6.083  -0.876 -33.923  1.00  0.00    -0.035 A 
HETATM   25  C   UNL     1      -7.022  -1.769 -34.466  1.00  0.00     0.011 A 
HETATM   26  C   UNL     1      -6.672  -3.093 -34.740  1.00  0.00     0.024 A 
HETATM   27  C   UNL     1      -5.377  -3.535 -34.481  1.00  0.00     0.034 A 
HETATM   28 CL   UNL     1      -4.944  -5.165 -34.822  1.00  0.00    -0.084 Cl
HETATM   29  C   UNL     1      -4.430  -2.664 -33.951  1.00  0.00     0.024 A 
HETATM   30  C   UNL     1      -4.780  -1.340 -33.673  1.00  0.00     0.011 A 
ENDBRANCH   6  24
TORSDOF 6
ENDMDL
MODEL 10
REMARK VINA RESULT:      -7.3      4.474      6.131
REMARK  6 active torsions:
REMARK  status: ('A' for Active; 'I' for Inactive)
REMARK    1  A    between atoms: O_2  and  C_3 
REMARK    2  A    between atoms: C_3  and  C_4 
REMARK    3  A    between atoms: C_4  and  N_5 
REMARK       I    between atoms: N_5  and  C_6 
REMARK    4  A    between atoms: C_6  and  C_7 
REMARK    5  A    between atoms: C_12  and  C_13 
REMARK    6  A    between atoms: C_21  and  C_22 
ROOT
HETATM    1  C   UNL     1      -6.270   4.645 -31.853  1.00  0.00     0.170 A 
HETATM    2  N   UNL     1      -7.314   3.884 -31.436  1.00  0.00    -0.163 NA
HETATM    3  N   UNL     1      -7.072   2.685 -31.986  1.00  0.00    -0.238 N 
HETATM    4  C   UNL     1      -5.903   2.613 -32.691  1.00  0.00     0.145 A 
HETATM    5  N   UNL     1      -5.496   1.448 -33.256  1.00  0.00    -0.365 N 
HETATM    6  C   UNL     1      -6.401   0.305 -33.339  1.00  0.00     0.118 C 
HETATM    7  C   UNL     1      -7.258   0.240 -32.062  1.00  0.00     0.066 C 
HETATM    8  C   UNL     1      -7.990   1.572 -31.814  1.00  0.00     0.221 C 
HETATM    9  C   UNL     1      -5.360   3.877 -32.633  1.00  0.00     0.115 A 
HETATM   10 CL   UNL     1      -3.909   4.387 -33.350  1.00  0.00    -0.077 Cl
HETATM   11  H   UNL     1      -4.739   1.460 -33.942  1.00  0.00     0.162 HD
ENDROOT
BRANCH   1  12
HETATM   12  C   UNL     1      -6.184   6.069 -31.490  1.00  0.00     0.273 C 
HETATM   13  N   UNL     1      -6.381   6.297 -30.146  1.00  0.00    -0.353 N 
HETATM   14  H   UNL     1      -6.405   5.470 -29.554  1.00  0.00     0.162 HD
HETATM   15  O   UNL     1      -5.961   6.968 -32.295  1.00  0.00    -0.266 OA
BRANCH  13  16
HETATM   16  C   UNL     1      -6.168   7.587 -29.525  1.00  0.00     0.149 C 
BRANCH  16  17
HETATM   17  C   UNL     1      -6.791   7.645 -28.132  1.00  0.00     0.186 C 
BRANCH  17  18
HETATM   18  O   UNL     1      -6.061   6.780 -27.256  1.00  0.00    -0.394 OA
HETATM   19  C   UNL     1      -4.769   7.302 -26.967  1.00  0.00     0.201 C 
ENDBRANCH  17  18
ENDBRANCH  16  17
ENDBRANCH  13  16
ENDBRANCH   1  12
BRANCH   8  20
HETATM   20  C   UNL     1      -9.184   1.745 -32.729  1.00  0.00     0.409 C 
HETATM   21  F   UNL     1      -9.735   0.570 -33.103  1.00  0.00    -0.169 F 
HETATM   22  F   UNL     1     -10.159   2.442 -32.089  1.00  0.00    -0.169 F 
HETATM   23  F   UNL     1      -8.891   2.439 -33.848  1.00  0.00    -0.169 F 
ENDBRANCH   8  20
BRANCH   6  24
HETATM   24  C   UNL     1      -5.614  -0.980 -33.529  1.00  0.00    -0.035 A 
HETATM   25  C   UNL     1      -4.517  -1.302 -32.713  1.00  0.00     0.011 A 
HETATM   26  C   UNL     1      -3.821  -2.500 -32.892  1.00  0.00     0.024 A 
HETATM   27  C   UNL     1      -4.221  -3.392 -33.884  1.00  0.00     0.034 A 
HETATM   28 CL   UNL     1      -3.368  -4.869 -34.104  1.00  0.00    -0.084 Cl
HETATM   29  C   UNL     1      -5.311  -3.095 -34.698  1.00  0.00     0.024 A 
HETATM   30  C   UNL     1      -6.005  -1.895 -34.521  1.00  0.00     0.011 A 
ENDBRANCH   6  24
TORSDOF 6
ENDMDL
