MODEL 1
REMARK VINA RESULT:      -8.8      0.000      0.000
REMARK  6 active torsions:
REMARK  status: ('A' for Active; 'I' for Inactive)
REMARK    1  A    between atoms: O_2  and  C_3 
REMARK    2  A    between atoms: C_6  and  C_7 
REMARK    3  A    between atoms: C_7  and  N_8 
REMARK       I    between atoms: N_8  and  C_9 
REMARK    4  A    between atoms: C_9  and  C_10 
REMARK    5  A    between atoms: C_10  and  O_11 
REMARK    6  A    between atoms: N_12  and  C_13 
ROOT
HETATM    1  C   UNL     1      -8.919   1.542 -32.078  1.00  0.00     0.256 C 
HETATM    2  N   UNL     1      -7.931   2.330 -31.318  1.00  0.00    -0.254 N 
HETATM    3  C   UNL     1      -8.320   3.470 -30.628  1.00  0.00     0.330 C 
HETATM    4  O   UNL     1      -7.646   4.068 -29.787  1.00  0.00    -0.246 OA
HETATM    5  N   UNL     1      -9.556   3.978 -30.870  1.00  0.00    -0.308 N 
HETATM    6  C   UNL     1     -10.498   3.457 -31.736  1.00  0.00     0.048 A 
HETATM    7  C   UNL     1     -10.236   2.247 -32.357  1.00  0.00     0.035 A 
HETATM    8  C   UNL     1     -11.696   4.145 -31.948  1.00  0.00     0.031 A 
HETATM    9  C   UNL     1     -12.657   3.619 -32.809  1.00  0.00     0.021 A 
HETATM   10  C   UNL     1     -12.418   2.398 -33.430  1.00  0.00     0.011 A 
HETATM   11 BR   UNL     1     -13.713   1.669 -34.598  1.00  0.00    -0.051 Br
HETATM   12  C   UNL     1     -11.227   1.706 -33.201  1.00  0.00     0.034 A 
HETATM   13  H   UNL     1      -9.752   4.834 -30.366  1.00  0.00     0.170 HD
ENDROOT
BRANCH   1  14
HETATM   14  C   UNL     1      -8.323   1.104 -33.492  1.00  0.00     0.279 C 
HETATM   15  N   UNL     1      -8.166  -0.270 -33.615  1.00  0.00    -0.352 N 
HETATM   16  H   UNL     1      -8.300  -0.829 -32.777  1.00  0.00     0.162 HD
HETATM   17  O   UNL     1      -8.088   1.887 -34.411  1.00  0.00    -0.268 OA
BRANCH  15  18
HETATM   18  C   UNL     1      -7.721  -0.901 -34.831  1.00  0.00     0.161 C 
BRANCH  18  19
HETATM   19  C   UNL     1      -6.551  -1.821 -34.602  1.00  0.00    -0.040 A 
HETATM   20  C   UNL     1      -5.415  -1.385 -33.910  1.00  0.00     0.011 A 
HETATM   21  C   UNL     1      -4.364  -2.270 -33.653  1.00  0.00     0.037 A 
HETATM   22  C   UNL     1      -4.433  -3.599 -34.076  1.00  0.00     0.068 A 
HETATM   23  C   UNL     1      -5.540  -4.026 -34.806  1.00  0.00     0.037 A 
HETATM   24  C   UNL     1      -6.593  -3.143 -35.066  1.00  0.00     0.011 A 
BRANCH  22  25
HETATM   25  O   UNL     1      -3.359  -4.374 -33.731  1.00  0.00    -0.356 OA
HETATM   26  C   UNL     1      -2.890  -4.226 -32.395  1.00  0.00     0.210 C 
ENDBRANCH  22  25
ENDBRANCH  18  19
ENDBRANCH  15  18
ENDBRANCH   1  14
BRANCH   1  27
HETATM   27  O   UNL     1      -9.272   0.420 -31.264  1.00  0.00    -0.359 OA
HETATM   28  H   UNL     1      -9.875  -0.090 -31.834  1.00  0.00     0.213 HD
ENDBRANCH   1  27
BRANCH   2  29
HETATM   29  C   UNL     1      -6.549   1.883 -31.248  1.00  0.00     0.042 A 
HETATM   30  C   UNL     1      -6.153   0.769 -30.487  1.00  0.00     0.030 A 
HETATM   31  C   UNL     1      -4.817   0.344 -30.450  1.00  0.00     0.002 A 
HETATM   32  C   UNL     1      -3.846   1.022 -31.176  1.00  0.00     0.000 A 
HETATM   33  C   UNL     1      -4.208   2.119 -31.942  1.00  0.00     0.002 A 
HETATM   34  C   UNL     1      -5.543   2.540 -31.979  1.00  0.00     0.030 A 
ENDBRANCH   2  29
TORSDOF 6
ENDMDL
MODEL 2
REMARK VINA RESULT:      -8.2      3.714      5.840
REMARK  6 active torsions:
REMARK  status: ('A' for Active; 'I' for Inactive)
REMARK    1  A    between atoms: O_2  and  C_3 
REMARK    2  A    between atoms: C_6  and  C_7 
REMARK    3  A    between atoms: C_7  and  N_8 
REMARK       I    between atoms: N_8  and  C_9 
REMARK    4  A    between atoms: C_9  and  C_10 
REMARK    5  A    between atoms: C_10  and  O_11 
REMARK    6  A    between atoms: N_12  and  C_13 
ROOT
HETATM    1  C   UNL     1      -5.093   3.833 -32.214  1.00  0.00     0.256 C 
HETATM    2  N   UNL     1      -6.528   4.035 -31.938  1.00  0.00    -0.254 N 
HETATM    3  C   UNL     1      -6.979   5.229 -31.391  1.00  0.00     0.330 C 
HETATM    4  O   UNL     1      -8.154   5.595 -31.332  1.00  0.00    -0.246 OA
HETATM    5  N   UNL     1      -6.059   6.093 -30.888  1.00  0.00    -0.308 N 
HETATM    6  C   UNL     1      -4.689   5.916 -30.882  1.00  0.00     0.048 A 
HETATM    7  C   UNL     1      -4.156   4.815 -31.531  1.00  0.00     0.035 A 
HETATM    8  C   UNL     1      -3.875   6.857 -30.245  1.00  0.00     0.031 A 
HETATM    9  C   UNL     1      -2.492   6.692 -30.246  1.00  0.00     0.021 A 
HETATM   10  C   UNL     1      -1.936   5.600 -30.905  1.00  0.00     0.011 A 
HETATM   11 BR   UNL     1      -0.061   5.366 -30.919  1.00  0.00    -0.051 Br
HETATM   12  C   UNL     1      -2.754   4.674 -31.555  1.00  0.00     0.034 A 
HETATM   13  H   UNL     1      -6.464   6.919 -30.466  1.00  0.00     0.170 HD
ENDROOT
BRANCH   1  14
HETATM   14  C   UNL     1      -4.634   2.371 -31.766  1.00  0.00     0.279 C 
HETATM   15  N   UNL     1      -4.264   1.566 -32.836  1.00  0.00    -0.352 N 
HETATM   16  H   UNL     1      -4.453   1.918 -33.769  1.00  0.00     0.162 HD
HETATM   17  O   UNL     1      -4.547   2.007 -30.595  1.00  0.00    -0.268 OA
BRANCH  15  18
HETATM   18  C   UNL     1      -3.739   0.236 -32.667  1.00  0.00     0.161 C 
BRANCH  18  19
HETATM   19  C   UNL     1      -4.595  -0.805 -33.339  1.00  0.00    -0.040 A 
HETATM   20  C   UNL     1      -4.094  -2.084 -33.610  1.00  0.00     0.011 A 
HETATM   21  C   UNL     1      -4.920  -3.058 -34.179  1.00  0.00     0.037 A 
HETATM   22  C   UNL     1      -6.254  -2.773 -34.479  1.00  0.00     0.068 A 
HETATM   23  C   UNL     1      -6.745  -1.488 -34.255  1.00  0.00     0.037 A 
HETATM   24  C   UNL     1      -5.920  -0.511 -33.687  1.00  0.00     0.011 A 
BRANCH  22  25
HETATM   25  O   UNL     1      -6.969  -3.819 -34.996  1.00  0.00    -0.356 OA
HETATM   26  C   UNL     1      -6.210  -4.817 -35.670  1.00  0.00     0.210 C 
ENDBRANCH  22  25
ENDBRANCH  18  19
ENDBRANCH  15  18
ENDBRANCH   1  14
BRANCH   1  27
HETATM   27  O   UNL     1      -4.902   4.060 -33.613  1.00  0.00    -0.359 OA
HETATM   28  H   UNL     1      -4.540   4.964 -33.646  1.00  0.00     0.213 HD
ENDBRANCH   1  27
BRANCH   2  29
HETATM   29  C   UNL     1      -7.485   2.997 -32.288  1.00  0.00     0.042 A 
HETATM   30  C   UNL     1      -7.944   2.805 -33.603  1.00  0.00     0.030 A 
HETATM   31  C   UNL     1      -8.852   1.785 -33.921  1.00  0.00     0.002 A 
HETATM   32  C   UNL     1      -9.321   0.931 -32.931  1.00  0.00     0.000 A 
HETATM   33  C   UNL     1      -8.879   1.091 -31.626  1.00  0.00     0.002 A 
HETATM   34  C   UNL     1      -7.971   2.109 -31.313  1.00  0.00     0.030 A 
ENDBRANCH   2  29
TORSDOF 6
ENDMDL
MODEL 3
REMARK VINA RESULT:      -8.1      2.738      7.391
REMARK  6 active torsions:
REMARK  status: ('A' for Active; 'I' for Inactive)
REMARK    1  A    between atoms: O_2  and  C_3 
REMARK    2  A    between atoms: C_6  and  C_7 
REMARK    3  A    between atoms: C_7  and  N_8 
REMARK       I    between atoms: N_8  and  C_9 
REMARK    4  A    between atoms: C_9  and  C_10 
REMARK    5  A    between atoms: C_10  and  O_11 
REMARK    6  A    between atoms: N_12  and  C_13 
ROOT
HETATM    1  C   UNL     1      -6.658   0.947 -33.578  1.00  0.00     0.256 C 
HETATM    2  N   UNL     1      -5.980   1.991 -32.787  1.00  0.00    -0.254 N 
HETATM    3  C   UNL     1      -4.628   1.883 -32.490  1.00  0.00     0.330 C 
HETATM    4  O   UNL     1      -3.914   2.784 -32.045  1.00  0.00    -0.246 OA
HETATM    5  N   UNL     1      -4.012   0.694 -32.721  1.00  0.00    -0.308 N 
HETATM    6  C   UNL     1      -4.597  -0.439 -33.252  1.00  0.00     0.048 A 
HETATM    7  C   UNL     1      -5.907  -0.367 -33.698  1.00  0.00     0.035 A 
HETATM    8  C   UNL     1      -3.855  -1.619 -33.346  1.00  0.00     0.031 A 
HETATM    9  C   UNL     1      -4.433  -2.762 -33.893  1.00  0.00     0.021 A 
HETATM   10  C   UNL     1      -5.742  -2.706 -34.361  1.00  0.00     0.011 A 
HETATM   11 BR   UNL     1      -6.540  -4.248 -35.108  1.00  0.00    -0.051 Br
HETATM   12  C   UNL     1      -6.473  -1.519 -34.280  1.00  0.00     0.034 A 
HETATM   13  H   UNL     1      -3.040   0.677 -32.438  1.00  0.00     0.170 HD
ENDROOT
BRANCH   1  14
HETATM   14  C   UNL     1      -8.086   0.606 -32.951  1.00  0.00     0.279 C 
HETATM   15  N   UNL     1      -9.140   0.895 -33.809  1.00  0.00    -0.352 N 
HETATM   16  H   UNL     1      -8.921   1.411 -34.656  1.00  0.00     0.162 HD
HETATM   17  O   UNL     1      -8.246   0.077 -31.853  1.00  0.00    -0.268 OA
BRANCH  15  18
HETATM   18  C   UNL     1     -10.512   0.595 -33.490  1.00  0.00     0.161 C 
BRANCH  18  19
HETATM   19  C   UNL     1     -11.358   1.835 -33.384  1.00  0.00    -0.040 A 
HETATM   20  C   UNL     1     -12.706   1.823 -33.761  1.00  0.00     0.011 A 
HETATM   21  C   UNL     1     -13.493   2.967 -33.599  1.00  0.00     0.037 A 
HETATM   22  C   UNL     1     -12.951   4.133 -33.055  1.00  0.00     0.068 A 
HETATM   23  C   UNL     1     -11.598   4.166 -32.721  1.00  0.00     0.037 A 
HETATM   24  C   UNL     1     -10.808   3.023 -32.883  1.00  0.00     0.011 A 
BRANCH  22  25
HETATM   25  O   UNL     1     -13.831   5.170 -32.912  1.00  0.00    -0.356 OA
HETATM   26  C   UNL     1     -14.973   4.910 -32.101  1.00  0.00     0.210 C 
ENDBRANCH  22  25
ENDBRANCH  18  19
ENDBRANCH  15  18
ENDBRANCH   1  14
BRANCH   1  27
HETATM   27  O   UNL     1      -6.754   1.437 -34.919  1.00  0.00    -0.359 OA
HETATM   28  H   UNL     1      -7.644   1.831 -34.950  1.00  0.00     0.213 HD
ENDBRANCH   1  27
BRANCH   2  29
HETATM   29  C   UNL     1      -6.718   3.169 -32.358  1.00  0.00     0.042 A 
HETATM   30  C   UNL     1      -7.057   4.211 -33.238  1.00  0.00     0.030 A 
HETATM   31  C   UNL     1      -7.787   5.327 -32.806  1.00  0.00     0.002 A 
HETATM   32  C   UNL     1      -8.198   5.427 -31.483  1.00  0.00     0.000 A 
HETATM   33  C   UNL     1      -7.886   4.410 -30.594  1.00  0.00     0.002 A 
HETATM   34  C   UNL     1      -7.159   3.295 -31.028  1.00  0.00     0.030 A 
ENDBRANCH   2  29
TORSDOF 6
ENDMDL
MODEL 4
REMARK VINA RESULT:      -8.1      2.897      4.683
REMARK  6 active torsions:
REMARK  status: ('A' for Active; 'I' for Inactive)
REMARK    1  A    between atoms: O_2  and  C_3 
REMARK    2  A    between atoms: C_6  and  C_7 
REMARK    3  A    between atoms: C_7  and  N_8 
REMARK       I    between atoms: N_8  and  C_9 
REMARK    4  A    between atoms: C_9  and  C_10 
REMARK    5  A    between atoms: C_10  and  O_11 
REMARK    6  A    between atoms: N_12  and  C_13 
ROOT
HETATM    1  C   UNL     1      -6.664   3.166 -31.749  1.00  0.00     0.256 C 
HETATM    2  N   UNL     1      -7.851   2.511 -32.329  1.00  0.00    -0.254 N 
HETATM    3  C   UNL     1      -9.123   3.011 -32.082  1.00  0.00     0.330 C 
HETATM    4  O   UNL     1     -10.150   2.695 -32.686  1.00  0.00    -0.246 OA
HETATM    5  N   UNL     1      -9.268   3.945 -31.107  1.00  0.00    -0.308 N 
HETATM    6  C   UNL     1      -8.258   4.480 -30.331  1.00  0.00     0.048 A 
HETATM    7  C   UNL     1      -6.947   4.132 -30.611  1.00  0.00     0.035 A 
HETATM    8  C   UNL     1      -8.577   5.370 -29.302  1.00  0.00     0.031 A 
HETATM    9  C   UNL     1      -7.562   5.924 -28.524  1.00  0.00     0.021 A 
HETATM   10  C   UNL     1      -6.238   5.599 -28.799  1.00  0.00     0.011 A 
HETATM   11 BR   UNL     1      -4.851   6.345 -27.755  1.00  0.00    -0.051 Br
HETATM   12  C   UNL     1      -5.925   4.722 -29.840  1.00  0.00     0.034 A 
HETATM   13  H   UNL     1     -10.228   4.229 -30.954  1.00  0.00     0.170 HD
ENDROOT
BRANCH   1  14
HETATM   14  C   UNL     1      -5.639   2.079 -31.187  1.00  0.00     0.279 C 
HETATM   15  N   UNL     1      -4.493   1.960 -31.962  1.00  0.00    -0.352 N 
HETATM   16  H   UNL     1      -4.483   2.446 -32.854  1.00  0.00     0.162 HD
HETATM   17  O   UNL     1      -5.805   1.456 -30.140  1.00  0.00    -0.268 OA
BRANCH  15  18
HETATM   18  C   UNL     1      -3.394   1.101 -31.605  1.00  0.00     0.161 C 
BRANCH  18  19
HETATM   19  C   UNL     1      -3.550  -0.289 -32.163  1.00  0.00    -0.040 A 
HETATM   20  C   UNL     1      -4.163  -0.503 -33.404  1.00  0.00     0.011 A 
HETATM   21  C   UNL     1      -4.245  -1.794 -33.935  1.00  0.00     0.037 A 
HETATM   22  C   UNL     1      -3.715  -2.884 -33.242  1.00  0.00     0.068 A 
HETATM   23  C   UNL     1      -3.147  -2.683 -31.985  1.00  0.00     0.037 A 
HETATM   24  C   UNL     1      -3.064  -1.394 -31.451  1.00  0.00     0.011 A 
BRANCH  22  25
HETATM   25  O   UNL     1      -3.824  -4.088 -33.883  1.00  0.00    -0.356 OA
HETATM   26  C   UNL     1      -5.085  -4.358 -34.487  1.00  0.00     0.210 C 
ENDBRANCH  22  25
ENDBRANCH  18  19
ENDBRANCH  15  18
ENDBRANCH   1  14
BRANCH   1  27
HETATM   27  O   UNL     1      -6.090   3.975 -32.780  1.00  0.00    -0.359 OA
HETATM   28  H   UNL     1      -5.775   3.321 -33.429  1.00  0.00     0.213 HD
ENDBRANCH   1  27
BRANCH   2  29
HETATM   29  C   UNL     1      -7.688   1.364 -33.208  1.00  0.00     0.042 A 
HETATM   30  C   UNL     1      -7.913   0.044 -32.780  1.00  0.00     0.030 A 
HETATM   31  C   UNL     1      -7.769  -1.045 -33.651  1.00  0.00     0.002 A 
HETATM   32  C   UNL     1      -7.398  -0.840 -34.973  1.00  0.00     0.000 A 
HETATM   33  C   UNL     1      -7.176   0.452 -35.427  1.00  0.00     0.002 A 
HETATM   34  C   UNL     1      -7.324   1.537 -34.555  1.00  0.00     0.030 A 
ENDBRANCH   2  29
TORSDOF 6
ENDMDL
MODEL 5
REMARK VINA RESULT:      -8.0      3.730      7.271
REMARK  6 active torsions:
REMARK  status: ('A' for Active; 'I' for Inactive)
REMARK    1  A    between atoms: O_2  and  C_3 
REMARK    2  A    between atoms: C_6  and  C_7 
REMARK    3  A    between atoms: C_7  and  N_8 
REMARK       I    between atoms: N_8  and  C_9 
REMARK    4  A    between atoms: C_9  and  C_10 
REMARK    5  A    between atoms: C_10  and  O_11 
REMARK    6  A    between atoms: N_12  and  C_13 
ROOT
HETATM    1  C   UNL     1      -5.790   3.635 -32.231  1.00  0.00     0.256 C 
HETATM    2  N   UNL     1      -5.358   2.279 -32.619  1.00  0.00    -0.254 N 
HETATM    3  C   UNL     1      -4.072   1.841 -32.332  1.00  0.00     0.330 C 
HETATM    4  O   UNL     1      -3.677   0.675 -32.398  1.00  0.00    -0.246 OA
HETATM    5  N   UNL     1      -3.157   2.758 -31.923  1.00  0.00    -0.308 N 
HETATM    6  C   UNL     1      -3.380   4.108 -31.736  1.00  0.00     0.048 A 
HETATM    7  C   UNL     1      -4.670   4.596 -31.871  1.00  0.00     0.035 A 
HETATM    8  C   UNL     1      -2.312   4.944 -31.398  1.00  0.00     0.031 A 
HETATM    9  C   UNL     1      -2.532   6.304 -31.194  1.00  0.00     0.021 A 
HETATM   10  C   UNL     1      -3.823   6.810 -31.310  1.00  0.00     0.011 A 
HETATM   11 BR   UNL     1      -4.138   8.653 -31.034  1.00  0.00    -0.051 Br
HETATM   12  C   UNL     1      -4.888   5.967 -31.632  1.00  0.00     0.034 A 
HETATM   13  H   UNL     1      -2.232   2.373 -31.776  1.00  0.00     0.170 HD
ENDROOT
BRANCH   1  14
HETATM   14  C   UNL     1      -6.622   4.319 -33.409  1.00  0.00     0.279 C 
HETATM   15  N   UNL     1      -7.990   4.344 -33.167  1.00  0.00    -0.352 N 
HETATM   16  H   UNL     1      -8.329   3.815 -32.368  1.00  0.00     0.162 HD
HETATM   17  O   UNL     1      -6.111   4.837 -34.401  1.00  0.00    -0.268 OA
BRANCH  15  18
HETATM   18  C   UNL     1      -8.929   4.982 -34.051  1.00  0.00     0.161 C 
BRANCH  18  19
HETATM   19  C   UNL     1     -10.035   4.053 -34.477  1.00  0.00    -0.040 A 
HETATM   20  C   UNL     1     -10.125   2.755 -33.962  1.00  0.00     0.011 A 
HETATM   21  C   UNL     1     -11.192   1.927 -34.322  1.00  0.00     0.037 A 
HETATM   22  C   UNL     1     -12.183   2.382 -35.193  1.00  0.00     0.068 A 
HETATM   23  C   UNL     1     -12.074   3.656 -35.746  1.00  0.00     0.037 A 
HETATM   24  C   UNL     1     -11.007   4.486 -35.389  1.00  0.00     0.011 A 
BRANCH  22  25
HETATM   25  O   UNL     1     -13.194   1.492 -35.438  1.00  0.00    -0.356 OA
HETATM   26  C   UNL     1     -14.055   1.212 -34.338  1.00  0.00     0.210 C 
ENDBRANCH  22  25
ENDBRANCH  18  19
ENDBRANCH  15  18
ENDBRANCH   1  14
BRANCH   1  27
HETATM   27  O   UNL     1      -6.555   3.501 -31.030  1.00  0.00    -0.359 OA
HETATM   28  H   UNL     1      -5.876   3.478 -30.333  1.00  0.00     0.213 HD
ENDBRANCH   1  27
BRANCH   2  29
HETATM   29  C   UNL     1      -6.300   1.375 -33.261  1.00  0.00     0.042 A 
HETATM   30  C   UNL     1      -7.180   0.558 -32.531  1.00  0.00     0.030 A 
HETATM   31  C   UNL     1      -8.093  -0.291 -33.171  1.00  0.00     0.002 A 
HETATM   32  C   UNL     1      -8.150  -0.341 -34.558  1.00  0.00     0.000 A 
HETATM   33  C   UNL     1      -7.299   0.460 -35.305  1.00  0.00     0.002 A 
HETATM   34  C   UNL     1      -6.390   1.309 -34.662  1.00  0.00     0.030 A 
ENDBRANCH   2  29
TORSDOF 6
ENDMDL
MODEL 6
REMARK VINA RESULT:      -7.9      4.289      7.397
REMARK  6 active torsions:
REMARK  status: ('A' for Active; 'I' for Inactive)
REMARK    1  A    between atoms: O_2  and  C_3 
REMARK    2  A    between atoms: C_6  and  C_7 
REMARK    3  A    between atoms: C_7  and  N_8 
REMARK       I    between atoms: N_8  and  C_9 
REMARK    4  A    between atoms: C_9  and  C_10 
REMARK    5  A    between atoms: C_10  and  O_11 
REMARK    6  A    between atoms: N_12  and  C_13 
ROOT
HETATM    1  C   UNL     1      -5.870   2.416 -31.896  1.00  0.00     0.256 C 
HETATM    2  N   UNL     1      -6.557   3.706 -32.089  1.00  0.00    -0.254 N 
HETATM    3  C   UNL     1      -7.621   3.812 -32.975  1.00  0.00     0.330 C 
HETATM    4  O   UNL     1      -8.405   4.760 -33.048  1.00  0.00    -0.246 OA
HETATM    5  N   UNL     1      -7.846   2.785 -33.834  1.00  0.00    -0.308 N 
HETATM    6  C   UNL     1      -7.127   1.608 -33.907  1.00  0.00     0.048 A 
HETATM    7  C   UNL     1      -6.138   1.371 -32.966  1.00  0.00     0.035 A 
HETATM    8  C   UNL     1      -7.423   0.679 -34.908  1.00  0.00     0.031 A 
HETATM    9  C   UNL     1      -6.711  -0.517 -34.979  1.00  0.00     0.021 A 
HETATM   10  C   UNL     1      -5.725  -0.779 -34.034  1.00  0.00     0.011 A 
HETATM   11 BR   UNL     1      -4.752  -2.398 -34.115  1.00  0.00    -0.051 Br
HETATM   12  C   UNL     1      -5.445   0.145 -33.026  1.00  0.00     0.034 A 
HETATM   13  H   UNL     1      -8.608   2.952 -34.479  1.00  0.00     0.170 HD
ENDROOT
BRANCH   1  14
HETATM   14  C   UNL     1      -4.288   2.623 -31.842  1.00  0.00     0.279 C 
HETATM   15  N   UNL     1      -3.800   3.369 -32.907  1.00  0.00    -0.352 N 
HETATM   16  H   UNL     1      -4.446   3.575 -33.663  1.00  0.00     0.162 HD
HETATM   17  O   UNL     1      -3.574   2.229 -30.921  1.00  0.00    -0.268 OA
BRANCH  15  18
HETATM   18  C   UNL     1      -2.417   3.752 -33.025  1.00  0.00     0.161 C 
BRANCH  18  19
HETATM   19  C   UNL     1      -2.200   5.212 -32.728  1.00  0.00    -0.040 A 
HETATM   20  C   UNL     1      -2.245   6.169 -33.748  1.00  0.00     0.011 A 
HETATM   21  C   UNL     1      -2.102   7.527 -33.446  1.00  0.00     0.037 A 
HETATM   22  C   UNL     1      -1.919   7.947 -32.127  1.00  0.00     0.068 A 
HETATM   23  C   UNL     1      -1.827   6.995 -31.113  1.00  0.00     0.037 A 
HETATM   24  C   UNL     1      -1.968   5.637 -31.412  1.00  0.00     0.011 A 
BRANCH  22  25
HETATM   25  O   UNL     1      -1.831   9.302 -31.957  1.00  0.00    -0.356 OA
HETATM   26  C   UNL     1      -2.501   9.830 -30.817  1.00  0.00     0.210 C 
ENDBRANCH  22  25
ENDBRANCH  18  19
ENDBRANCH  15  18
ENDBRANCH   1  14
BRANCH   1  27
HETATM   27  O   UNL     1      -6.386   1.844 -30.690  1.00  0.00    -0.359 OA
HETATM   28  H   UNL     1      -6.979   2.538 -30.350  1.00  0.00     0.213 HD
ENDBRANCH   1  27
BRANCH   2  29
HETATM   29  C   UNL     1      -6.154   4.865 -31.307  1.00  0.00     0.042 A 
HETATM   30  C   UNL     1      -6.065   4.837 -29.905  1.00  0.00     0.030 A 
HETATM   31  C   UNL     1      -5.654   5.961 -29.173  1.00  0.00     0.002 A 
HETATM   32  C   UNL     1      -5.320   7.139 -29.828  1.00  0.00     0.000 A 
HETATM   33  C   UNL     1      -5.390   7.194 -31.212  1.00  0.00     0.002 A 
HETATM   34  C   UNL     1      -5.798   6.069 -31.939  1.00  0.00     0.030 A 
ENDBRANCH   2  29
TORSDOF 6
ENDMDL
MODEL 7
REMARK VINA RESULT:      -7.9      3.545      6.555
REMARK  6 active torsions:
REMARK  status: ('A' for Active; 'I' for Inactive)
REMARK    1  A    between atoms: O_2  and  C_3 
REMARK    2  A    between atoms: C_6  and  C_7 
REMARK    3  A    between atoms: C_7  and  N_8 
REMARK       I    between atoms: N_8  and  C_9 
REMARK    4  A    between atoms: C_9  and  C_10 
REMARK    5  A    between atoms: C_10  and  O_11 
REMARK    6  A    between atoms: N_12  and  C_13 
ROOT
HETATM    1  C   UNL     1      -7.243   2.550 -32.552  1.00  0.00     0.256 C 
HETATM    2  N   UNL     1      -7.771   1.173 -32.595  1.00  0.00    -0.254 N 
HETATM    3  C   UNL     1      -9.069   0.904 -32.183  1.00  0.00     0.330 C 
HETATM    4  O   UNL     1      -9.686  -0.144 -32.386  1.00  0.00    -0.246 OA
HETATM    5  N   UNL     1      -9.745   1.872 -31.512  1.00  0.00    -0.308 N 
HETATM    6  C   UNL     1      -9.274   3.135 -31.208  1.00  0.00     0.048 A 
HETATM    7  C   UNL     1      -8.041   3.525 -31.704  1.00  0.00     0.035 A 
HETATM    8  C   UNL     1     -10.056   3.993 -30.430  1.00  0.00     0.031 A 
HETATM    9  C   UNL     1      -9.594   5.273 -30.130  1.00  0.00     0.021 A 
HETATM   10  C   UNL     1      -8.365   5.689 -30.632  1.00  0.00     0.011 A 
HETATM   11 BR   UNL     1      -7.727   7.424 -30.237  1.00  0.00    -0.051 Br
HETATM   12  C   UNL     1      -7.597   4.833 -31.423  1.00  0.00     0.034 A 
HETATM   13  H   UNL     1     -10.666   1.588 -31.204  1.00  0.00     0.170 HD
ENDROOT
BRANCH   1  14
HETATM   14  C   UNL     1      -5.750   2.562 -31.987  1.00  0.00     0.279 C 
HETATM   15  N   UNL     1      -4.819   3.002 -32.919  1.00  0.00    -0.352 N 
HETATM   16  H   UNL     1      -5.141   3.126 -33.874  1.00  0.00     0.162 HD
HETATM   17  O   UNL     1      -5.452   2.281 -30.827  1.00  0.00    -0.268 OA
BRANCH  15  18
HETATM   18  C   UNL     1      -3.423   3.173 -32.608  1.00  0.00     0.161 C 
BRANCH  18  19
HETATM   19  C   UNL     1      -3.004   4.618 -32.640  1.00  0.00    -0.040 A 
HETATM   20  C   UNL     1      -3.795   5.612 -32.051  1.00  0.00     0.011 A 
HETATM   21  C   UNL     1      -3.361   6.941 -32.037  1.00  0.00     0.037 A 
HETATM   22  C   UNL     1      -2.135   7.295 -32.602  1.00  0.00     0.068 A 
HETATM   23  C   UNL     1      -1.365   6.319 -33.232  1.00  0.00     0.037 A 
HETATM   24  C   UNL     1      -1.797   4.989 -33.249  1.00  0.00     0.011 A 
BRANCH  22  25
HETATM   25  O   UNL     1      -1.805   8.619 -32.491  1.00  0.00    -0.356 OA
HETATM   26  C   UNL     1      -2.206   9.259 -31.284  1.00  0.00     0.210 C 
ENDBRANCH  22  25
ENDBRANCH  18  19
ENDBRANCH  15  18
ENDBRANCH   1  14
BRANCH   1  27
HETATM   27  O   UNL     1      -7.327   3.070 -33.882  1.00  0.00    -0.359 OA
HETATM   28  H   UNL     1      -8.284   3.191 -34.016  1.00  0.00     0.213 HD
ENDBRANCH   1  27
BRANCH   2  29
HETATM   29  C   UNL     1      -6.945   0.098 -33.122  1.00  0.00     0.042 A 
HETATM   30  C   UNL     1      -6.010  -0.593 -32.333  1.00  0.00     0.030 A 
HETATM   31  C   UNL     1      -5.239  -1.640 -32.857  1.00  0.00     0.002 A 
HETATM   32  C   UNL     1      -5.388  -2.024 -34.184  1.00  0.00     0.000 A 
HETATM   33  C   UNL     1      -6.310  -1.366 -34.985  1.00  0.00     0.002 A 
HETATM   34  C   UNL     1      -7.079  -0.322 -34.457  1.00  0.00     0.030 A 
ENDBRANCH   2  29
TORSDOF 6
ENDMDL
MODEL 8
REMARK VINA RESULT:      -7.8      2.938      7.066
REMARK  6 active torsions:
REMARK  status: ('A' for Active; 'I' for Inactive)
REMARK    1  A    between atoms: O_2  and  C_3 
REMARK    2  A    between atoms: C_6  and  C_7 
REMARK    3  A    between atoms: C_7  and  N_8 
REMARK       I    between atoms: N_8  and  C_9 
REMARK    4  A    between atoms: C_9  and  C_10 
REMARK    5  A    between atoms: C_10  and  O_11 
REMARK    6  A    between atoms: N_12  and  C_13 
ROOT
HETATM    1  C   UNL     1      -9.044   2.662 -31.985  1.00  0.00     0.256 C 
HETATM    2  N   UNL     1      -7.658   2.324 -32.357  1.00  0.00    -0.254 N 
HETATM    3  C   UNL     1      -6.596   3.080 -31.877  1.00  0.00     0.330 C 
HETATM    4  O   UNL     1      -5.406   2.764 -31.929  1.00  0.00    -0.246 OA
HETATM    5  N   UNL     1      -6.871   4.267 -31.276  1.00  0.00    -0.308 N 
HETATM    6  C   UNL     1      -8.126   4.805 -31.067  1.00  0.00     0.048 A 
HETATM    7  C   UNL     1      -9.239   4.049 -31.396  1.00  0.00     0.035 A 
HETATM    8  C   UNL     1      -8.246   6.083 -30.514  1.00  0.00     0.031 A 
HETATM    9  C   UNL     1      -9.508   6.626 -30.288  1.00  0.00     0.021 A 
HETATM   10  C   UNL     1     -10.639   5.877 -30.597  1.00  0.00     0.011 A 
HETATM   11 BR   UNL     1     -12.358   6.599 -30.292  1.00  0.00    -0.051 Br
HETATM   12  C   UNL     1     -10.513   4.594 -31.133  1.00  0.00     0.034 A 
HETATM   13  H   UNL     1      -6.047   4.782 -30.993  1.00  0.00     0.170 HD
ENDROOT
BRANCH   1  14
HETATM   14  C   UNL     1     -10.008   2.561 -33.253  1.00  0.00     0.279 C 
HETATM   15  N   UNL     1     -11.029   1.634 -33.089  1.00  0.00    -0.352 N 
HETATM   16  H   UNL     1     -10.979   1.029 -32.274  1.00  0.00     0.162 HD
HETATM   17  O   UNL     1      -9.908   3.274 -34.250  1.00  0.00    -0.268 OA
BRANCH  15  18
HETATM   18  C   UNL     1     -12.064   1.429 -34.068  1.00  0.00     0.161 C 
BRANCH  18  19
HETATM   19  C   UNL     1     -13.434   1.736 -33.524  1.00  0.00    -0.040 A 
HETATM   20  C   UNL     1     -14.574   1.117 -34.050  1.00  0.00     0.011 A 
HETATM   21  C   UNL     1     -15.832   1.368 -33.493  1.00  0.00     0.037 A 
HETATM   22  C   UNL     1     -15.969   2.232 -32.404  1.00  0.00     0.068 A 
HETATM   23  C   UNL     1     -14.844   2.887 -31.907  1.00  0.00     0.037 A 
HETATM   24  C   UNL     1     -13.585   2.639 -32.463  1.00  0.00     0.011 A 
BRANCH  22  25
HETATM   25  O   UNL     1     -17.244   2.364 -31.926  1.00  0.00    -0.356 OA
HETATM   26  C   UNL     1     -18.156   3.056 -32.772  1.00  0.00     0.210 C 
ENDBRANCH  22  25
ENDBRANCH  18  19
ENDBRANCH  15  18
ENDBRANCH   1  14
BRANCH   1  27
HETATM   27  O   UNL     1      -9.425   1.764 -30.938  1.00  0.00    -0.359 OA
HETATM   28  H   UNL     1     -10.088   2.272 -30.437  1.00  0.00     0.213 HD
ENDBRANCH   1  27
BRANCH   2  29
HETATM   29  C   UNL     1      -7.394   1.162 -33.190  1.00  0.00     0.042 A 
HETATM   30  C   UNL     1      -7.255   1.248 -34.586  1.00  0.00     0.030 A 
HETATM   31  C   UNL     1      -6.981   0.116 -35.367  1.00  0.00     0.002 A 
HETATM   32  C   UNL     1      -6.837  -1.129 -34.769  1.00  0.00     0.000 A 
HETATM   33  C   UNL     1      -6.961  -1.244 -33.392  1.00  0.00     0.002 A 
HETATM   34  C   UNL     1      -7.232  -0.111 -32.615  1.00  0.00     0.030 A 
ENDBRANCH   2  29
TORSDOF 6
ENDMDL
MODEL 9
REMARK VINA RESULT:      -7.6      2.799      4.754
REMARK  6 active torsions:
REMARK  status: ('A' for Active; 'I' for Inactive)
REMARK    1  A    between atoms: O_2  and  C_3 
REMARK    2  A    between atoms: C_6  and  C_7 
REMARK    3  A    between atoms: C_7  and  N_8 
REMARK       I    between atoms: N_8  and  C_9 
REMARK    4  A    between atoms: C_9  and  C_10 
REMARK    5  A    between atoms: C_10  and  O_11 
REMARK    6  A    between atoms: N_12  and  C_13 
ROOT
HETATM    1  C   UNL     1     -10.270   3.036 -33.806  1.00  0.00     0.256 C 
HETATM    2  N   UNL     1     -10.275   1.583 -33.549  1.00  0.00    -0.254 N 
HETATM    3  C   UNL     1     -11.467   0.915 -33.305  1.00  0.00     0.330 C 
HETATM    4  O   UNL     1     -11.621  -0.308 -33.306  1.00  0.00    -0.246 OA
HETATM    5  N   UNL     1     -12.580   1.654 -33.060  1.00  0.00    -0.308 N 
HETATM    6  C   UNL     1     -12.658   3.034 -33.049  1.00  0.00     0.048 A 
HETATM    7  C   UNL     1     -11.543   3.768 -33.417  1.00  0.00     0.035 A 
HETATM    8  C   UNL     1     -13.858   3.654 -32.690  1.00  0.00     0.031 A 
HETATM    9  C   UNL     1     -13.949   5.044 -32.690  1.00  0.00     0.021 A 
HETATM   10  C   UNL     1     -12.844   5.799 -33.071  1.00  0.00     0.011 A 
HETATM   11 BR   UNL     1     -12.953   7.686 -33.079  1.00  0.00    -0.051 Br
HETATM   12  C   UNL     1     -11.654   5.173 -33.445  1.00  0.00     0.034 A 
HETATM   13  H   UNL     1     -13.400   1.100 -32.847  1.00  0.00     0.170 HD
ENDROOT
BRANCH   1  14
HETATM   14  C   UNL     1      -9.073   3.742 -33.022  1.00  0.00     0.279 C 
HETATM   15  N   UNL     1      -8.126   4.306 -33.866  1.00  0.00    -0.352 N 
HETATM   16  H   UNL     1      -8.204   4.095 -34.857  1.00  0.00     0.162 HD
HETATM   17  O   UNL     1      -9.020   3.845 -31.797  1.00  0.00    -0.268 OA
BRANCH  15  18
HETATM   18  C   UNL     1      -7.002   5.065 -33.384  1.00  0.00     0.161 C 
BRANCH  18  19
HETATM   19  C   UNL     1      -5.904   4.184 -32.850  1.00  0.00    -0.040 A 
HETATM   20  C   UNL     1      -5.186   4.542 -31.703  1.00  0.00     0.011 A 
HETATM   21  C   UNL     1      -4.211   3.684 -31.186  1.00  0.00     0.037 A 
HETATM   22  C   UNL     1      -3.944   2.458 -31.800  1.00  0.00     0.068 A 
HETATM   23  C   UNL     1      -4.623   2.117 -32.969  1.00  0.00     0.037 A 
HETATM   24  C   UNL     1      -5.597   2.975 -33.489  1.00  0.00     0.011 A 
BRANCH  22  25
HETATM   25  O   UNL     1      -2.997   1.692 -31.177  1.00  0.00    -0.356 OA
HETATM   26  C   UNL     1      -3.263   0.294 -31.126  1.00  0.00     0.210 C 
ENDBRANCH  22  25
ENDBRANCH  18  19
ENDBRANCH  15  18
ENDBRANCH   1  14
BRANCH   1  27
HETATM   27  O   UNL     1     -10.170   3.207 -35.223  1.00  0.00    -0.359 OA
HETATM   28  H   UNL     1     -10.808   2.560 -35.573  1.00  0.00     0.213 HD
ENDBRANCH   1  27
BRANCH   2  29
HETATM   29  C   UNL     1      -9.029   0.835 -33.602  1.00  0.00     0.042 A 
HETATM   30  C   UNL     1      -8.370   0.381 -32.446  1.00  0.00     0.030 A 
HETATM   31  C   UNL     1      -7.180  -0.356 -32.523  1.00  0.00     0.002 A 
HETATM   32  C   UNL     1      -6.622  -0.660 -33.757  1.00  0.00     0.000 A 
HETATM   33  C   UNL     1      -7.254  -0.233 -34.916  1.00  0.00     0.002 A 
HETATM   34  C   UNL     1      -8.443   0.501 -34.836  1.00  0.00     0.030 A 
ENDBRANCH   2  29
TORSDOF 6
ENDMDL
MODEL 10
REMARK VINA RESULT:      -7.5      3.429      5.108
REMARK  6 active torsions:
REMARK  status: ('A' for Active; 'I' for Inactive)
REMARK    1  A    between atoms: O_2  and  C_3 
REMARK    2  A    between atoms: C_6  and  C_7 
REMARK    3  A    between atoms: C_7  and  N_8 
REMARK       I    between atoms: N_8  and  C_9 
REMARK    4  A    between atoms: C_9  and  C_10 
REMARK    5  A    between atoms: C_10  and  O_11 
REMARK    6  A    between atoms: N_12  and  C_13 
ROOT
HETATM    1  C   UNL     1      -5.426   4.022 -30.483  1.00  0.00     0.256 C 
HETATM    2  N   UNL     1      -4.226   3.454 -31.126  1.00  0.00    -0.254 N 
HETATM    3  C   UNL     1      -3.151   4.270 -31.455  1.00  0.00     0.330 C 
HETATM    4  O   UNL     1      -2.026   3.882 -31.776  1.00  0.00    -0.246 OA
HETATM    5  N   UNL     1      -3.326   5.616 -31.406  1.00  0.00    -0.308 N 
HETATM    6  C   UNL     1      -4.482   6.276 -31.035  1.00  0.00     0.048 A 
HETATM    7  C   UNL     1      -5.552   5.533 -30.563  1.00  0.00     0.035 A 
HETATM    8  C   UNL     1      -4.538   7.669 -31.122  1.00  0.00     0.031 A 
HETATM    9  C   UNL     1      -5.695   8.343 -30.736  1.00  0.00     0.021 A 
HETATM   10  C   UNL     1      -6.775   7.617 -30.246  1.00  0.00     0.011 A 
HETATM   11 BR   UNL     1      -8.350   8.517 -29.715  1.00  0.00    -0.051 Br
HETATM   12  C   UNL     1      -6.706   6.226 -30.145  1.00  0.00     0.034 A 
HETATM   13  H   UNL     1      -2.515   6.144 -31.702  1.00  0.00     0.170 HD
ENDROOT
BRANCH   1  14
HETATM   14  C   UNL     1      -6.752   3.414 -31.131  1.00  0.00     0.279 C 
HETATM   15  N   UNL     1      -6.717   3.386 -32.519  1.00  0.00    -0.352 N 
HETATM   16  H   UNL     1      -5.948   3.871 -32.973  1.00  0.00     0.162 HD
HETATM   17  O   UNL     1      -7.685   2.949 -30.478  1.00  0.00    -0.268 OA
BRANCH  15  18
HETATM   18  C   UNL     1      -7.766   2.808 -33.316  1.00  0.00     0.161 C 
BRANCH  18  19
HETATM   19  C   UNL     1      -7.490   1.370 -33.668  1.00  0.00    -0.040 A 
HETATM   20  C   UNL     1      -7.731   0.344 -32.746  1.00  0.00     0.011 A 
HETATM   21  C   UNL     1      -7.527  -0.991 -33.110  1.00  0.00     0.037 A 
HETATM   22  C   UNL     1      -7.087  -1.320 -34.393  1.00  0.00     0.068 A 
HETATM   23  C   UNL     1      -6.801  -0.300 -35.300  1.00  0.00     0.037 A 
HETATM   24  C   UNL     1      -7.003   1.035 -34.938  1.00  0.00     0.011 A 
BRANCH  22  25
HETATM   25  O   UNL     1      -6.962  -2.660 -34.638  1.00  0.00    -0.356 OA
HETATM   26  C   UNL     1      -5.659  -3.109 -34.995  1.00  0.00     0.210 C 
ENDBRANCH  22  25
ENDBRANCH  18  19
ENDBRANCH  15  18
ENDBRANCH   1  14
BRANCH   1  27
HETATM   27  O   UNL     1      -5.323   3.738 -29.084  1.00  0.00    -0.359 OA
HETATM   28  H   UNL     1      -4.937   2.844 -29.065  1.00  0.00     0.213 HD
ENDBRANCH   1  27
BRANCH   2  29
HETATM   29  C   UNL     1      -4.144   2.023 -31.371  1.00  0.00     0.042 A 
HETATM   30  C   UNL     1      -4.504   1.069 -30.403  1.00  0.00     0.030 A 
HETATM   31  C   UNL     1      -4.436  -0.306 -30.669  1.00  0.00     0.002 A 
HETATM   32  C   UNL     1      -4.009  -0.760 -31.910  1.00  0.00     0.000 A 
HETATM   33  C   UNL     1      -3.656   0.158 -32.887  1.00  0.00     0.002 A 
HETATM   34  C   UNL     1      -3.727   1.530 -32.620  1.00  0.00     0.030 A 
ENDBRANCH   2  29
TORSDOF 6
ENDMDL
