MODEL 1
REMARK VINA RESULT:      -9.2      0.000      0.000
REMARK  6 active torsions:
REMARK  status: ('A' for Active; 'I' for Inactive)
REMARK    1  A    between atoms: C_2  and  O_3 
REMARK    2  A    between atoms: C_2  and  C_4 
REMARK    3  A    between atoms: C_6  and  N_7 
REMARK       I    between atoms: N_7  and  C_8 
REMARK    4  A    between atoms: C_8  and  C_9 
REMARK    5  A    between atoms: C_12  and  C_13 
REMARK    6  A    between atoms: C_18  and  C_19 
ROOT
HETATM    1  C   UNL     1      -5.471   3.148 -32.291  1.00  0.00     0.096 C 
HETATM    2  C   UNL     1      -6.120   1.988 -32.675  1.00  0.00     0.138 C 
HETATM    3  N   UNL     1      -7.466   2.262 -32.595  1.00  0.00    -0.240 N 
HETATM    4  C   UNL     1      -8.515   1.291 -32.851  1.00  0.00     0.221 C 
HETATM    5  C   UNL     1      -7.954   0.073 -33.609  1.00  0.00     0.067 C 
HETATM    6  C   UNL     1      -6.618  -0.372 -32.998  1.00  0.00     0.125 C 
HETATM    7  N   UNL     1      -5.673   0.757 -33.051  1.00  0.00    -0.365 N 
HETATM    8  N   UNL     1      -7.733   3.452 -32.036  1.00  0.00    -0.181 NA
HETATM    9  C   UNL     1      -6.525   4.001 -31.882  1.00  0.00     0.160 C 
HETATM   10  H   UNL     1      -4.748   0.470 -32.720  1.00  0.00     0.162 HD
ENDROOT
BRANCH   1  11
HETATM   11  C   UNL     1      -4.047   3.435 -32.243  1.00  0.00     0.261 C 
HETATM   12  N   UNL     1      -3.765   4.711 -31.795  1.00  0.00    -0.323 N 
HETATM   13  H   UNL     1      -4.557   5.226 -31.427  1.00  0.00     0.169 HD
HETATM   14  O   UNL     1      -3.229   2.579 -32.555  1.00  0.00    -0.267 OA
BRANCH  12  15
HETATM   15  C   UNL     1      -2.514   5.354 -31.738  1.00  0.00     0.035 A 
HETATM   16  C   UNL     1      -1.523   5.041 -30.805  1.00  0.00     0.039 A 
HETATM   17  C   UNL     1      -0.276   5.696 -30.820  1.00  0.00    -0.028 A 
HETATM   18  C   UNL     1      -0.041   6.675 -31.795  1.00  0.00     0.010 A 
HETATM   19  C   UNL     1      -1.026   6.997 -32.726  1.00  0.00     0.003 A 
HETATM   20  C   UNL     1      -2.255   6.337 -32.700  1.00  0.00     0.029 A 
BRANCH  17  21
HETATM   21  C   UNL     1       0.785   5.297 -29.817  1.00  0.00     0.147 C 
HETATM   22  C   UNL     1       0.515   5.911 -28.449  1.00  0.00     0.044 C 
BRANCH  21  23
HETATM   23  O   UNL     1       0.839   3.877 -29.684  1.00  0.00    -0.391 OA
HETATM   24  H   UNL     1       1.779   3.636 -29.627  1.00  0.00     0.210 HD
ENDBRANCH  21  23
ENDBRANCH  17  21
ENDBRANCH  12  15
ENDBRANCH   1  11
BRANCH   4  25
HETATM   25  C   UNL     1      -9.660   1.893 -33.639  1.00  0.00     0.409 C 
HETATM   26  F   UNL     1      -9.233   2.758 -34.586  1.00  0.00    -0.169 F 
HETATM   27  F   UNL     1     -10.329   0.903 -34.292  1.00  0.00    -0.169 F 
HETATM   28  F   UNL     1     -10.576   2.518 -32.872  1.00  0.00    -0.169 F 
ENDBRANCH   4  25
BRANCH   6  29
HETATM   29  C   UNL     1      -6.092  -1.590 -33.719  1.00  0.00     0.005 A 
HETATM   30  S   UNL     1      -4.422  -1.975 -33.653  1.00  0.00    -0.104 SA
HETATM   31  C   UNL     1      -4.635  -3.361 -34.629  1.00  0.00     0.050 A 
HETATM   32  C   UNL     1      -5.949  -3.534 -35.002  1.00  0.00     0.008 A 
HETATM   33  C   UNL     1      -6.790  -2.512 -34.477  1.00  0.00     0.017 A 
ENDBRANCH   6  29
TORSDOF 6
ENDMDL
MODEL 2
REMARK VINA RESULT:      -8.8      1.510      2.028
REMARK  6 active torsions:
REMARK  status: ('A' for Active; 'I' for Inactive)
REMARK    1  A    between atoms: C_2  and  O_3 
REMARK    2  A    between atoms: C_2  and  C_4 
REMARK    3  A    between atoms: C_6  and  N_7 
REMARK       I    between atoms: N_7  and  C_8 
REMARK    4  A    between atoms: C_8  and  C_9 
REMARK    5  A    between atoms: C_12  and  C_13 
REMARK    6  A    between atoms: C_18  and  C_19 
ROOT
HETATM    1  C   UNL     1      -4.631   2.616 -32.407  1.00  0.00     0.096 C 
HETATM    2  C   UNL     1      -4.991   1.319 -32.727  1.00  0.00     0.138 C 
HETATM    3  N   UNL     1      -6.247   1.400 -33.285  1.00  0.00    -0.240 N 
HETATM    4  C   UNL     1      -7.031   0.254 -33.707  1.00  0.00     0.221 C 
HETATM    5  C   UNL     1      -6.139  -0.995 -33.835  1.00  0.00     0.067 C 
HETATM    6  C   UNL     1      -5.188  -1.105 -32.635  1.00  0.00     0.125 C 
HETATM    7  N   UNL     1      -4.369   0.117 -32.566  1.00  0.00    -0.365 N 
HETATM    8  N   UNL     1      -6.786   2.626 -33.201  1.00  0.00    -0.181 NA
HETATM    9  C   UNL     1      -5.794   3.368 -32.699  1.00  0.00     0.160 C 
HETATM   10  H   UNL     1      -3.672   0.044 -31.821  1.00  0.00     0.162 HD
ENDROOT
BRANCH   1  11
HETATM   11  C   UNL     1      -3.388   3.115 -31.844  1.00  0.00     0.261 C 
HETATM   12  N   UNL     1      -3.164   4.450 -32.119  1.00  0.00    -0.323 N 
HETATM   13  H   UNL     1      -3.942   4.941 -32.544  1.00  0.00     0.169 HD
HETATM   14  O   UNL     1      -2.668   2.381 -31.176  1.00  0.00    -0.267 OA
BRANCH  12  15
HETATM   15  C   UNL     1      -2.017   5.215 -31.832  1.00  0.00     0.035 A 
HETATM   16  C   UNL     1      -1.156   4.951 -30.764  1.00  0.00     0.039 A 
HETATM   17  C   UNL     1      -0.004   5.732 -30.549  1.00  0.00    -0.028 A 
HETATM   18  C   UNL     1       0.271   6.786 -31.430  1.00  0.00     0.010 A 
HETATM   19  C   UNL     1      -0.586   7.059 -32.494  1.00  0.00     0.003 A 
HETATM   20  C   UNL     1      -1.722   6.274 -32.696  1.00  0.00     0.029 A 
BRANCH  17  21
HETATM   21  C   UNL     1       0.925   5.385 -29.405  1.00  0.00     0.147 C 
HETATM   22  C   UNL     1       0.427   5.972 -28.089  1.00  0.00     0.044 C 
BRANCH  21  23
HETATM   23  O   UNL     1       1.041   3.970 -29.265  1.00  0.00    -0.391 OA
HETATM   24  H   UNL     1       1.989   3.760 -29.307  1.00  0.00     0.210 HD
ENDBRANCH  21  23
ENDBRANCH  17  21
ENDBRANCH  12  15
ENDBRANCH   1  11
BRANCH   4  25
HETATM   25  C   UNL     1      -7.739   0.507 -35.021  1.00  0.00     0.409 C 
HETATM   26  F   UNL     1      -8.137  -0.638 -35.619  1.00  0.00    -0.169 F 
HETATM   27  F   UNL     1      -8.866   1.236 -34.794  1.00  0.00    -0.169 F 
HETATM   28  F   UNL     1      -7.007   1.216 -35.903  1.00  0.00    -0.169 F 
ENDBRANCH   4  25
BRANCH   6  29
HETATM   29  C   UNL     1      -4.345  -2.351 -32.746  1.00  0.00     0.005 A 
HETATM   30  S   UNL     1      -4.540  -3.406 -34.085  1.00  0.00    -0.104 SA
HETATM   31  C   UNL     1      -3.330  -4.467 -33.510  1.00  0.00     0.050 A 
HETATM   32  C   UNL     1      -2.783  -4.033 -32.323  1.00  0.00     0.008 A 
HETATM   33  C   UNL     1      -3.370  -2.813 -31.882  1.00  0.00     0.017 A 
ENDBRANCH   6  29
TORSDOF 6
ENDMDL
MODEL 3
REMARK VINA RESULT:      -8.8      4.856      8.398
REMARK  6 active torsions:
REMARK  status: ('A' for Active; 'I' for Inactive)
REMARK    1  A    between atoms: C_2  and  O_3 
REMARK    2  A    between atoms: C_2  and  C_4 
REMARK    3  A    between atoms: C_6  and  N_7 
REMARK       I    between atoms: N_7  and  C_8 
REMARK    4  A    between atoms: C_8  and  C_9 
REMARK    5  A    between atoms: C_12  and  C_13 
REMARK    6  A    between atoms: C_18  and  C_19 
ROOT
HETATM    1  C   UNL     1      -7.741   1.407 -32.276  1.00  0.00     0.096 C 
HETATM    2  C   UNL     1      -6.758   0.506 -32.643  1.00  0.00     0.138 C 
HETATM    3  N   UNL     1      -5.568   1.046 -32.212  1.00  0.00    -0.240 N 
HETATM    4  C   UNL     1      -4.265   0.453 -32.451  1.00  0.00     0.221 C 
HETATM    5  C   UNL     1      -4.410  -1.023 -32.867  1.00  0.00     0.067 C 
HETATM    6  C   UNL     1      -5.536  -1.185 -33.897  1.00  0.00     0.125 C 
HETATM    7  N   UNL     1      -6.791  -0.682 -33.310  1.00  0.00    -0.365 N 
HETATM    8  N   UNL     1      -5.693   2.296 -31.741  1.00  0.00    -0.181 NA
HETATM    9  C   UNL     1      -7.014   2.501 -31.750  1.00  0.00     0.160 C 
HETATM   10  H   UNL     1      -7.577  -0.845 -33.944  1.00  0.00     0.162 HD
ENDROOT
BRANCH   1  11
HETATM   11  C   UNL     1      -9.183   1.312 -32.435  1.00  0.00     0.261 C 
HETATM   12  N   UNL     1      -9.782   2.532 -32.686  1.00  0.00    -0.323 N 
HETATM   13  H   UNL     1      -9.145   3.299 -32.868  1.00  0.00     0.169 HD
HETATM   14  O   UNL     1      -9.747   0.227 -32.371  1.00  0.00    -0.267 OA
BRANCH  12  15
HETATM   15  C   UNL     1     -11.158   2.821 -32.774  1.00  0.00     0.035 A 
HETATM   16  C   UNL     1     -12.088   1.985 -33.396  1.00  0.00     0.039 A 
HETATM   17  C   UNL     1     -13.457   2.312 -33.422  1.00  0.00    -0.028 A 
HETATM   18  C   UNL     1     -13.878   3.499 -32.808  1.00  0.00     0.010 A 
HETATM   19  C   UNL     1     -12.956   4.341 -32.190  1.00  0.00     0.003 A 
HETATM   20  C   UNL     1     -11.603   4.002 -32.170  1.00  0.00     0.029 A 
BRANCH  17  21
HETATM   21  C   UNL     1     -14.437   1.357 -34.069  1.00  0.00     0.147 C 
HETATM   22  C   UNL     1     -14.046  -0.094 -33.817  1.00  0.00     0.044 C 
BRANCH  21  23
HETATM   23  O   UNL     1     -15.755   1.574 -33.566  1.00  0.00    -0.391 OA
HETATM   24  H   UNL     1     -16.057   2.424 -33.927  1.00  0.00     0.210 HD
ENDBRANCH  21  23
ENDBRANCH  17  21
ENDBRANCH  12  15
ENDBRANCH   1  11
BRANCH   4  25
HETATM   25  C   UNL     1      -3.369   0.549 -31.234  1.00  0.00     0.409 C 
HETATM   26  F   UNL     1      -2.913   1.806 -31.030  1.00  0.00    -0.169 F 
HETATM   27  F   UNL     1      -4.077   0.210 -30.123  1.00  0.00    -0.169 F 
HETATM   28  F   UNL     1      -2.311  -0.286 -31.271  1.00  0.00    -0.169 F 
ENDBRANCH   4  25
BRANCH   6  29
HETATM   29  C   UNL     1      -5.647  -2.626 -34.330  1.00  0.00     0.005 A 
HETATM   30  S   UNL     1      -4.296  -3.674 -34.189  1.00  0.00    -0.104 SA
HETATM   31  C   UNL     1      -5.171  -4.995 -34.831  1.00  0.00     0.050 A 
HETATM   32  C   UNL     1      -6.466  -4.653 -35.147  1.00  0.00     0.008 A 
HETATM   33  C   UNL     1      -6.741  -3.286 -34.860  1.00  0.00     0.017 A 
ENDBRANCH   6  29
TORSDOF 6
ENDMDL
MODEL 4
REMARK VINA RESULT:      -8.3      5.031      7.266
REMARK  6 active torsions:
REMARK  status: ('A' for Active; 'I' for Inactive)
REMARK    1  A    between atoms: C_2  and  O_3 
REMARK    2  A    between atoms: C_2  and  C_4 
REMARK    3  A    between atoms: C_6  and  N_7 
REMARK       I    between atoms: N_7  and  C_8 
REMARK    4  A    between atoms: C_8  and  C_9 
REMARK    5  A    between atoms: C_12  and  C_13 
REMARK    6  A    between atoms: C_18  and  C_19 
ROOT
HETATM    1  C   UNL     1      -8.388   2.773 -33.473  1.00  0.00     0.096 C 
HETATM    2  C   UNL     1      -9.688   3.244 -33.511  1.00  0.00     0.138 C 
HETATM    3  N   UNL     1      -9.605   4.556 -33.917  1.00  0.00    -0.240 N 
HETATM    4  C   UNL     1     -10.742   5.452 -34.029  1.00  0.00     0.221 C 
HETATM    5  C   UNL     1     -12.060   4.656 -34.040  1.00  0.00     0.067 C 
HETATM    6  C   UNL     1     -12.039   3.561 -32.964  1.00  0.00     0.125 C 
HETATM    7  N   UNL     1     -10.890   2.673 -33.215  1.00  0.00    -0.365 N 
HETATM    8  N   UNL     1      -8.345   5.010 -33.989  1.00  0.00    -0.181 NA
HETATM    9  C   UNL     1      -7.608   3.920 -33.751  1.00  0.00     0.160 C 
HETATM   10  H   UNL     1     -10.890   1.888 -32.559  1.00  0.00     0.162 HD
ENDROOT
BRANCH   1  11
HETATM   11  C   UNL     1      -7.900   1.439 -33.164  1.00  0.00     0.261 C 
HETATM   12  N   UNL     1      -6.685   1.154 -33.757  1.00  0.00    -0.323 N 
HETATM   13  H   UNL     1      -6.226   1.940 -34.204  1.00  0.00     0.169 HD
HETATM   14  O   UNL     1      -8.535   0.700 -32.421  1.00  0.00    -0.267 OA
BRANCH  12  15
HETATM   15  C   UNL     1      -5.989  -0.070 -33.765  1.00  0.00     0.035 A 
HETATM   16  C   UNL     1      -5.027  -0.423 -32.815  1.00  0.00     0.039 A 
HETATM   17  C   UNL     1      -4.390  -1.677 -32.857  1.00  0.00    -0.028 A 
HETATM   18  C   UNL     1      -4.738  -2.577 -33.873  1.00  0.00     0.010 A 
HETATM   19  C   UNL     1      -5.692  -2.231 -34.828  1.00  0.00     0.003 A 
HETATM   20  C   UNL     1      -6.318  -0.985 -34.771  1.00  0.00     0.029 A 
BRANCH  17  21
HETATM   21  C   UNL     1      -3.385  -2.036 -31.783  1.00  0.00     0.147 C 
HETATM   22  C   UNL     1      -2.922  -3.482 -31.917  1.00  0.00     0.044 C 
BRANCH  21  23
HETATM   23  O   UNL     1      -2.246  -1.178 -31.856  1.00  0.00    -0.391 OA
HETATM   24  H   UNL     1      -2.415  -0.436 -31.252  1.00  0.00     0.210 HD
ENDBRANCH  21  23
ENDBRANCH  17  21
ENDBRANCH  12  15
ENDBRANCH   1  11
BRANCH   4  25
HETATM   25  C   UNL     1     -10.661   6.314 -35.271  1.00  0.00     0.409 C 
HETATM   26  F   UNL     1      -9.982   5.710 -36.272  1.00  0.00    -0.169 F 
HETATM   27  F   UNL     1     -11.917   6.548 -35.742  1.00  0.00    -0.169 F 
HETATM   28  F   UNL     1     -10.112   7.526 -35.055  1.00  0.00    -0.169 F 
ENDBRANCH   4  25
BRANCH   6  29
HETATM   29  C   UNL     1     -13.348   2.811 -32.953  1.00  0.00     0.005 A 
HETATM   30  S   UNL     1     -13.681   1.642 -34.163  1.00  0.00    -0.104 SA
HETATM   31  C   UNL     1     -15.213   1.289 -33.495  1.00  0.00     0.050 A 
HETATM   32  C   UNL     1     -15.473   2.042 -32.372  1.00  0.00     0.008 A 
HETATM   33  C   UNL     1     -14.398   2.921 -32.059  1.00  0.00     0.017 A 
ENDBRANCH   6  29
TORSDOF 6
ENDMDL
MODEL 5
REMARK VINA RESULT:      -8.2      4.370      9.155
REMARK  6 active torsions:
REMARK  status: ('A' for Active; 'I' for Inactive)
REMARK    1  A    between atoms: C_2  and  O_3 
REMARK    2  A    between atoms: C_2  and  C_4 
REMARK    3  A    between atoms: C_6  and  N_7 
REMARK       I    between atoms: N_7  and  C_8 
REMARK    4  A    between atoms: C_8  and  C_9 
REMARK    5  A    between atoms: C_12  and  C_13 
REMARK    6  A    between atoms: C_18  and  C_19 
ROOT
HETATM    1  C   UNL     1      -7.456   1.218 -32.201  1.00  0.00     0.096 C 
HETATM    2  C   UNL     1      -6.122   1.575 -32.282  1.00  0.00     0.138 C 
HETATM    3  N   UNL     1      -5.410   0.483 -31.842  1.00  0.00    -0.240 N 
HETATM    4  C   UNL     1      -3.965   0.450 -31.702  1.00  0.00     0.221 C 
HETATM    5  C   UNL     1      -3.318   1.610 -32.483  1.00  0.00     0.067 C 
HETATM    6  C   UNL     1      -4.090   2.915 -32.247  1.00  0.00     0.125 C 
HETATM    7  N   UNL     1      -5.490   2.720 -32.665  1.00  0.00    -0.365 N 
HETATM    8  N   UNL     1      -6.186  -0.486 -31.334  1.00  0.00    -0.181 NA
HETATM    9  C   UNL     1      -7.426  -0.054 -31.581  1.00  0.00     0.160 C 
HETATM   10  H   UNL     1      -6.014   3.595 -32.591  1.00  0.00     0.162 HD
ENDROOT
BRANCH   1  11
HETATM   11  C   UNL     1      -8.636   1.972 -32.590  1.00  0.00     0.261 C 
HETATM   12  N   UNL     1      -9.595   1.196 -33.213  1.00  0.00    -0.323 N 
HETATM   13  H   UNL     1      -9.425   0.197 -33.193  1.00  0.00     0.169 HD
HETATM   14  O   UNL     1      -8.724   3.167 -32.336  1.00  0.00    -0.267 OA
BRANCH  12  15
HETATM   15  C   UNL     1     -10.795   1.618 -33.817  1.00  0.00     0.035 A 
HETATM   16  C   UNL     1     -12.047   1.073 -33.520  1.00  0.00     0.039 A 
HETATM   17  C   UNL     1     -13.216   1.561 -34.133  1.00  0.00    -0.028 A 
HETATM   18  C   UNL     1     -13.108   2.614 -35.051  1.00  0.00     0.010 A 
HETATM   19  C   UNL     1     -11.863   3.160 -35.356  1.00  0.00     0.003 A 
HETATM   20  C   UNL     1     -10.713   2.667 -34.739  1.00  0.00     0.029 A 
BRANCH  17  21
HETATM   21  C   UNL     1     -14.557   0.970 -33.751  1.00  0.00     0.147 C 
HETATM   22  C   UNL     1     -15.262   1.825 -32.704  1.00  0.00     0.044 C 
BRANCH  21  23
HETATM   23  O   UNL     1     -15.399   0.856 -34.898  1.00  0.00    -0.391 OA
HETATM   24  H   UNL     1     -15.748   1.745 -35.079  1.00  0.00     0.210 HD
ENDBRANCH  21  23
ENDBRANCH  17  21
ENDBRANCH  12  15
ENDBRANCH   1  11
BRANCH   4  25
HETATM   25  C   UNL     1      -3.382  -0.865 -32.175  1.00  0.00     0.409 C 
HETATM   26  F   UNL     1      -3.768  -1.175 -33.433  1.00  0.00    -0.169 F 
HETATM   27  F   UNL     1      -2.024  -0.776 -32.199  1.00  0.00    -0.169 F 
HETATM   28  F   UNL     1      -3.673  -1.907 -31.372  1.00  0.00    -0.169 F 
ENDBRANCH   4  25
BRANCH   6  29
HETATM   29  C   UNL     1      -3.429   4.055 -32.982  1.00  0.00     0.005 A 
HETATM   30  S   UNL     1      -4.365   5.104 -33.964  1.00  0.00    -0.104 SA
HETATM   31  C   UNL     1      -2.996   6.032 -34.394  1.00  0.00     0.050 A 
HETATM   32  C   UNL     1      -1.845   5.559 -33.805  1.00  0.00     0.008 A 
HETATM   33  C   UNL     1      -2.095   4.418 -32.990  1.00  0.00     0.017 A 
ENDBRANCH   6  29
TORSDOF 6
ENDMDL
MODEL 6
REMARK VINA RESULT:      -8.2      2.738      4.223
REMARK  6 active torsions:
REMARK  status: ('A' for Active; 'I' for Inactive)
REMARK    1  A    between atoms: C_2  and  O_3 
REMARK    2  A    between atoms: C_2  and  C_4 
REMARK    3  A    between atoms: C_6  and  N_7 
REMARK       I    between atoms: N_7  and  C_8 
REMARK    4  A    between atoms: C_8  and  C_9 
REMARK    5  A    between atoms: C_12  and  C_13 
REMARK    6  A    between atoms: C_18  and  C_19 
ROOT
HETATM    1  C   UNL     1      -4.303   0.958 -32.529  1.00  0.00     0.096 C 
HETATM    2  C   UNL     1      -5.494   0.611 -33.140  1.00  0.00     0.138 C 
HETATM    3  N   UNL     1      -5.247  -0.563 -33.815  1.00  0.00    -0.240 N 
HETATM    4  C   UNL     1      -6.217  -1.247 -34.651  1.00  0.00     0.221 C 
HETATM    5  C   UNL     1      -7.640  -0.735 -34.359  1.00  0.00     0.067 C 
HETATM    6  C   UNL     1      -7.652   0.796 -34.252  1.00  0.00     0.125 C 
HETATM    7  N   UNL     1      -6.721   1.204 -33.185  1.00  0.00    -0.365 N 
HETATM    8  N   UNL     1      -3.951  -0.910 -33.817  1.00  0.00    -0.181 NA
HETATM    9  C   UNL     1      -3.386  -0.007 -33.012  1.00  0.00     0.160 C 
HETATM   10  H   UNL     1      -6.761   2.215 -33.037  1.00  0.00     0.162 HD
ENDROOT
BRANCH   1  11
HETATM   11  C   UNL     1      -4.011   2.076 -31.648  1.00  0.00     0.261 C 
HETATM   12  N   UNL     1      -3.254   3.061 -32.253  1.00  0.00    -0.323 N 
HETATM   13  H   UNL     1      -3.121   2.954 -33.252  1.00  0.00     0.169 HD
HETATM   14  O   UNL     1      -4.446   2.097 -30.503  1.00  0.00    -0.267 OA
BRANCH  12  15
HETATM   15  C   UNL     1      -2.697   4.212 -31.663  1.00  0.00     0.035 A 
HETATM   16  C   UNL     1      -1.430   4.249 -31.076  1.00  0.00     0.039 A 
HETATM   17  C   UNL     1      -0.914   5.441 -30.534  1.00  0.00    -0.028 A 
HETATM   18  C   UNL     1      -1.695   6.603 -30.593  1.00  0.00     0.010 A 
HETATM   19  C   UNL     1      -2.962   6.574 -31.172  1.00  0.00     0.003 A 
HETATM   20  C   UNL     1      -3.459   5.385 -31.708  1.00  0.00     0.029 A 
BRANCH  17  21
HETATM   21  C   UNL     1       0.481   5.446 -29.946  1.00  0.00     0.147 C 
HETATM   22  C   UNL     1       0.570   6.374 -28.739  1.00  0.00     0.044 C 
BRANCH  21  23
HETATM   23  O   UNL     1       0.861   4.130 -29.546  1.00  0.00    -0.391 OA
HETATM   24  H   UNL     1       0.520   4.001 -28.645  1.00  0.00     0.210 HD
ENDBRANCH  21  23
ENDBRANCH  17  21
ENDBRANCH  12  15
ENDBRANCH   1  11
BRANCH   4  25
HETATM   25  C   UNL     1      -6.170  -2.747 -34.458  1.00  0.00     0.409 C 
HETATM   26  F   UNL     1      -7.387  -3.269 -34.182  1.00  0.00    -0.169 F 
HETATM   27  F   UNL     1      -5.749  -3.339 -35.610  1.00  0.00    -0.169 F 
HETATM   28  F   UNL     1      -5.310  -3.144 -33.500  1.00  0.00    -0.169 F 
ENDBRANCH   4  25
BRANCH   6  29
HETATM   29  C   UNL     1      -9.054   1.295 -34.006  1.00  0.00     0.005 A 
HETATM   30  S   UNL     1      -9.437   2.948 -34.256  1.00  0.00    -0.104 SA
HETATM   31  C   UNL     1     -11.067   2.708 -33.801  1.00  0.00     0.050 A 
HETATM   32  C   UNL     1     -11.322   1.398 -33.464  1.00  0.00     0.008 A 
HETATM   33  C   UNL     1     -10.161   0.582 -33.582  1.00  0.00     0.017 A 
ENDBRANCH   6  29
TORSDOF 6
ENDMDL
MODEL 7
REMARK VINA RESULT:      -8.2      4.563      8.284
REMARK  6 active torsions:
REMARK  status: ('A' for Active; 'I' for Inactive)
REMARK    1  A    between atoms: C_2  and  O_3 
REMARK    2  A    between atoms: C_2  and  C_4 
REMARK    3  A    between atoms: C_6  and  N_7 
REMARK       I    between atoms: N_7  and  C_8 
REMARK    4  A    between atoms: C_8  and  C_9 
REMARK    5  A    between atoms: C_12  and  C_13 
REMARK    6  A    between atoms: C_18  and  C_19 
ROOT
HETATM    1  C   UNL     1      -7.459   2.477 -33.230  1.00  0.00     0.096 C 
HETATM    2  C   UNL     1      -6.610   1.385 -33.268  1.00  0.00     0.138 C 
HETATM    3  N   UNL     1      -5.458   1.777 -32.627  1.00  0.00    -0.240 N 
HETATM    4  C   UNL     1      -4.271   0.951 -32.496  1.00  0.00     0.221 C 
HETATM    5  C   UNL     1      -4.604  -0.524 -32.789  1.00  0.00     0.067 C 
HETATM    6  C   UNL     1      -5.496  -0.640 -34.032  1.00  0.00     0.125 C 
HETATM    7  N   UNL     1      -6.727   0.138 -33.806  1.00  0.00    -0.365 N 
HETATM    8  N   UNL     1      -5.439   3.084 -32.322  1.00  0.00    -0.181 NA
HETATM    9  C   UNL     1      -6.664   3.499 -32.658  1.00  0.00     0.160 C 
HETATM   10  H   UNL     1      -7.378   0.020 -34.586  1.00  0.00     0.162 HD
ENDROOT
BRANCH   1  11
HETATM   11  C   UNL     1      -8.825   2.599 -33.710  1.00  0.00     0.261 C 
HETATM   12  N   UNL     1      -9.763   2.156 -32.799  1.00  0.00    -0.323 N 
HETATM   13  H   UNL     1      -9.403   1.941 -31.876  1.00  0.00     0.169 HD
HETATM   14  O   UNL     1      -9.056   3.082 -34.812  1.00  0.00    -0.267 OA
BRANCH  12  15
HETATM   15  C   UNL     1     -11.153   2.022 -32.979  1.00  0.00     0.035 A 
HETATM   16  C   UNL     1     -12.086   2.974 -32.560  1.00  0.00     0.039 A 
HETATM   17  C   UNL     1     -13.462   2.800 -32.800  1.00  0.00    -0.028 A 
HETATM   18  C   UNL     1     -13.888   1.647 -33.474  1.00  0.00     0.010 A 
HETATM   19  C   UNL     1     -12.965   0.690 -33.892  1.00  0.00     0.003 A 
HETATM   20  C   UNL     1     -11.604   0.879 -33.648  1.00  0.00     0.029 A 
BRANCH  17  21
HETATM   21  C   UNL     1     -14.434   3.876 -32.367  1.00  0.00     0.147 C 
HETATM   22  C   UNL     1     -14.083   5.223 -32.987  1.00  0.00     0.044 C 
BRANCH  21  23
HETATM   23  O   UNL     1     -15.766   3.528 -32.742  1.00  0.00    -0.391 OA
HETATM   24  H   UNL     1     -16.347   3.821 -32.020  1.00  0.00     0.210 HD
ENDBRANCH  21  23
ENDBRANCH  17  21
ENDBRANCH  12  15
ENDBRANCH   1  11
BRANCH   4  25
HETATM   25  C   UNL     1      -3.651   1.066 -31.120  1.00  0.00     0.409 C 
HETATM   26  F   UNL     1      -2.827   0.032 -30.839  1.00  0.00    -0.169 F 
HETATM   27  F   UNL     1      -2.891   2.194 -31.059  1.00  0.00    -0.169 F 
HETATM   28  F   UNL     1      -4.555   1.173 -30.125  1.00  0.00    -0.169 F 
ENDBRANCH   4  25
BRANCH   6  29
HETATM   29  C   UNL     1      -5.786  -2.089 -34.337  1.00  0.00     0.005 A 
HETATM   30  S   UNL     1      -4.503  -3.225 -34.419  1.00  0.00    -0.104 SA
HETATM   31  C   UNL     1      -5.574  -4.509 -34.771  1.00  0.00     0.050 A 
HETATM   32  C   UNL     1      -6.884  -4.089 -34.826  1.00  0.00     0.008 A 
HETATM   33  C   UNL     1      -7.007  -2.693 -34.576  1.00  0.00     0.017 A 
ENDBRANCH   6  29
TORSDOF 6
ENDMDL
MODEL 8
REMARK VINA RESULT:      -8.2      4.536      9.020
REMARK  6 active torsions:
REMARK  status: ('A' for Active; 'I' for Inactive)
REMARK    1  A    between atoms: C_2  and  O_3 
REMARK    2  A    between atoms: C_2  and  C_4 
REMARK    3  A    between atoms: C_6  and  N_7 
REMARK       I    between atoms: N_7  and  C_8 
REMARK    4  A    between atoms: C_8  and  C_9 
REMARK    5  A    between atoms: C_12  and  C_13 
REMARK    6  A    between atoms: C_18  and  C_19 
ROOT
HETATM    1  C   UNL     1      -9.151   3.660 -33.301  1.00  0.00     0.096 C 
HETATM    2  C   UNL     1      -8.014   2.873 -33.250  1.00  0.00     0.138 C 
HETATM    3  N   UNL     1      -7.063   3.622 -32.595  1.00  0.00    -0.240 N 
HETATM    4  C   UNL     1      -5.691   3.196 -32.380  1.00  0.00     0.221 C 
HETATM    5  C   UNL     1      -5.555   1.678 -32.598  1.00  0.00     0.067 C 
HETATM    6  C   UNL     1      -6.312   1.243 -33.860  1.00  0.00     0.125 C 
HETATM    7  N   UNL     1      -7.728   1.625 -33.718  1.00  0.00    -0.365 N 
HETATM    8  N   UNL     1      -7.450   4.886 -32.366  1.00  0.00    -0.181 NA
HETATM    9  C   UNL     1      -8.725   4.898 -32.764  1.00  0.00     0.160 C 
HETATM   10  H   UNL     1      -8.276   1.282 -34.510  1.00  0.00     0.162 HD
ENDROOT
BRANCH   1  11
HETATM   11  C   UNL     1     -10.467   3.344 -33.831  1.00  0.00     0.261 C 
HETATM   12  N   UNL     1     -11.227   2.571 -32.974  1.00  0.00    -0.323 N 
HETATM   13  H   UNL     1     -10.839   2.445 -32.046  1.00  0.00     0.169 HD
HETATM   14  O   UNL     1     -10.818   3.775 -34.923  1.00  0.00    -0.267 OA
BRANCH  12  15
HETATM   15  C   UNL     1     -12.487   1.992 -33.215  1.00  0.00     0.035 A 
HETATM   16  C   UNL     1     -13.678   2.468 -32.661  1.00  0.00     0.039 A 
HETATM   17  C   UNL     1     -14.914   1.866 -32.968  1.00  0.00    -0.028 A 
HETATM   18  C   UNL     1     -14.933   0.774 -33.846  1.00  0.00     0.010 A 
HETATM   19  C   UNL     1     -13.749   0.291 -34.399  1.00  0.00     0.003 A 
HETATM   20  C   UNL     1     -12.532   0.899 -34.088  1.00  0.00     0.029 A 
BRANCH  17  21
HETATM   21  C   UNL     1     -16.185   2.439 -32.380  1.00  0.00     0.147 C 
HETATM   22  C   UNL     1     -16.024   3.917 -32.044  1.00  0.00     0.044 C 
BRANCH  21  23
HETATM   23  O   UNL     1     -17.272   2.290 -33.293  1.00  0.00    -0.391 OA
HETATM   24  H   UNL     1     -16.925   1.816 -34.067  1.00  0.00     0.210 HD
ENDBRANCH  21  23
ENDBRANCH  17  21
ENDBRANCH  12  15
ENDBRANCH   1  11
BRANCH   4  25
HETATM   25  C   UNL     1      -5.201   3.555 -30.994  1.00  0.00     0.409 C 
HETATM   26  F   UNL     1      -4.843   4.855 -30.895  1.00  0.00    -0.169 F 
HETATM   27  F   UNL     1      -6.204   3.362 -30.094  1.00  0.00    -0.169 F 
HETATM   28  F   UNL     1      -4.170   2.797 -30.570  1.00  0.00    -0.169 F 
ENDBRANCH   4  25
BRANCH   6  29
HETATM   29  C   UNL     1      -6.141  -0.238 -34.090  1.00  0.00     0.005 A 
HETATM   30  S   UNL     1      -4.685  -1.019 -33.629  1.00  0.00    -0.104 SA
HETATM   31  C   UNL     1      -5.248  -2.537 -34.177  1.00  0.00     0.050 A 
HETATM   32  C   UNL     1      -6.519  -2.459 -34.700  1.00  0.00     0.008 A 
HETATM   33  C   UNL     1      -7.034  -1.133 -34.651  1.00  0.00     0.017 A 
ENDBRANCH   6  29
TORSDOF 6
ENDMDL
MODEL 9
REMARK VINA RESULT:      -8.2      2.184      2.702
REMARK  6 active torsions:
REMARK  status: ('A' for Active; 'I' for Inactive)
REMARK    1  A    between atoms: C_2  and  O_3 
REMARK    2  A    between atoms: C_2  and  C_4 
REMARK    3  A    between atoms: C_6  and  N_7 
REMARK       I    between atoms: N_7  and  C_8 
REMARK    4  A    between atoms: C_8  and  C_9 
REMARK    5  A    between atoms: C_12  and  C_13 
REMARK    6  A    between atoms: C_18  and  C_19 
ROOT
HETATM    1  C   UNL     1      -7.386   3.147 -31.057  1.00  0.00     0.096 C 
HETATM    2  C   UNL     1      -7.630   1.978 -31.755  1.00  0.00     0.138 C 
HETATM    3  N   UNL     1      -8.996   1.904 -31.906  1.00  0.00    -0.240 N 
HETATM    4  C   UNL     1      -9.692   0.793 -32.530  1.00  0.00     0.221 C 
HETATM    5  C   UNL     1      -8.713  -0.066 -33.352  1.00  0.00     0.067 C 
HETATM    6  C   UNL     1      -7.416  -0.307 -32.567  1.00  0.00     0.125 C 
HETATM    7  N   UNL     1      -6.815   0.997 -32.235  1.00  0.00    -0.365 N 
HETATM    8  N   UNL     1      -9.657   2.850 -31.221  1.00  0.00    -0.181 NA
HETATM    9  C   UNL     1      -8.680   3.621 -30.734  1.00  0.00     0.160 C 
HETATM   10  H   UNL     1      -5.909   0.871 -31.777  1.00  0.00     0.162 HD
ENDROOT
BRANCH   1  11
HETATM   11  C   UNL     1      -6.117   3.744 -30.674  1.00  0.00     0.261 C 
HETATM   12  N   UNL     1      -5.751   4.806 -31.478  1.00  0.00    -0.323 N 
HETATM   13  H   UNL     1      -6.462   5.123 -32.128  1.00  0.00     0.169 HD
HETATM   14  O   UNL     1      -5.497   3.319 -29.707  1.00  0.00    -0.267 OA
BRANCH  12  15
HETATM   15  C   UNL     1      -4.543   5.529 -31.464  1.00  0.00     0.035 A 
HETATM   16  C   UNL     1      -3.655   5.577 -32.542  1.00  0.00     0.039 A 
HETATM   17  C   UNL     1      -2.478   6.347 -32.481  1.00  0.00    -0.028 A 
HETATM   18  C   UNL     1      -2.207   7.074 -31.313  1.00  0.00     0.010 A 
HETATM   19  C   UNL     1      -3.085   7.027 -30.232  1.00  0.00     0.003 A 
HETATM   20  C   UNL     1      -4.250   6.261 -30.309  1.00  0.00     0.029 A 
BRANCH  17  21
HETATM   21  C   UNL     1      -1.565   6.405 -33.687  1.00  0.00     0.147 C 
HETATM   22  C   UNL     1      -1.893   5.301 -34.685  1.00  0.00     0.044 C 
BRANCH  21  23
HETATM   23  O   UNL     1      -1.679   7.668 -34.342  1.00  0.00    -0.391 OA
HETATM   24  H   UNL     1      -0.775   7.973 -34.523  1.00  0.00     0.210 HD
ENDBRANCH  21  23
ENDBRANCH  17  21
ENDBRANCH  12  15
ENDBRANCH   1  11
BRANCH   4  25
HETATM   25  C   UNL     1     -10.822   1.264 -33.421  1.00  0.00     0.409 C 
HETATM   26  F   UNL     1     -10.408   1.526 -34.681  1.00  0.00    -0.169 F 
HETATM   27  F   UNL     1     -11.760   0.283 -33.518  1.00  0.00    -0.169 F 
HETATM   28  F   UNL     1     -11.467   2.350 -32.950  1.00  0.00    -0.169 F 
ENDBRANCH   4  25
BRANCH   6  29
HETATM   29  C   UNL     1      -6.478  -1.182 -33.360  1.00  0.00     0.005 A 
HETATM   30  S   UNL     1      -4.801  -1.198 -32.997  1.00  0.00    -0.104 SA
HETATM   31  C   UNL     1      -4.477  -2.336 -34.229  1.00  0.00     0.050 A 
HETATM   32  C   UNL     1      -5.618  -2.702 -34.908  1.00  0.00     0.008 A 
HETATM   33  C   UNL     1      -6.772  -2.036 -34.407  1.00  0.00     0.017 A 
ENDBRANCH   6  29
TORSDOF 6
ENDMDL
MODEL 10
REMARK VINA RESULT:      -8.1      3.284      7.824
REMARK  6 active torsions:
REMARK  status: ('A' for Active; 'I' for Inactive)
REMARK    1  A    between atoms: C_2  and  O_3 
REMARK    2  A    between atoms: C_2  and  C_4 
REMARK    3  A    between atoms: C_6  and  N_7 
REMARK       I    between atoms: N_7  and  C_8 
REMARK    4  A    between atoms: C_8  and  C_9 
REMARK    5  A    between atoms: C_12  and  C_13 
REMARK    6  A    between atoms: C_18  and  C_19 
ROOT
HETATM    1  C   UNL     1      -6.171   2.033 -32.258  1.00  0.00     0.096 C 
HETATM    2  C   UNL     1      -5.767   3.356 -32.257  1.00  0.00     0.138 C 
HETATM    3  N   UNL     1      -6.754   4.054 -31.601  1.00  0.00    -0.240 N 
HETATM    4  C   UNL     1      -6.762   5.497 -31.430  1.00  0.00     0.221 C 
HETATM    5  C   UNL     1      -5.363   6.081 -31.700  1.00  0.00     0.067 C 
HETATM    6  C   UNL     1      -4.749   5.453 -32.958  1.00  0.00     0.125 C 
HETATM    7  N   UNL     1      -4.677   3.993 -32.772  1.00  0.00    -0.365 N 
HETATM    8  N   UNL     1      -7.834   3.310 -31.322  1.00  0.00    -0.181 NA
HETATM    9  C   UNL     1      -7.467   2.079 -31.691  1.00  0.00     0.160 C 
HETATM   10  H   UNL     1      -4.203   3.551 -33.563  1.00  0.00     0.162 HD
ENDROOT
BRANCH   1  11
HETATM   11  C   UNL     1      -5.483   0.860 -32.769  1.00  0.00     0.261 C 
HETATM   12  N   UNL     1      -6.339  -0.079 -33.311  1.00  0.00    -0.323 N 
HETATM   13  H   UNL     1      -7.302   0.221 -33.415  1.00  0.00     0.169 HD
HETATM   14  O   UNL     1      -4.261   0.784 -32.720  1.00  0.00    -0.267 OA
BRANCH  12  15
HETATM   15  C   UNL     1      -6.027  -1.369 -33.783  1.00  0.00     0.035 A 
HETATM   16  C   UNL     1      -4.876  -2.072 -33.417  1.00  0.00     0.039 A 
HETATM   17  C   UNL     1      -4.637  -3.374 -33.896  1.00  0.00    -0.028 A 
HETATM   18  C   UNL     1      -5.577  -3.961 -34.752  1.00  0.00     0.010 A 
HETATM   19  C   UNL     1      -6.725  -3.265 -35.126  1.00  0.00     0.003 A 
HETATM   20  C   UNL     1      -6.950  -1.976 -34.641  1.00  0.00     0.029 A 
BRANCH  17  21
HETATM   21  C   UNL     1      -3.399  -4.116 -33.440  1.00  0.00     0.147 C 
HETATM   22  C   UNL     1      -3.061  -3.794 -31.989  1.00  0.00     0.044 C 
BRANCH  21  23
HETATM   23  O   UNL     1      -3.584  -5.526 -33.569  1.00  0.00    -0.391 OA
HETATM   24  H   UNL     1      -4.006  -5.676 -34.431  1.00  0.00     0.210 HD
ENDBRANCH  21  23
ENDBRANCH  17  21
ENDBRANCH  12  15
ENDBRANCH   1  11
BRANCH   4  25
HETATM   25  C   UNL     1      -7.219   5.898 -30.044  1.00  0.00     0.409 C 
HETATM   26  F   UNL     1      -6.763   5.057 -29.088  1.00  0.00    -0.169 F 
HETATM   27  F   UNL     1      -6.724   7.130 -29.743  1.00  0.00    -0.169 F 
HETATM   28  F   UNL     1      -8.558   5.995 -29.921  1.00  0.00    -0.169 F 
ENDBRANCH   4  25
BRANCH   6  29
HETATM   29  C   UNL     1      -3.395   6.059 -33.240  1.00  0.00     0.005 A 
HETATM   30  S   UNL     1      -2.436   5.460 -34.529  1.00  0.00    -0.104 SA
HETATM   31  C   UNL     1      -1.184   6.576 -34.204  1.00  0.00     0.050 A 
HETATM   32  C   UNL     1      -1.484   7.393 -33.136  1.00  0.00     0.008 A 
HETATM   33  C   UNL     1      -2.759   7.094 -32.579  1.00  0.00     0.017 A 
ENDBRANCH   6  29
TORSDOF 6
ENDMDL
