MODEL 1
REMARK VINA RESULT:      -9.3      0.000      0.000
REMARK  5 active torsions:
REMARK  status: ('A' for Active; 'I' for Inactive)
REMARK    1  A    between atoms: C_3  and  C_4 
REMARK    2  A    between atoms: N_7  and  C_9 
REMARK    3  A    between atoms: C_9  and  C_10 
REMARK    4  A    between atoms: C_21  and  C_22 
REMARK    5  A    between atoms: C_22  and  N_23 
ROOT
HETATM    1  C   UNL     1      -5.718   3.418 -30.005  1.00  0.00     0.159 C 
HETATM    2  N   UNL     1      -6.059   3.330 -31.415  1.00  0.00    -0.323 N 
HETATM    3  C   UNL     1      -7.751   3.537 -32.149  1.00  0.00     0.134 A 
HETATM    4  N   UNL     1      -7.582   3.585 -33.813  1.00  0.00    -0.134 NA
HETATM    5  N   UNL     1      -5.664   3.456 -34.106  1.00  0.00    -0.133 NA
HETATM    6  C   UNL     1      -4.847   3.312 -32.723  1.00  0.00     0.155 A 
ENDROOT
BRANCH   3   7
HETATM    7  C   UNL     1      -8.778   3.981 -31.342  1.00  0.00     0.060 C 
HETATM    8  C   UNL     1      -7.827   5.185 -31.737  1.00  0.00     0.040 C 
HETATM    9  C   UNL     1      -6.485   4.584 -32.915  1.00  0.00     0.236 C 
HETATM   10  N   UNL     1      -6.605   2.315 -32.929  1.00  0.00    -0.067 N 
HETATM   11  H   UNL     1      -5.789   1.766 -32.679  1.00  0.00     0.280 HD
HETATM   12  C   UNL     1      -7.867   1.436 -31.843  1.00  0.00     0.236 C 
HETATM   13  C   UNL     1      -8.638   2.497 -30.807  1.00  0.00     0.040 C 
BRANCH  10  14
HETATM   14  C   UNL     1      -6.886   1.412 -34.403  1.00  0.00     0.273 C 
BRANCH  14  15
HETATM   15  C   UNL     1      -6.306   0.011 -34.314  1.00  0.00    -0.030 A 
HETATM   16  C   UNL     1      -7.000  -1.127 -34.749  1.00  0.00     0.051 A 
HETATM   17  C   UNL     1      -6.420  -2.390 -34.649  1.00  0.00     0.117 A 
HETATM   18  F   UNL     1      -7.096  -3.447 -35.116  1.00  0.00    -0.206 F 
HETATM   19  C   UNL     1      -5.168  -2.562 -34.081  1.00  0.00     0.042 A 
HETATM   20  C   UNL     1      -4.487  -1.449 -33.595  1.00  0.00     0.004 A 
HETATM   21  C   UNL     1      -5.050  -0.174 -33.710  1.00  0.00     0.009 A 
ENDBRANCH  14  15
ENDBRANCH  10  14
ENDBRANCH   3   7
BRANCH   6  22
HETATM   22  C   UNL     1      -3.377   3.065 -32.534  1.00  0.00     0.315 C 
BRANCH  22  23
HETATM   23  N   UNL     1      -2.412   4.260 -32.577  1.00  0.00    -0.064 N 
HETATM   24  H   UNL     1      -1.484   3.914 -32.304  1.00  0.00     0.280 HD
HETATM   25  C   UNL     1      -2.304   4.715 -34.030  1.00  0.00     0.235 C 
HETATM   26  C   UNL     1      -1.282   5.817 -34.269  1.00  0.00     0.028 C 
HETATM   27  C   UNL     1      -1.766   7.187 -33.807  1.00  0.00     0.002 C 
HETATM   28  C   UNL     1      -1.482   7.493 -32.344  1.00  0.00     0.002 C 
HETATM   29  C   UNL     1      -1.564   6.310 -31.391  1.00  0.00     0.028 C 
HETATM   30  C   UNL     1      -2.756   5.386 -31.611  1.00  0.00     0.235 C 
ENDBRANCH  22  23
ENDBRANCH   6  22
TORSDOF 5
ENDMDL
MODEL 2
REMARK VINA RESULT:      -9.3      3.053      6.578
REMARK  5 active torsions:
REMARK  status: ('A' for Active; 'I' for Inactive)
REMARK    1  A    between atoms: C_3  and  C_4 
REMARK    2  A    between atoms: N_7  and  C_9 
REMARK    3  A    between atoms: C_9  and  C_10 
REMARK    4  A    between atoms: C_21  and  C_22 
REMARK    5  A    between atoms: C_22  and  N_23 
ROOT
HETATM    1  C   UNL     1      -6.639  -0.125 -30.691  1.00  0.00     0.159 C 
HETATM    2  N   UNL     1      -6.814   0.791 -31.805  1.00  0.00    -0.323 N 
HETATM    3  C   UNL     1      -6.413   2.604 -31.807  1.00  0.00     0.134 A 
HETATM    4  N   UNL     1      -6.563   3.156 -33.380  1.00  0.00    -0.134 NA
HETATM    5  N   UNL     1      -7.029   1.570 -34.404  1.00  0.00    -0.133 NA
HETATM    6  C   UNL     1      -7.160   0.261 -33.472  1.00  0.00     0.155 A 
ENDROOT
BRANCH   3   7
HETATM    7  C   UNL     1      -5.730   3.137 -30.734  1.00  0.00     0.060 C 
HETATM    8  C   UNL     1      -4.738   2.343 -31.680  1.00  0.00     0.040 C 
HETATM    9  C   UNL     1      -5.665   1.701 -33.190  1.00  0.00     0.236 C 
HETATM   10  N   UNL     1      -7.876   2.023 -32.776  1.00  0.00    -0.067 N 
HETATM   11  H   UNL     1      -8.512   1.233 -32.798  1.00  0.00     0.280 HD
HETATM   12  C   UNL     1      -8.425   2.768 -31.136  1.00  0.00     0.236 C 
HETATM   13  C   UNL     1      -7.149   2.917 -30.066  1.00  0.00     0.040 C 
BRANCH  10  14
HETATM   14  C   UNL     1      -8.883   2.993 -33.830  1.00  0.00     0.273 C 
BRANCH  14  15
HETATM   15  C   UNL     1     -10.240   2.346 -34.050  1.00  0.00    -0.030 A 
HETATM   16  C   UNL     1     -10.592   1.111 -33.486  1.00  0.00     0.051 A 
HETATM   17  C   UNL     1     -11.853   0.563 -33.715  1.00  0.00     0.117 A 
HETATM   18  F   UNL     1     -12.167  -0.596 -33.124  1.00  0.00    -0.206 F 
HETATM   19  C   UNL     1     -12.772   1.196 -34.536  1.00  0.00     0.042 A 
HETATM   20  C   UNL     1     -12.420   2.397 -35.147  1.00  0.00     0.004 A 
HETATM   21  C   UNL     1     -11.166   2.967 -34.906  1.00  0.00     0.009 A 
ENDBRANCH  14  15
ENDBRANCH  10  14
ENDBRANCH   3   7
BRANCH   6  22
HETATM   22  C   UNL     1      -7.620  -1.115 -33.862  1.00  0.00     0.315 C 
BRANCH  22  23
HETATM   23  N   UNL     1      -6.593  -2.107 -34.430  1.00  0.00    -0.064 N 
HETATM   24  H   UNL     1      -6.463  -1.878 -35.423  1.00  0.00     0.280 HD
HETATM   25  C   UNL     1      -5.260  -1.840 -33.736  1.00  0.00     0.235 C 
HETATM   26  C   UNL     1      -4.096  -2.657 -34.278  1.00  0.00     0.028 C 
HETATM   27  C   UNL     1      -4.122  -4.109 -33.814  1.00  0.00     0.002 C 
HETATM   28  C   UNL     1      -4.944  -5.035 -34.697  1.00  0.00     0.002 C 
HETATM   29  C   UNL     1      -6.192  -4.427 -35.318  1.00  0.00     0.028 C 
HETATM   30  C   UNL     1      -7.026  -3.566 -34.375  1.00  0.00     0.235 C 
ENDBRANCH  22  23
ENDBRANCH   6  22
TORSDOF 5
ENDMDL
MODEL 3
REMARK VINA RESULT:      -9.3      2.521      5.967
REMARK  5 active torsions:
REMARK  status: ('A' for Active; 'I' for Inactive)
REMARK    1  A    between atoms: C_3  and  C_4 
REMARK    2  A    between atoms: N_7  and  C_9 
REMARK    3  A    between atoms: C_9  and  C_10 
REMARK    4  A    between atoms: C_21  and  C_22 
REMARK    5  A    between atoms: C_22  and  N_23 
ROOT
HETATM    1  C   UNL     1      -5.229   4.585 -34.138  1.00  0.00     0.159 C 
HETATM    2  N   UNL     1      -5.644   3.669 -33.089  1.00  0.00    -0.323 N 
HETATM    3  C   UNL     1      -4.805   3.427 -31.450  1.00  0.00     0.134 A 
HETATM    4  N   UNL     1      -5.793   2.455 -30.513  1.00  0.00    -0.134 NA
HETATM    5  N   UNL     1      -7.352   2.133 -31.629  1.00  0.00    -0.133 NA
HETATM    6  C   UNL     1      -7.221   2.837 -33.073  1.00  0.00     0.155 A 
ENDROOT
BRANCH   3   7
HETATM    7  C   UNL     1      -3.795   4.291 -31.085  1.00  0.00     0.060 C 
HETATM    8  C   UNL     1      -5.207   4.982 -30.892  1.00  0.00     0.040 C 
HETATM    9  C   UNL     1      -6.582   3.761 -31.304  1.00  0.00     0.236 C 
HETATM   10  N   UNL     1      -5.582   1.963 -32.269  1.00  0.00    -0.067 N 
HETATM   11  H   UNL     1      -5.864   1.669 -33.198  1.00  0.00     0.280 HD
HETATM   12  C   UNL     1      -3.718   1.958 -32.538  1.00  0.00     0.236 C 
HETATM   13  C   UNL     1      -3.038   3.445 -32.190  1.00  0.00     0.040 C 
BRANCH  10  14
HETATM   14  C   UNL     1      -5.733   0.351 -31.602  1.00  0.00     0.273 C 
BRANCH  14  15
HETATM   15  C   UNL     1      -5.801  -0.698 -32.699  1.00  0.00    -0.030 A 
HETATM   16  C   UNL     1      -4.705  -1.497 -33.054  1.00  0.00     0.051 A 
HETATM   17  C   UNL     1      -4.822  -2.450 -34.065  1.00  0.00     0.117 A 
HETATM   18  F   UNL     1      -3.767  -3.223 -34.345  1.00  0.00    -0.206 F 
HETATM   19  C   UNL     1      -6.004  -2.603 -34.773  1.00  0.00     0.042 A 
HETATM   20  C   UNL     1      -7.086  -1.782 -34.469  1.00  0.00     0.004 A 
HETATM   21  C   UNL     1      -6.987  -0.838 -33.442  1.00  0.00     0.009 A 
ENDBRANCH  14  15
ENDBRANCH  10  14
ENDBRANCH   3   7
BRANCH   6  22
HETATM   22  C   UNL     1      -8.147   2.722 -34.250  1.00  0.00     0.315 C 
BRANCH  22  23
HETATM   23  N   UNL     1      -9.650   2.522 -33.994  1.00  0.00    -0.064 N 
HETATM   24  H   UNL     1      -9.827   2.759 -33.010  1.00  0.00     0.280 HD
HETATM   25  C   UNL     1     -10.403   3.547 -34.838  1.00  0.00     0.235 C 
HETATM   26  C   UNL     1     -11.907   3.571 -34.603  1.00  0.00     0.028 C 
HETATM   27  C   UNL     1     -12.629   2.401 -35.262  1.00  0.00     0.002 C 
HETATM   28  C   UNL     1     -12.700   1.145 -34.406  1.00  0.00     0.002 C 
HETATM   29  C   UNL     1     -11.492   0.876 -33.521  1.00  0.00     0.028 C 
HETATM   30  C   UNL     1     -10.141   1.094 -34.191  1.00  0.00     0.235 C 
ENDBRANCH  22  23
ENDBRANCH   6  22
TORSDOF 5
ENDMDL
MODEL 4
REMARK VINA RESULT:      -9.2      0.886      1.267
REMARK  5 active torsions:
REMARK  status: ('A' for Active; 'I' for Inactive)
REMARK    1  A    between atoms: C_3  and  C_4 
REMARK    2  A    between atoms: N_7  and  C_9 
REMARK    3  A    between atoms: C_9  and  C_10 
REMARK    4  A    between atoms: C_21  and  C_22 
REMARK    5  A    between atoms: C_22  and  N_23 
ROOT
HETATM    1  C   UNL     1      -5.838   3.474 -29.941  1.00  0.00     0.159 C 
HETATM    2  N   UNL     1      -6.166   3.404 -31.355  1.00  0.00    -0.323 N 
HETATM    3  C   UNL     1      -7.847   3.644 -32.105  1.00  0.00     0.134 A 
HETATM    4  N   UNL     1      -7.659   3.705 -33.766  1.00  0.00    -0.134 NA
HETATM    5  N   UNL     1      -5.741   3.548 -34.040  1.00  0.00    -0.133 NA
HETATM    6  C   UNL     1      -4.941   3.379 -32.651  1.00  0.00     0.155 A 
ENDROOT
BRANCH   3   7
HETATM    7  C   UNL     1      -8.875   4.096 -31.305  1.00  0.00     0.060 C 
HETATM    8  C   UNL     1      -7.925   5.297 -31.713  1.00  0.00     0.040 C 
HETATM    9  C   UNL     1      -6.581   4.683 -32.882  1.00  0.00     0.236 C 
HETATM   10  N   UNL     1      -6.699   2.414 -32.869  1.00  0.00    -0.067 N 
HETATM   11  H   UNL     1      -5.883   1.869 -32.611  1.00  0.00     0.280 HD
HETATM   12  C   UNL     1      -7.961   1.546 -31.774  1.00  0.00     0.236 C 
HETATM   13  C   UNL     1      -8.735   2.619 -30.752  1.00  0.00     0.040 C 
BRANCH  10  14
HETATM   14  C   UNL     1      -6.977   1.493 -34.332  1.00  0.00     0.273 C 
BRANCH  14  15
HETATM   15  C   UNL     1      -6.357   0.109 -34.242  1.00  0.00    -0.030 A 
HETATM   16  C   UNL     1      -5.126  -0.132 -33.616  1.00  0.00     0.051 A 
HETATM   17  C   UNL     1      -4.604  -1.423 -33.556  1.00  0.00     0.117 A 
HETATM   18  F   UNL     1      -3.447  -1.620 -32.913  1.00  0.00    -0.206 F 
HETATM   19  C   UNL     1      -5.261  -2.491 -34.146  1.00  0.00     0.042 A 
HETATM   20  C   UNL     1      -6.459  -2.261 -34.817  1.00  0.00     0.004 A 
HETATM   21  C   UNL     1      -7.004  -0.974 -34.864  1.00  0.00     0.009 A 
ENDBRANCH  14  15
ENDBRANCH  10  14
ENDBRANCH   3   7
BRANCH   6  22
HETATM   22  C   UNL     1      -3.477   3.107 -32.449  1.00  0.00     0.315 C 
BRANCH  22  23
HETATM   23  N   UNL     1      -2.487   4.280 -32.523  1.00  0.00    -0.064 N 
HETATM   24  H   UNL     1      -1.568   3.925 -32.232  1.00  0.00     0.280 HD
HETATM   25  C   UNL     1      -2.359   4.685 -33.989  1.00  0.00     0.235 C 
HETATM   26  C   UNL     1      -1.313   5.758 -34.255  1.00  0.00     0.028 C 
HETATM   27  C   UNL     1      -1.772   7.151 -33.842  1.00  0.00     0.002 C 
HETATM   28  C   UNL     1      -1.492   7.499 -32.388  1.00  0.00     0.002 C 
HETATM   29  C   UNL     1      -1.605   6.350 -31.397  1.00  0.00     0.028 C 
HETATM   30  C   UNL     1      -2.815   5.444 -31.597  1.00  0.00     0.235 C 
ENDBRANCH  22  23
ENDBRANCH   6  22
TORSDOF 5
ENDMDL
MODEL 5
REMARK VINA RESULT:      -9.2      2.257      2.970
REMARK  5 active torsions:
REMARK  status: ('A' for Active; 'I' for Inactive)
REMARK    1  A    between atoms: C_3  and  C_4 
REMARK    2  A    between atoms: N_7  and  C_9 
REMARK    3  A    between atoms: C_9  and  C_10 
REMARK    4  A    between atoms: C_21  and  C_22 
REMARK    5  A    between atoms: C_22  and  N_23 
ROOT
HETATM    1  C   UNL     1      -8.803   2.631 -31.080  1.00  0.00     0.159 C 
HETATM    2  N   UNL     1      -8.212   2.187 -32.331  1.00  0.00    -0.323 N 
HETATM    3  C   UNL     1      -9.014   1.087 -33.593  1.00  0.00     0.134 A 
HETATM    4  N   UNL     1      -8.033   1.069 -34.948  1.00  0.00    -0.134 NA
HETATM    5  N   UNL     1      -6.575   2.275 -34.504  1.00  0.00    -0.133 NA
HETATM    6  C   UNL     1      -6.719   2.880 -33.016  1.00  0.00     0.155 A 
ENDROOT
BRANCH   3   7
HETATM    7  C   UNL     1     -10.350   0.775 -33.453  1.00  0.00     0.060 C 
HETATM    8  C   UNL     1     -10.183   2.262 -33.974  1.00  0.00     0.040 C 
HETATM    9  C   UNL     1      -8.359   2.644 -34.252  1.00  0.00     0.236 C 
HETATM   10  N   UNL     1      -7.191   0.921 -33.340  1.00  0.00    -0.067 N 
HETATM   11  H   UNL     1      -6.501   1.107 -32.620  1.00  0.00     0.280 HD
HETATM   12  C   UNL     1      -8.106  -0.483 -32.482  1.00  0.00     0.236 C 
HETATM   13  C   UNL     1      -9.738  -0.154 -32.325  1.00  0.00     0.040 C 
BRANCH  10  14
HETATM   14  C   UNL     1      -6.089  -0.054 -34.288  1.00  0.00     0.273 C 
BRANCH  14  15
HETATM   15  C   UNL     1      -5.004  -0.669 -33.418  1.00  0.00    -0.030 A 
HETATM   16  C   UNL     1      -4.253   0.079 -32.501  1.00  0.00     0.051 A 
HETATM   17  C   UNL     1      -3.273  -0.534 -31.723  1.00  0.00     0.117 A 
HETATM   18  F   UNL     1      -2.606   0.204 -30.828  1.00  0.00    -0.206 F 
HETATM   19  C   UNL     1      -2.985  -1.883 -31.864  1.00  0.00     0.042 A 
HETATM   20  C   UNL     1      -3.686  -2.629 -32.807  1.00  0.00     0.004 A 
HETATM   21  C   UNL     1      -4.687  -2.029 -33.578  1.00  0.00     0.009 A 
ENDBRANCH  14  15
ENDBRANCH  10  14
ENDBRANCH   3   7
BRANCH   6  22
HETATM   22  C   UNL     1      -5.744   3.741 -32.265  1.00  0.00     0.315 C 
BRANCH  22  23
HETATM   23  N   UNL     1      -4.393   4.074 -32.917  1.00  0.00    -0.064 N 
HETATM   24  H   UNL     1      -4.033   3.206 -33.335  1.00  0.00     0.280 HD
HETATM   25  C   UNL     1      -4.660   5.040 -34.068  1.00  0.00     0.235 C 
HETATM   26  C   UNL     1      -3.433   5.373 -34.906  1.00  0.00     0.028 C 
HETATM   27  C   UNL     1      -2.490   6.351 -34.216  1.00  0.00     0.002 C 
HETATM   28  C   UNL     1      -1.463   5.696 -33.306  1.00  0.00     0.002 C 
HETATM   29  C   UNL     1      -1.932   4.457 -32.558  1.00  0.00     0.028 C 
HETATM   30  C   UNL     1      -3.325   4.563 -31.947  1.00  0.00     0.235 C 
ENDBRANCH  22  23
ENDBRANCH   6  22
TORSDOF 5
ENDMDL
MODEL 6
REMARK VINA RESULT:      -9.2      2.500      5.845
REMARK  5 active torsions:
REMARK  status: ('A' for Active; 'I' for Inactive)
REMARK    1  A    between atoms: C_3  and  C_4 
REMARK    2  A    between atoms: N_7  and  C_9 
REMARK    3  A    between atoms: C_9  and  C_10 
REMARK    4  A    between atoms: C_21  and  C_22 
REMARK    5  A    between atoms: C_22  and  N_23 
ROOT
HETATM    1  C   UNL     1      -6.549   4.207 -33.875  1.00  0.00     0.159 C 
HETATM    2  N   UNL     1      -6.796   3.172 -32.885  1.00  0.00    -0.323 N 
HETATM    3  C   UNL     1      -6.207   3.176 -31.124  1.00  0.00     0.134 A 
HETATM    4  N   UNL     1      -6.946   1.898 -30.338  1.00  0.00    -0.134 NA
HETATM    5  N   UNL     1      -8.098   1.103 -31.688  1.00  0.00    -0.133 NA
HETATM    6  C   UNL     1      -7.978   1.856 -33.108  1.00  0.00     0.155 A 
ENDROOT
BRANCH   3   7
HETATM    7  C   UNL     1      -5.623   4.319 -30.620  1.00  0.00     0.060 C 
HETATM    8  C   UNL     1      -7.199   4.471 -30.647  1.00  0.00     0.040 C 
HETATM    9  C   UNL     1      -7.989   2.870 -31.249  1.00  0.00     0.236 C 
HETATM   10  N   UNL     1      -6.299   1.571 -32.037  1.00  0.00    -0.067 N 
HETATM   11  H   UNL     1      -6.325   1.239 -32.995  1.00  0.00     0.280 HD
HETATM   12  C   UNL     1      -4.532   2.221 -32.023  1.00  0.00     0.236 C 
HETATM   13  C   UNL     1      -4.469   3.835 -31.591  1.00  0.00     0.040 C 
BRANCH  10  14
HETATM   14  C   UNL     1      -5.975  -0.021 -31.385  1.00  0.00     0.273 C 
BRANCH  14  15
HETATM   15  C   UNL     1      -5.604  -1.004 -32.484  1.00  0.00    -0.030 A 
HETATM   16  C   UNL     1      -6.539  -1.506 -33.400  1.00  0.00     0.051 A 
HETATM   17  C   UNL     1      -6.146  -2.402 -34.392  1.00  0.00     0.117 A 
HETATM   18  F   UNL     1      -7.058  -2.825 -35.275  1.00  0.00    -0.206 F 
HETATM   19  C   UNL     1      -4.838  -2.854 -34.474  1.00  0.00     0.042 A 
HETATM   20  C   UNL     1      -3.908  -2.406 -33.540  1.00  0.00     0.004 A 
HETATM   21  C   UNL     1      -4.286  -1.489 -32.553  1.00  0.00     0.009 A 
ENDBRANCH  14  15
ENDBRANCH  10  14
ENDBRANCH   3   7
BRANCH   6  22
HETATM   22  C   UNL     1      -8.604   1.472 -34.419  1.00  0.00     0.315 C 
BRANCH  22  23
HETATM   23  N   UNL     1     -10.029   1.955 -34.730  1.00  0.00    -0.064 N 
HETATM   24  H   UNL     1     -10.234   1.699 -35.704  1.00  0.00     0.280 HD
HETATM   25  C   UNL     1     -10.989   1.157 -33.852  1.00  0.00     0.235 C 
HETATM   26  C   UNL     1     -12.462   1.423 -34.129  1.00  0.00     0.028 C 
HETATM   27  C   UNL     1     -12.943   2.753 -33.559  1.00  0.00     0.002 C 
HETATM   28  C   UNL     1     -12.742   3.942 -34.487  1.00  0.00     0.002 C 
HETATM   29  C   UNL     1     -11.490   3.907 -35.350  1.00  0.00     0.028 C 
HETATM   30  C   UNL     1     -10.223   3.462 -34.629  1.00  0.00     0.235 C 
ENDBRANCH  22  23
ENDBRANCH   6  22
TORSDOF 5
ENDMDL
MODEL 7
REMARK VINA RESULT:      -8.8      5.268      8.725
REMARK  5 active torsions:
REMARK  status: ('A' for Active; 'I' for Inactive)
REMARK    1  A    between atoms: C_3  and  C_4 
REMARK    2  A    between atoms: N_7  and  C_9 
REMARK    3  A    between atoms: C_9  and  C_10 
REMARK    4  A    between atoms: C_21  and  C_22 
REMARK    5  A    between atoms: C_22  and  N_23 
ROOT
HETATM    1  C   UNL     1      -4.488   5.914 -31.163  1.00  0.00     0.159 C 
HETATM    2  N   UNL     1      -3.177   6.481 -31.428  1.00  0.00    -0.323 N 
HETATM    3  C   UNL     1      -1.945   5.862 -32.672  1.00  0.00     0.134 A 
HETATM    4  N   UNL     1      -0.708   6.985 -32.764  1.00  0.00    -0.134 NA
HETATM    5  N   UNL     1      -1.249   8.399 -31.545  1.00  0.00    -0.133 NA
HETATM    6  C   UNL     1      -2.647   8.069 -30.814  1.00  0.00     0.155 A 
ENDROOT
BRANCH   3   7
HETATM    7  C   UNL     1      -2.332   4.883 -33.562  1.00  0.00     0.060 C 
HETATM    8  C   UNL     1      -2.871   6.297 -34.030  1.00  0.00     0.040 C 
HETATM    9  C   UNL     1      -2.257   7.639 -32.857  1.00  0.00     0.236 C 
HETATM   10  N   UNL     1      -1.339   6.569 -31.075  1.00  0.00    -0.067 N 
HETATM   11  H   UNL     1      -1.689   6.756 -30.142  1.00  0.00     0.280 HD
HETATM   12  C   UNL     1      -1.355   4.688 -31.000  1.00  0.00     0.236 C 
HETATM   13  C   UNL     1      -2.272   4.027 -32.231  1.00  0.00     0.040 C 
BRANCH  10  14
HETATM   14  C   UNL     1       0.331   6.814 -30.608  1.00  0.00     0.273 C 
BRANCH  14  15
HETATM   15  C   UNL     1       0.464   7.005 -29.106  1.00  0.00    -0.030 A 
HETATM   16  C   UNL     1      -0.117   6.131 -28.176  1.00  0.00     0.051 A 
HETATM   17  C   UNL     1       0.039   6.348 -26.809  1.00  0.00     0.117 A 
HETATM   18  F   UNL     1      -0.494   5.468 -25.953  1.00  0.00    -0.206 F 
HETATM   19  C   UNL     1       0.732   7.450 -26.331  1.00  0.00     0.042 A 
HETATM   20  C   UNL     1       1.271   8.356 -27.241  1.00  0.00     0.004 A 
HETATM   21  C   UNL     1       1.139   8.136 -28.616  1.00  0.00     0.009 A 
ENDBRANCH  14  15
ENDBRANCH  10  14
ENDBRANCH   3   7
BRANCH   6  22
HETATM   22  C   UNL     1      -3.330   8.843 -29.722  1.00  0.00     0.315 C 
BRANCH  22  23
HETATM   23  N   UNL     1      -2.889   8.620 -28.267  1.00  0.00    -0.064 N 
HETATM   24  H   UNL     1      -2.046   8.031 -28.289  1.00  0.00     0.280 HD
HETATM   25  C   UNL     1      -2.468   9.972 -27.699  1.00  0.00     0.235 C 
HETATM   26  C   UNL     1      -1.878   9.908 -26.297  1.00  0.00     0.028 C 
HETATM   27  C   UNL     1      -2.935   9.709 -25.216  1.00  0.00     0.002 C 
HETATM   28  C   UNL     1      -3.281   8.254 -24.938  1.00  0.00     0.002 C 
HETATM   29  C   UNL     1      -3.259   7.324 -26.142  1.00  0.00     0.028 C 
HETATM   30  C   UNL     1      -3.906   7.886 -27.402  1.00  0.00     0.235 C 
ENDBRANCH  22  23
ENDBRANCH   6  22
TORSDOF 5
ENDMDL
MODEL 8
REMARK VINA RESULT:      -8.7     16.174     18.356
REMARK  5 active torsions:
REMARK  status: ('A' for Active; 'I' for Inactive)
REMARK    1  A    between atoms: C_3  and  C_4 
REMARK    2  A    between atoms: N_7  and  C_9 
REMARK    3  A    between atoms: C_9  and  C_10 
REMARK    4  A    between atoms: C_21  and  C_22 
REMARK    5  A    between atoms: C_22  and  N_23 
ROOT
HETATM    1  C   UNL     1      -8.616 -15.799 -38.146  1.00  0.00     0.159 C 
HETATM    2  N   UNL     1      -8.172 -14.577 -38.796  1.00  0.00    -0.323 N 
HETATM    3  C   UNL     1      -9.062 -13.668 -40.148  1.00  0.00     0.134 A 
HETATM    4  N   UNL     1      -8.275 -12.211 -40.384  1.00  0.00    -0.134 NA
HETATM    5  N   UNL     1      -6.854 -12.210 -39.057  1.00  0.00    -0.133 NA
HETATM    6  C   UNL     1      -6.836 -13.567 -38.186  1.00  0.00     0.155 A 
ENDROOT
BRANCH   3   7
HETATM    7  C   UNL     1     -10.343 -14.056 -40.481  1.00  0.00     0.060 C 
HETATM    8  C   UNL     1     -10.359 -13.178 -39.163  1.00  0.00     0.040 C 
HETATM    9  C   UNL     1      -8.617 -12.575 -38.771  1.00  0.00     0.236 C 
HETATM   10  N   UNL     1      -7.214 -13.708 -40.155  1.00  0.00    -0.067 N 
HETATM   11  H   UNL     1      -6.462 -14.263 -39.763  1.00  0.00     0.280 HD
HETATM   12  C   UNL     1      -7.906 -14.991 -41.346  1.00  0.00     0.236 C 
HETATM   13  C   UNL     1      -9.529 -15.281 -41.070  1.00  0.00     0.040 C 
BRANCH  10  14
HETATM   14  C   UNL     1      -6.156 -12.881 -41.278  1.00  0.00     0.273 C 
BRANCH  14  15
HETATM   15  C   UNL     1      -4.837 -13.618 -41.441  1.00  0.00    -0.030 A 
HETATM   16  C   UNL     1      -3.832 -13.599 -40.464  1.00  0.00     0.051 A 
HETATM   17  C   UNL     1      -2.641 -14.296 -40.660  1.00  0.00     0.117 A 
HETATM   18  F   UNL     1      -1.724 -14.289 -39.686  1.00  0.00    -0.206 F 
HETATM   19  C   UNL     1      -2.400 -14.988 -41.837  1.00  0.00     0.042 A 
HETATM   20  C   UNL     1      -3.366 -14.974 -42.839  1.00  0.00     0.004 A 
HETATM   21  C   UNL     1      -4.574 -14.296 -42.644  1.00  0.00     0.009 A 
ENDBRANCH  14  15
ENDBRANCH  10  14
ENDBRANCH   3   7
BRANCH   6  22
HETATM   22  C   UNL     1      -5.828 -13.998 -37.159  1.00  0.00     0.315 C 
BRANCH  22  23
HETATM   23  N   UNL     1      -6.184 -13.868 -35.669  1.00  0.00    -0.064 N 
HETATM   24  H   UNL     1      -6.976 -13.216 -35.600  1.00  0.00     0.280 HD
HETATM   25  C   UNL     1      -6.689 -15.228 -35.195  1.00  0.00     0.235 C 
HETATM   26  C   UNL     1      -7.209 -15.240 -33.764  1.00  0.00     0.028 C 
HETATM   27  C   UNL     1      -6.092 -15.219 -32.726  1.00  0.00     0.002 C 
HETATM   28  C   UNL     1      -5.616 -13.824 -32.346  1.00  0.00     0.002 C 
HETATM   29  C   UNL     1      -5.616 -12.794 -33.466  1.00  0.00     0.028 C 
HETATM   30  C   UNL     1      -5.073 -13.294 -34.800  1.00  0.00     0.235 C 
ENDBRANCH  22  23
ENDBRANCH   6  22
TORSDOF 5
ENDMDL
MODEL 9
REMARK VINA RESULT:      -8.7     16.725     18.565
REMARK  5 active torsions:
REMARK  status: ('A' for Active; 'I' for Inactive)
REMARK    1  A    between atoms: C_3  and  C_4 
REMARK    2  A    between atoms: N_7  and  C_9 
REMARK    3  A    between atoms: C_9  and  C_10 
REMARK    4  A    between atoms: C_21  and  C_22 
REMARK    5  A    between atoms: C_22  and  N_23 
ROOT
HETATM    1  C   UNL     1      -7.893 -15.527 -37.669  1.00  0.00     0.159 C 
HETATM    2  N   UNL     1      -7.615 -14.416 -38.563  1.00  0.00    -0.323 N 
HETATM    3  C   UNL     1      -8.755 -13.744 -39.865  1.00  0.00     0.134 A 
HETATM    4  N   UNL     1      -8.079 -12.330 -40.452  1.00  0.00    -0.134 NA
HETATM    5  N   UNL     1      -6.459 -12.099 -39.404  1.00  0.00    -0.133 NA
HETATM    6  C   UNL     1      -6.239 -13.302 -38.353  1.00  0.00     0.155 A 
ENDROOT
BRANCH   3   7
HETATM    7  C   UNL     1     -10.056 -14.199 -39.911  1.00  0.00     0.060 C 
HETATM    8  C   UNL     1      -9.874 -13.170 -38.720  1.00  0.00     0.040 C 
HETATM    9  C   UNL     1      -8.118 -12.484 -38.727  1.00  0.00     0.236 C 
HETATM   10  N   UNL     1      -6.938 -13.741 -40.208  1.00  0.00    -0.067 N 
HETATM   11  H   UNL     1      -6.103 -14.228 -39.900  1.00  0.00     0.280 HD
HETATM   12  C   UNL     1      -7.775 -15.173 -41.099  1.00  0.00     0.236 C 
HETATM   13  C   UNL     1      -9.307 -15.466 -40.498  1.00  0.00     0.040 C 
BRANCH  10  14
HETATM   14  C   UNL     1      -6.138 -13.030 -41.593  1.00  0.00     0.273 C 
BRANCH  14  15
HETATM   15  C   UNL     1      -5.016 -13.920 -42.101  1.00  0.00    -0.030 A 
HETATM   16  C   UNL     1      -3.733 -13.920 -41.536  1.00  0.00     0.051 A 
HETATM   17  C   UNL     1      -2.740 -14.760 -42.037  1.00  0.00     0.117 A 
HETATM   18  F   UNL     1      -1.541 -14.763 -41.443  1.00  0.00    -0.206 F 
HETATM   19  C   UNL     1      -2.977 -15.581 -43.128  1.00  0.00     0.042 A 
HETATM   20  C   UNL     1      -4.230 -15.555 -43.734  1.00  0.00     0.004 A 
HETATM   21  C   UNL     1      -5.241 -14.733 -43.226  1.00  0.00     0.009 A 
ENDBRANCH  14  15
ENDBRANCH  10  14
ENDBRANCH   3   7
BRANCH   6  22
HETATM   22  C   UNL     1      -5.056 -13.550 -37.460  1.00  0.00     0.315 C 
BRANCH  22  23
HETATM   23  N   UNL     1      -3.724 -13.981 -38.095  1.00  0.00    -0.064 N 
HETATM   24  H   UNL     1      -3.903 -14.152 -39.093  1.00  0.00     0.280 HD
HETATM   25  C   UNL     1      -2.769 -12.794 -38.016  1.00  0.00     0.235 C 
HETATM   26  C   UNL     1      -1.437 -13.011 -38.720  1.00  0.00     0.028 C 
HETATM   27  C   UNL     1      -0.489 -13.911 -37.935  1.00  0.00     0.002 C 
HETATM   28  C   UNL     1      -0.667 -15.397 -38.207  1.00  0.00     0.002 C 
HETATM   29  C   UNL     1      -2.093 -15.859 -38.468  1.00  0.00     0.028 C 
HETATM   30  C   UNL     1      -3.142 -15.270 -37.532  1.00  0.00     0.235 C 
ENDBRANCH  22  23
ENDBRANCH   6  22
TORSDOF 5
ENDMDL
