MODEL 1
REMARK VINA RESULT:      -9.2      0.000      0.000
REMARK  4 active torsions:
REMARK  status: ('A' for Active; 'I' for Inactive)
REMARK    1  A    between atoms: C_6  and  C_7 
REMARK       I    between atoms: C_7  and  N_8 
REMARK    2  A    between atoms: N_8  and  N_9 
REMARK    3  A    between atoms: N_9  and  C_10 
REMARK    4  A    between atoms: C_21  and  C_22 
ROOT
HETATM    1  C   UNL     1      -0.819   5.988 -30.184  1.00  0.00     0.124 A 
HETATM    2  N   UNL     1      -1.554   7.034 -30.604  1.00  0.00    -0.223 NA
HETATM    3  C   UNL     1      -1.436   8.194 -29.930  1.00  0.00     0.129 A 
HETATM    4 CL   UNL     1      -2.412   9.470 -30.529  1.00  0.00    -0.062 Cl
HETATM    5  C   UNL     1      -0.607   8.391 -28.847  1.00  0.00     0.067 A 
HETATM    6  C   UNL     1       0.160   7.309 -28.433  1.00  0.00     0.051 A 
HETATM    7  C   UNL     1       1.051   7.442 -27.322  1.00  0.00     0.099 C 
HETATM    8  N   UNL     1       1.772   7.555 -26.420  1.00  0.00    -0.191 NA
HETATM    9  C   UNL     1       0.060   6.093 -29.110  1.00  0.00     0.068 A 
ENDROOT
BRANCH   1  10
HETATM   10  N   UNL     1      -0.926   4.795 -30.928  1.00  0.00    -0.186 NA
HETATM   11  H   UNL     1      -0.694   5.052 -31.899  1.00  0.00     0.154 HD
BRANCH  10  12
HETATM   12  N   UNL     1      -2.204   4.204 -30.849  1.00  0.00    -0.281 N 
HETATM   13  C   UNL     1      -2.770   3.736 -32.018  1.00  0.00     0.271 C 
HETATM   14  O   UNL     1      -2.299   3.979 -33.128  1.00  0.00    -0.266 OA
HETATM   15  H   UNL     1      -2.499   3.838 -29.941  1.00  0.00     0.184 HD
BRANCH  13  16
HETATM   16  C   UNL     1      -3.987   2.894 -31.835  1.00  0.00     0.102 A 
HETATM   17  C   UNL     1      -5.088   3.244 -30.897  1.00  0.00     0.261 A 
HETATM   18  N   UNL     1      -6.146   2.373 -30.843  1.00  0.00    -0.326 N 
HETATM   19  O   UNL     1      -5.055   4.257 -30.202  1.00  0.00    -0.267 OA
HETATM   20  C   UNL     1      -6.253   1.206 -31.576  1.00  0.00     0.019 A 
HETATM   21  H   UNL     1      -6.888   2.628 -30.200  1.00  0.00     0.169 HD
HETATM   22  C   UNL     1      -7.512   0.420 -31.327  1.00  0.00     0.069 C 
HETATM   23  C   UNL     1      -5.255   0.869 -32.426  1.00  0.00    -0.003 A 
HETATM   24  C   UNL     1      -4.101   1.756 -32.543  1.00  0.00     0.037 A 
BRANCH  23  25
HETATM   25  C   UNL     1      -5.328  -0.368 -33.227  1.00  0.00    -0.024 A 
HETATM   26  C   UNL     1      -6.312  -0.512 -34.213  1.00  0.00     0.012 A 
HETATM   27  C   UNL     1      -6.379  -1.681 -34.973  1.00  0.00     0.001 A 
HETATM   28  C   UNL     1      -5.461  -2.708 -34.756  1.00  0.00     0.000 A 
HETATM   29  C   UNL     1      -4.473  -2.568 -33.782  1.00  0.00     0.001 A 
HETATM   30  C   UNL     1      -4.403  -1.400 -33.020  1.00  0.00     0.012 A 
ENDBRANCH  23  25
ENDBRANCH  13  16
ENDBRANCH  10  12
ENDBRANCH   1  10
TORSDOF 4
ENDMDL
MODEL 2
REMARK VINA RESULT:      -9.2      1.390      2.154
REMARK  4 active torsions:
REMARK  status: ('A' for Active; 'I' for Inactive)
REMARK    1  A    between atoms: C_6  and  C_7 
REMARK       I    between atoms: C_7  and  N_8 
REMARK    2  A    between atoms: N_8  and  N_9 
REMARK    3  A    between atoms: N_9  and  C_10 
REMARK    4  A    between atoms: C_21  and  C_22 
ROOT
HETATM    1  C   UNL     1      -0.823   5.826 -30.352  1.00  0.00     0.124 A 
HETATM    2  N   UNL     1      -0.004   5.936 -29.291  1.00  0.00    -0.223 NA
HETATM    3  C   UNL     1       0.064   7.131 -28.672  1.00  0.00     0.129 A 
HETATM    4 CL   UNL     1       1.136   7.182 -27.335  1.00  0.00    -0.062 Cl
HETATM    5  C   UNL     1      -0.655   8.247 -29.041  1.00  0.00     0.067 A 
HETATM    6  C   UNL     1      -1.510   8.117 -30.128  1.00  0.00     0.051 A 
HETATM    7  C   UNL     1      -2.297   9.231 -30.562  1.00  0.00     0.099 C 
HETATM    8  N   UNL     1      -2.932  10.137 -30.910  1.00  0.00    -0.191 NA
HETATM    9  C   UNL     1      -1.603   6.892 -30.790  1.00  0.00     0.068 A 
ENDROOT
BRANCH   1  10
HETATM   10  N   UNL     1      -0.910   4.558 -30.960  1.00  0.00    -0.186 NA
HETATM   11  H   UNL     1      -0.638   4.702 -31.944  1.00  0.00     0.154 HD
BRANCH  10  12
HETATM   12  N   UNL     1      -2.194   3.984 -30.868  1.00  0.00    -0.281 N 
HETATM   13  C   UNL     1      -2.837   3.648 -32.043  1.00  0.00     0.271 C 
HETATM   14  O   UNL     1      -2.425   3.998 -33.148  1.00  0.00    -0.266 OA
HETATM   15  H   UNL     1      -2.446   3.529 -29.986  1.00  0.00     0.184 HD
BRANCH  13  16
HETATM   16  C   UNL     1      -4.060   2.814 -31.875  1.00  0.00     0.102 A 
HETATM   17  C   UNL     1      -5.164   3.160 -30.941  1.00  0.00     0.261 A 
HETATM   18  N   UNL     1      -6.229   2.296 -30.901  1.00  0.00    -0.326 N 
HETATM   19  O   UNL     1      -5.128   4.166 -30.234  1.00  0.00    -0.267 OA
HETATM   20  C   UNL     1      -6.339   1.138 -31.647  1.00  0.00     0.019 A 
HETATM   21  H   UNL     1      -6.972   2.549 -30.260  1.00  0.00     0.169 HD
HETATM   22  C   UNL     1      -7.605   0.358 -31.414  1.00  0.00     0.069 C 
HETATM   23  C   UNL     1      -5.338   0.803 -32.496  1.00  0.00    -0.003 A 
HETATM   24  C   UNL     1      -4.178   1.684 -32.596  1.00  0.00     0.037 A 
BRANCH  23  25
HETATM   25  C   UNL     1      -5.415  -0.425 -33.310  1.00  0.00    -0.024 A 
HETATM   26  C   UNL     1      -6.433  -0.577 -34.260  1.00  0.00     0.012 A 
HETATM   27  C   UNL     1      -6.504  -1.737 -35.033  1.00  0.00     0.001 A 
HETATM   28  C   UNL     1      -5.556  -2.747 -34.865  1.00  0.00     0.000 A 
HETATM   29  C   UNL     1      -4.535  -2.598 -33.927  1.00  0.00     0.001 A 
HETATM   30  C   UNL     1      -4.461  -1.438 -33.152  1.00  0.00     0.012 A 
ENDBRANCH  23  25
ENDBRANCH  13  16
ENDBRANCH  10  12
ENDBRANCH   1  10
TORSDOF 4
ENDMDL
MODEL 3
REMARK VINA RESULT:      -8.9      2.564      3.271
REMARK  4 active torsions:
REMARK  status: ('A' for Active; 'I' for Inactive)
REMARK    1  A    between atoms: C_6  and  C_7 
REMARK       I    between atoms: C_7  and  N_8 
REMARK    2  A    between atoms: N_8  and  N_9 
REMARK    3  A    between atoms: N_9  and  C_10 
REMARK    4  A    between atoms: C_21  and  C_22 
ROOT
HETATM    1  C   UNL     1      -2.227   4.626 -31.593  1.00  0.00     0.124 A 
HETATM    2  N   UNL     1      -1.770   4.619 -32.858  1.00  0.00    -0.223 NA
HETATM    3  C   UNL     1      -1.399   5.796 -33.397  1.00  0.00     0.129 A 
HETATM    4 CL   UNL     1      -0.836   5.695 -35.014  1.00  0.00    -0.062 Cl
HETATM    5  C   UNL     1      -1.442   7.008 -32.741  1.00  0.00     0.067 A 
HETATM    6  C   UNL     1      -1.900   7.000 -31.430  1.00  0.00     0.051 A 
HETATM    7  C   UNL     1      -1.963   8.218 -30.682  1.00  0.00     0.099 C 
HETATM    8  N   UNL     1      -2.012   9.209 -30.081  1.00  0.00    -0.191 NA
HETATM    9  C   UNL     1      -2.292   5.796 -30.843  1.00  0.00     0.068 A 
ENDROOT
BRANCH   1  10
HETATM   10  N   UNL     1      -2.572   3.379 -31.034  1.00  0.00    -0.186 NA
HETATM   11  H   UNL     1      -1.677   2.917 -30.812  1.00  0.00     0.154 HD
BRANCH  10  12
HETATM   12  N   UNL     1      -3.355   2.582 -31.893  1.00  0.00    -0.281 N 
HETATM   13  C   UNL     1      -4.571   2.129 -31.421  1.00  0.00     0.271 C 
HETATM   14  O   UNL     1      -4.905   2.230 -30.241  1.00  0.00    -0.266 OA
HETATM   15  H   UNL     1      -3.180   2.658 -32.898  1.00  0.00     0.184 HD
BRANCH  13  16
HETATM   16  C   UNL     1      -5.461   1.523 -32.453  1.00  0.00     0.102 A 
HETATM   17  C   UNL     1      -6.546   2.274 -33.139  1.00  0.00     0.261 A 
HETATM   18  N   UNL     1      -7.277   1.581 -34.070  1.00  0.00    -0.326 N 
HETATM   19  O   UNL     1      -6.782   3.454 -32.886  1.00  0.00    -0.267 OA
HETATM   20  C   UNL     1      -7.088   0.252 -34.399  1.00  0.00     0.019 A 
HETATM   21  H   UNL     1      -8.011   2.109 -34.529  1.00  0.00     0.169 HD
HETATM   22  C   UNL     1      -8.031  -0.276 -35.448  1.00  0.00     0.069 C 
HETATM   23  C   UNL     1      -6.111  -0.448 -33.776  1.00  0.00    -0.003 A 
HETATM   24  C   UNL     1      -5.286   0.230 -32.781  1.00  0.00     0.037 A 
BRANCH  23  25
HETATM   25  C   UNL     1      -5.875  -1.869 -34.097  1.00  0.00    -0.024 A 
HETATM   26  C   UNL     1      -6.931  -2.676 -34.540  1.00  0.00     0.012 A 
HETATM   27  C   UNL     1      -6.707  -4.019 -34.846  1.00  0.00     0.001 A 
HETATM   28  C   UNL     1      -5.428  -4.560 -34.718  1.00  0.00     0.000 A 
HETATM   29  C   UNL     1      -4.371  -3.761 -34.286  1.00  0.00     0.001 A 
HETATM   30  C   UNL     1      -4.592  -2.416 -33.979  1.00  0.00     0.012 A 
ENDBRANCH  23  25
ENDBRANCH  13  16
ENDBRANCH  10  12
ENDBRANCH   1  10
TORSDOF 4
ENDMDL
MODEL 4
REMARK VINA RESULT:      -8.6      6.410      9.149
REMARK  4 active torsions:
REMARK  status: ('A' for Active; 'I' for Inactive)
REMARK    1  A    between atoms: C_6  and  C_7 
REMARK       I    between atoms: C_7  and  N_8 
REMARK    2  A    between atoms: N_8  and  N_9 
REMARK    3  A    between atoms: N_9  and  C_10 
REMARK    4  A    between atoms: C_21  and  C_22 
ROOT
HETATM    1  C   UNL     1     -11.931   2.933 -34.492  1.00  0.00     0.124 A 
HETATM    2  N   UNL     1     -12.582   2.799 -33.323  1.00  0.00    -0.223 NA
HETATM    3  C   UNL     1     -13.199   3.886 -32.820  1.00  0.00     0.129 A 
HETATM    4 CL   UNL     1     -13.998   3.626 -31.326  1.00  0.00    -0.062 Cl
HETATM    5  C   UNL     1     -13.220   5.125 -33.423  1.00  0.00     0.067 A 
HETATM    6  C   UNL     1     -12.558   5.247 -34.638  1.00  0.00     0.051 A 
HETATM    7  C   UNL     1     -12.545   6.501 -35.328  1.00  0.00     0.099 C 
HETATM    8  N   UNL     1     -12.538   7.520 -35.883  1.00  0.00    -0.191 NA
HETATM    9  C   UNL     1     -11.909   4.140 -35.186  1.00  0.00     0.068 A 
ENDROOT
BRANCH   1  10
HETATM   10  N   UNL     1     -11.327   1.774 -35.021  1.00  0.00    -0.186 NA
HETATM   11  H   UNL     1     -11.865   0.982 -34.640  1.00  0.00     0.154 HD
BRANCH  10  12
HETATM   12  N   UNL     1      -9.959   1.663 -34.698  1.00  0.00    -0.281 N 
HETATM   13  C   UNL     1      -9.595   0.725 -33.752  1.00  0.00     0.271 C 
HETATM   14  O   UNL     1     -10.417   0.130 -33.056  1.00  0.00    -0.266 OA
HETATM   15  H   UNL     1      -9.282   2.002 -35.386  1.00  0.00     0.184 HD
BRANCH  13  16
HETATM   16  C   UNL     1      -8.130   0.473 -33.647  1.00  0.00     0.102 A 
HETATM   17  C   UNL     1      -7.144   1.523 -33.274  1.00  0.00     0.261 A 
HETATM   18  N   UNL     1      -5.830   1.136 -33.214  1.00  0.00    -0.326 N 
HETATM   19  O   UNL     1      -7.485   2.680 -33.035  1.00  0.00    -0.267 OA
HETATM   20  C   UNL     1      -5.363  -0.136 -33.485  1.00  0.00     0.019 A 
HETATM   21  H   UNL     1      -5.173   1.865 -32.956  1.00  0.00     0.169 HD
HETATM   22  C   UNL     1      -3.872  -0.299 -33.356  1.00  0.00     0.069 C 
HETATM   23  C   UNL     1      -6.246  -1.100 -33.836  1.00  0.00    -0.003 A 
HETATM   24  C   UNL     1      -7.664  -0.762 -33.909  1.00  0.00     0.037 A 
BRANCH  23  25
HETATM   25  C   UNL     1      -5.790  -2.472 -34.134  1.00  0.00    -0.024 A 
HETATM   26  C   UNL     1      -6.639  -3.367 -34.797  1.00  0.00     0.012 A 
HETATM   27  C   UNL     1      -6.207  -4.664 -35.082  1.00  0.00     0.001 A 
HETATM   28  C   UNL     1      -4.925  -5.069 -34.710  1.00  0.00     0.000 A 
HETATM   29  C   UNL     1      -4.072  -4.180 -34.056  1.00  0.00     0.001 A 
HETATM   30  C   UNL     1      -4.501  -2.883 -33.771  1.00  0.00     0.012 A 
ENDBRANCH  23  25
ENDBRANCH  13  16
ENDBRANCH  10  12
ENDBRANCH   1  10
TORSDOF 4
ENDMDL
MODEL 5
REMARK VINA RESULT:      -8.6      2.649      2.994
REMARK  4 active torsions:
REMARK  status: ('A' for Active; 'I' for Inactive)
REMARK    1  A    between atoms: C_6  and  C_7 
REMARK       I    between atoms: C_7  and  N_8 
REMARK    2  A    between atoms: N_8  and  N_9 
REMARK    3  A    between atoms: N_9  and  C_10 
REMARK    4  A    between atoms: C_21  and  C_22 
ROOT
HETATM    1  C   UNL     1      -1.370   6.707 -32.117  1.00  0.00     0.124 A 
HETATM    2  N   UNL     1      -0.391   5.792 -32.006  1.00  0.00    -0.223 NA
HETATM    3  C   UNL     1       0.367   5.816 -30.893  1.00  0.00     0.129 A 
HETATM    4 CL   UNL     1       1.594   4.620 -30.838  1.00  0.00    -0.062 Cl
HETATM    5  C   UNL     1       0.205   6.706 -29.853  1.00  0.00     0.067 A 
HETATM    6  C   UNL     1      -0.820   7.636 -29.972  1.00  0.00     0.051 A 
HETATM    7  C   UNL     1      -1.056   8.585 -28.927  1.00  0.00     0.099 C 
HETATM    8  N   UNL     1      -1.242   9.352 -28.077  1.00  0.00    -0.191 NA
HETATM    9  C   UNL     1      -1.624   7.636 -31.113  1.00  0.00     0.068 A 
ENDROOT
BRANCH   1  10
HETATM   10  N   UNL     1      -2.177   6.638 -33.271  1.00  0.00    -0.186 NA
HETATM   11  H   UNL     1      -2.205   7.597 -33.648  1.00  0.00     0.154 HD
BRANCH  10  12
HETATM   12  N   UNL     1      -3.477   6.156 -33.012  1.00  0.00    -0.281 N 
HETATM   13  C   UNL     1      -4.159   5.552 -34.049  1.00  0.00     0.271 C 
HETATM   14  O   UNL     1      -3.763   5.587 -35.214  1.00  0.00    -0.266 OA
HETATM   15  H   UNL     1      -3.721   5.956 -32.038  1.00  0.00     0.184 HD
BRANCH  13  16
HETATM   16  C   UNL     1      -5.404   4.835 -33.651  1.00  0.00     0.102 A 
HETATM   17  C   UNL     1      -6.566   5.510 -33.012  1.00  0.00     0.261 A 
HETATM   18  N   UNL     1      -7.643   4.718 -32.708  1.00  0.00    -0.326 N 
HETATM   19  O   UNL     1      -6.563   6.714 -32.762  1.00  0.00    -0.267 OA
HETATM   20  C   UNL     1      -7.719   3.357 -32.938  1.00  0.00     0.019 A 
HETATM   21  H   UNL     1      -8.426   5.195 -32.275  1.00  0.00     0.169 HD
HETATM   22  C   UNL     1      -9.011   2.717 -32.504  1.00  0.00     0.069 C 
HETATM   23  C   UNL     1      -6.666   2.727 -33.511  1.00  0.00    -0.003 A 
HETATM   24  C   UNL     1      -5.488   3.511 -33.870  1.00  0.00     0.037 A 
BRANCH  23  25
HETATM   25  C   UNL     1      -6.705   1.276 -33.774  1.00  0.00    -0.024 A 
HETATM   26  C   UNL     1      -7.290   0.788 -34.950  1.00  0.00     0.012 A 
HETATM   27  C   UNL     1      -7.323  -0.584 -35.200  1.00  0.00     0.001 A 
HETATM   28  C   UNL     1      -6.769  -1.475 -34.281  1.00  0.00     0.000 A 
HETATM   29  C   UNL     1      -6.178  -0.996 -33.113  1.00  0.00     0.001 A 
HETATM   30  C   UNL     1      -6.142   0.376 -32.859  1.00  0.00     0.012 A 
ENDBRANCH  23  25
ENDBRANCH  13  16
ENDBRANCH  10  12
ENDBRANCH   1  10
TORSDOF 4
ENDMDL
MODEL 6
REMARK VINA RESULT:      -8.6      2.217      2.705
REMARK  4 active torsions:
REMARK  status: ('A' for Active; 'I' for Inactive)
REMARK    1  A    between atoms: C_6  and  C_7 
REMARK       I    between atoms: C_7  and  N_8 
REMARK    2  A    between atoms: N_8  and  N_9 
REMARK    3  A    between atoms: N_9  and  C_10 
REMARK    4  A    between atoms: C_21  and  C_22 
ROOT
HETATM    1  C   UNL     1      -2.651   6.771 -32.205  1.00  0.00     0.124 A 
HETATM    2  N   UNL     1      -2.737   7.872 -31.437  1.00  0.00    -0.223 NA
HETATM    3  C   UNL     1      -1.769   8.076 -30.522  1.00  0.00     0.129 A 
HETATM    4 CL   UNL     1      -1.961   9.498 -29.584  1.00  0.00    -0.062 Cl
HETATM    5  C   UNL     1      -0.691   7.242 -30.323  1.00  0.00     0.067 A 
HETATM    6  C   UNL     1      -0.604   6.117 -31.133  1.00  0.00     0.051 A 
HETATM    7  C   UNL     1       0.494   5.210 -30.991  1.00  0.00     0.099 C 
HETATM    8  N   UNL     1       1.386   4.478 -30.871  1.00  0.00    -0.191 NA
HETATM    9  C   UNL     1      -1.590   5.878 -32.091  1.00  0.00     0.068 A 
ENDROOT
BRANCH   1  10
HETATM   10  N   UNL     1      -3.651   6.598 -33.183  1.00  0.00    -0.186 NA
HETATM   11  H   UNL     1      -4.042   7.538 -33.350  1.00  0.00     0.154 HD
BRANCH  10  12
HETATM   12  N   UNL     1      -4.658   5.691 -32.795  1.00  0.00    -0.281 N 
HETATM   13  C   UNL     1      -5.175   4.850 -33.761  1.00  0.00     0.271 C 
HETATM   14  O   UNL     1      -4.935   4.988 -34.959  1.00  0.00    -0.266 OA
HETATM   15  H   UNL     1      -4.717   5.447 -31.803  1.00  0.00     0.184 HD
BRANCH  13  16
HETATM   16  C   UNL     1      -6.034   3.748 -33.241  1.00  0.00     0.102 A 
HETATM   17  C   UNL     1      -7.172   3.969 -32.309  1.00  0.00     0.261 A 
HETATM   18  N   UNL     1      -7.874   2.855 -31.923  1.00  0.00    -0.326 N 
HETATM   19  O   UNL     1      -7.470   5.089 -31.900  1.00  0.00    -0.267 OA
HETATM   20  C   UNL     1      -7.593   1.562 -32.322  1.00  0.00     0.019 A 
HETATM   21  H   UNL     1      -8.647   3.026 -31.289  1.00  0.00     0.169 HD
HETATM   22  C   UNL     1      -8.509   0.515 -31.749  1.00  0.00     0.069 C 
HETATM   23  C   UNL     1      -6.554   1.343 -33.162  1.00  0.00    -0.003 A 
HETATM   24  C   UNL     1      -5.770   2.485 -33.623  1.00  0.00     0.037 A 
BRANCH  23  25
HETATM   25  C   UNL     1      -6.220  -0.021 -33.613  1.00  0.00    -0.024 A 
HETATM   26  C   UNL     1      -5.084  -0.670 -33.113  1.00  0.00     0.012 A 
HETATM   27  C   UNL     1      -4.769  -1.962 -33.537  1.00  0.00     0.001 A 
HETATM   28  C   UNL     1      -5.590  -2.613 -34.458  1.00  0.00     0.000 A 
HETATM   29  C   UNL     1      -6.727  -1.977 -34.953  1.00  0.00     0.001 A 
HETATM   30  C   UNL     1      -7.045  -0.684 -34.530  1.00  0.00     0.012 A 
ENDBRANCH  23  25
ENDBRANCH  13  16
ENDBRANCH  10  12
ENDBRANCH   1  10
TORSDOF 4
ENDMDL
MODEL 7
REMARK VINA RESULT:      -8.5      5.489      8.913
REMARK  4 active torsions:
REMARK  status: ('A' for Active; 'I' for Inactive)
REMARK    1  A    between atoms: C_6  and  C_7 
REMARK       I    between atoms: C_7  and  N_8 
REMARK    2  A    between atoms: N_8  and  N_9 
REMARK    3  A    between atoms: N_9  and  C_10 
REMARK    4  A    between atoms: C_21  and  C_22 
ROOT
HETATM    1  C   UNL     1     -11.151   3.052 -34.042  1.00  0.00     0.124 A 
HETATM    2  N   UNL     1     -12.002   4.012 -33.636  1.00  0.00    -0.223 NA
HETATM    3  C   UNL     1     -13.221   3.629 -33.210  1.00  0.00     0.129 A 
HETATM    4 CL   UNL     1     -14.241   4.917 -32.718  1.00  0.00    -0.062 Cl
HETATM    5  C   UNL     1     -13.656   2.323 -33.149  1.00  0.00     0.067 A 
HETATM    6  C   UNL     1     -12.763   1.340 -33.555  1.00  0.00     0.051 A 
HETATM    7  C   UNL     1     -13.141  -0.039 -33.510  1.00  0.00     0.099 C 
HETATM    8  N   UNL     1     -13.453  -1.156 -33.471  1.00  0.00    -0.191 NA
HETATM    9  C   UNL     1     -11.492   1.704 -34.002  1.00  0.00     0.068 A 
ENDROOT
BRANCH   1  10
HETATM   10  N   UNL     1      -9.866   3.470 -34.445  1.00  0.00    -0.186 NA
HETATM   11  H   UNL     1      -9.926   3.607 -35.465  1.00  0.00     0.154 HD
BRANCH  10  12
HETATM   12  N   UNL     1      -8.852   2.548 -34.115  1.00  0.00    -0.281 N 
HETATM   13  C   UNL     1      -7.579   3.037 -33.905  1.00  0.00     0.271 C 
HETATM   14  O   UNL     1      -7.259   4.195 -34.174  1.00  0.00    -0.266 OA
HETATM   15  H   UNL     1      -9.142   1.652 -33.714  1.00  0.00     0.184 HD
BRANCH  13  16
HETATM   16  C   UNL     1      -6.621   2.064 -33.307  1.00  0.00     0.102 A 
HETATM   17  C   UNL     1      -5.699   2.406 -32.191  1.00  0.00     0.261 A 
HETATM   18  N   UNL     1      -4.879   1.401 -31.744  1.00  0.00    -0.326 N 
HETATM   19  O   UNL     1      -5.667   3.530 -31.693  1.00  0.00    -0.267 OA
HETATM   20  C   UNL     1      -4.840   0.119 -32.259  1.00  0.00     0.019 A 
HETATM   21  H   UNL     1      -4.259   1.652 -30.981  1.00  0.00     0.169 HD
HETATM   22  C   UNL     1      -3.844  -0.794 -31.596  1.00  0.00     0.069 C 
HETATM   23  C   UNL     1      -5.666  -0.205 -33.281  1.00  0.00    -0.003 A 
HETATM   24  C   UNL     1      -6.574   0.814 -33.801  1.00  0.00     0.037 A 
BRANCH  23  25
HETATM   25  C   UNL     1      -5.657  -1.562 -33.861  1.00  0.00    -0.024 A 
HETATM   26  C   UNL     1      -6.862  -2.190 -34.201  1.00  0.00     0.012 A 
HETATM   27  C   UNL     1      -6.854  -3.472 -34.752  1.00  0.00     0.001 A 
HETATM   28  C   UNL     1      -5.643  -4.130 -34.971  1.00  0.00     0.000 A 
HETATM   29  C   UNL     1      -4.440  -3.507 -34.642  1.00  0.00     0.001 A 
HETATM   30  C   UNL     1      -4.445  -2.224 -34.091  1.00  0.00     0.012 A 
ENDBRANCH  23  25
ENDBRANCH  13  16
ENDBRANCH  10  12
ENDBRANCH   1  10
TORSDOF 4
ENDMDL
MODEL 8
REMARK VINA RESULT:      -8.5      6.189      9.063
REMARK  4 active torsions:
REMARK  status: ('A' for Active; 'I' for Inactive)
REMARK    1  A    between atoms: C_6  and  C_7 
REMARK       I    between atoms: C_7  and  N_8 
REMARK    2  A    between atoms: N_8  and  N_9 
REMARK    3  A    between atoms: N_9  and  C_10 
REMARK    4  A    between atoms: C_21  and  C_22 
ROOT
HETATM    1  C   UNL     1     -11.704   2.977 -34.704  1.00  0.00     0.124 A 
HETATM    2  N   UNL     1     -11.091   4.062 -35.212  1.00  0.00    -0.223 NA
HETATM    3  C   UNL     1     -11.575   5.272 -34.871  1.00  0.00     0.129 A 
HETATM    4 CL   UNL     1     -10.739   6.597 -35.568  1.00  0.00    -0.062 Cl
HETATM    5  C   UNL     1     -12.648   5.480 -34.031  1.00  0.00     0.067 A 
HETATM    6  C   UNL     1     -13.261   4.353 -33.500  1.00  0.00     0.051 A 
HETATM    7  C   UNL     1     -14.374   4.491 -32.611  1.00  0.00     0.099 C 
HETATM    8  N   UNL     1     -15.276   4.609 -31.890  1.00  0.00    -0.191 NA
HETATM    9  C   UNL     1     -12.784   3.085 -33.833  1.00  0.00     0.068 A 
ENDROOT
BRANCH   1  10
HETATM   10  N   UNL     1     -11.157   1.722 -35.040  1.00  0.00    -0.186 NA
HETATM   11  H   UNL     1     -11.734   1.026 -34.544  1.00  0.00     0.154 HD
BRANCH  10  12
HETATM   12  N   UNL     1      -9.797   1.597 -34.690  1.00  0.00    -0.281 N 
HETATM   13  C   UNL     1      -9.463   0.666 -33.727  1.00  0.00     0.271 C 
HETATM   14  O   UNL     1     -10.305   0.089 -33.040  1.00  0.00    -0.266 OA
HETATM   15  H   UNL     1      -9.103   1.919 -35.370  1.00  0.00     0.184 HD
BRANCH  13  16
HETATM   16  C   UNL     1      -8.003   0.396 -33.592  1.00  0.00     0.102 A 
HETATM   17  C   UNL     1      -7.019   1.423 -33.156  1.00  0.00     0.261 A 
HETATM   18  N   UNL     1      -5.710   1.022 -33.075  1.00  0.00    -0.326 N 
HETATM   19  O   UNL     1      -7.355   2.574 -32.885  1.00  0.00    -0.267 OA
HETATM   20  C   UNL     1      -5.247  -0.245 -33.378  1.00  0.00     0.019 A 
HETATM   21  H   UNL     1      -5.054   1.734 -32.774  1.00  0.00     0.169 HD
HETATM   22  C   UNL     1      -3.761  -0.427 -33.215  1.00  0.00     0.069 C 
HETATM   23  C   UNL     1      -6.128  -1.188 -33.786  1.00  0.00    -0.003 A 
HETATM   24  C   UNL     1      -7.541  -0.833 -33.886  1.00  0.00     0.037 A 
BRANCH  23  25
HETATM   25  C   UNL     1      -5.677  -2.552 -34.120  1.00  0.00    -0.024 A 
HETATM   26  C   UNL     1      -4.417  -2.999 -33.703  1.00  0.00     0.012 A 
HETATM   27  C   UNL     1      -3.991  -4.291 -34.016  1.00  0.00     0.001 A 
HETATM   28  C   UNL     1      -4.823  -5.143 -34.742  1.00  0.00     0.000 A 
HETATM   29  C   UNL     1      -6.082  -4.707 -35.154  1.00  0.00     0.001 A 
HETATM   30  C   UNL     1      -6.511  -3.416 -34.842  1.00  0.00     0.012 A 
ENDBRANCH  23  25
ENDBRANCH  13  16
ENDBRANCH  10  12
ENDBRANCH   1  10
TORSDOF 4
ENDMDL
MODEL 9
REMARK VINA RESULT:      -8.5      5.227      8.149
REMARK  4 active torsions:
REMARK  status: ('A' for Active; 'I' for Inactive)
REMARK    1  A    between atoms: C_6  and  C_7 
REMARK       I    between atoms: C_7  and  N_8 
REMARK    2  A    between atoms: N_8  and  N_9 
REMARK    3  A    between atoms: N_9  and  C_10 
REMARK    4  A    between atoms: C_21  and  C_22 
ROOT
HETATM    1  C   UNL     1      -9.630   5.126 -34.664  1.00  0.00     0.124 A 
HETATM    2  N   UNL     1     -10.079   3.857 -34.672  1.00  0.00    -0.223 NA
HETATM    3  C   UNL     1     -11.353   3.646 -35.054  1.00  0.00     0.129 A 
HETATM    4 CL   UNL     1     -11.842   2.003 -35.028  1.00  0.00    -0.062 Cl
HETATM    5  C   UNL     1     -12.228   4.635 -35.448  1.00  0.00     0.067 A 
HETATM    6  C   UNL     1     -11.748   5.938 -35.452  1.00  0.00     0.051 A 
HETATM    7  C   UNL     1     -12.596   7.017 -35.859  1.00  0.00     0.099 C 
HETATM    8  N   UNL     1     -13.288   7.887 -36.191  1.00  0.00    -0.191 NA
HETATM    9  C   UNL     1     -10.432   6.191 -35.062  1.00  0.00     0.068 A 
ENDROOT
BRANCH   1  10
HETATM   10  N   UNL     1      -8.282   5.321 -34.301  1.00  0.00    -0.186 NA
HETATM   11  H   UNL     1      -7.819   5.696 -35.142  1.00  0.00     0.154 HD
BRANCH  10  12
HETATM   12  N   UNL     1      -7.649   4.142 -33.855  1.00  0.00    -0.281 N 
HETATM   13  C   UNL     1      -6.271   4.093 -33.904  1.00  0.00     0.271 C 
HETATM   14  O   UNL     1      -5.596   4.940 -34.487  1.00  0.00    -0.266 OA
HETATM   15  H   UNL     1      -8.172   3.540 -33.214  1.00  0.00     0.184 HD
BRANCH  13  16
HETATM   16  C   UNL     1      -5.656   2.942 -33.183  1.00  0.00     0.102 A 
HETATM   17  C   UNL     1      -4.851   3.093 -31.941  1.00  0.00     0.261 A 
HETATM   18  N   UNL     1      -4.355   1.939 -31.388  1.00  0.00    -0.326 N 
HETATM   19  O   UNL     1      -4.636   4.192 -31.434  1.00  0.00    -0.267 OA
HETATM   20  C   UNL     1      -4.536   0.670 -31.904  1.00  0.00     0.019 A 
HETATM   21  H   UNL     1      -3.811   2.061 -30.541  1.00  0.00     0.169 HD
HETATM   22  C   UNL     1      -3.880  -0.430 -31.112  1.00  0.00     0.069 C 
HETATM   23  C   UNL     1      -5.258   0.517 -33.039  1.00  0.00    -0.003 A 
HETATM   24  C   UNL     1      -5.825   1.702 -33.676  1.00  0.00     0.037 A 
BRANCH  23  25
HETATM   25  C   UNL     1      -5.475  -0.820 -33.624  1.00  0.00    -0.024 A 
HETATM   26  C   UNL     1      -6.775  -1.278 -33.870  1.00  0.00     0.012 A 
HETATM   27  C   UNL     1      -6.981  -2.542 -34.426  1.00  0.00     0.001 A 
HETATM   28  C   UNL     1      -5.889  -3.350 -34.744  1.00  0.00     0.000 A 
HETATM   29  C   UNL     1      -4.592  -2.897 -34.509  1.00  0.00     0.001 A 
HETATM   30  C   UNL     1      -4.383  -1.633 -33.953  1.00  0.00     0.012 A 
ENDBRANCH  23  25
ENDBRANCH  13  16
ENDBRANCH  10  12
ENDBRANCH   1  10
TORSDOF 4
ENDMDL
MODEL 10
REMARK VINA RESULT:      -8.4      3.793      9.026
REMARK  4 active torsions:
REMARK  status: ('A' for Active; 'I' for Inactive)
REMARK    1  A    between atoms: C_6  and  C_7 
REMARK       I    between atoms: C_7  and  N_8 
REMARK    2  A    between atoms: N_8  and  N_9 
REMARK    3  A    between atoms: N_9  and  C_10 
REMARK    4  A    between atoms: C_21  and  C_22 
ROOT
HETATM    1  C   UNL     1      -4.855  -0.889 -33.470  1.00  0.00     0.124 A 
HETATM    2  N   UNL     1      -5.865  -0.135 -33.943  1.00  0.00    -0.223 NA
HETATM    3  C   UNL     1      -6.777  -0.733 -34.733  1.00  0.00     0.129 A 
HETATM    4 CL   UNL     1      -8.023   0.302 -35.295  1.00  0.00    -0.062 Cl
HETATM    5  C   UNL     1      -6.757  -2.066 -35.085  1.00  0.00     0.067 A 
HETATM    6  C   UNL     1      -5.719  -2.837 -34.577  1.00  0.00     0.051 A 
HETATM    7  C   UNL     1      -5.639  -4.231 -34.891  1.00  0.00     0.099 C 
HETATM    8  N   UNL     1      -5.579  -5.361 -35.148  1.00  0.00    -0.191 NA
HETATM    9  C   UNL     1      -4.758  -2.248 -33.755  1.00  0.00     0.068 A 
ENDROOT
BRANCH   1  10
HETATM   10  N   UNL     1      -3.935  -0.254 -32.613  1.00  0.00    -0.186 NA
HETATM   11  H   UNL     1      -3.949  -0.799 -31.738  1.00  0.00     0.154 HD
BRANCH  10  12
HETATM   12  N   UNL     1      -4.242   1.101 -32.372  1.00  0.00    -0.281 N 
HETATM   13  C   UNL     1      -4.711   1.443 -31.120  1.00  0.00     0.271 C 
HETATM   14  O   UNL     1      -5.047   0.604 -30.284  1.00  0.00    -0.266 OA
HETATM   15  H   UNL     1      -3.797   1.800 -32.973  1.00  0.00     0.184 HD
BRANCH  13  16
HETATM   16  C   UNL     1      -4.766   2.908 -30.845  1.00  0.00     0.102 A 
HETATM   17  C   UNL     1      -5.855   3.553 -30.065  1.00  0.00     0.261 A 
HETATM   18  N   UNL     1      -5.764   4.910 -29.892  1.00  0.00    -0.326 N 
HETATM   19  O   UNL     1      -6.793   2.908 -29.600  1.00  0.00    -0.267 OA
HETATM   20  C   UNL     1      -4.754   5.709 -30.395  1.00  0.00     0.019 A 
HETATM   21  H   UNL     1      -6.514   5.332 -29.356  1.00  0.00     0.169 HD
HETATM   22  C   UNL     1      -4.890   7.173 -30.071  1.00  0.00     0.069 C 
HETATM   23  C   UNL     1      -3.760   5.138 -31.116  1.00  0.00    -0.003 A 
HETATM   24  C   UNL     1      -3.788   3.694 -31.331  1.00  0.00     0.037 A 
BRANCH  23  25
HETATM   25  C   UNL     1      -2.664   5.954 -31.671  1.00  0.00    -0.024 A 
HETATM   26  C   UNL     1      -1.447   6.059 -30.986  1.00  0.00     0.012 A 
HETATM   27  C   UNL     1      -0.408   6.828 -31.513  1.00  0.00     0.001 A 
HETATM   28  C   UNL     1      -0.578   7.490 -32.729  1.00  0.00     0.000 A 
HETATM   29  C   UNL     1      -1.784   7.383 -33.421  1.00  0.00     0.001 A 
HETATM   30  C   UNL     1      -2.825   6.614 -32.896  1.00  0.00     0.012 A 
ENDBRANCH  23  25
ENDBRANCH  13  16
ENDBRANCH  10  12
ENDBRANCH   1  10
TORSDOF 4
ENDMDL
