MODEL 1
REMARK VINA RESULT:      -9.0      0.000      0.000
REMARK  3 active torsions:
REMARK  status: ('A' for Active; 'I' for Inactive)
REMARK    1  A    between atoms: C_3  and  C_4 
REMARK       I    between atoms: C_4  and  N_5 
REMARK    2  A    between atoms: N_5  and  C_6 
REMARK    3  A    between atoms: C_13  and  C_14 
REMARK       I    between atoms: C_14  and  N_15 
ROOT
HETATM    1  C   UNL     1      -4.435   2.720 -31.949  1.00  0.00     0.035 A 
HETATM    2  C   UNL     1      -3.262   3.479 -32.079  1.00  0.00     0.046 A 
HETATM    3  C   UNL     1      -3.124   4.682 -31.358  1.00  0.00     0.030 A 
HETATM    4  C   UNL     1      -4.175   5.105 -30.556  1.00  0.00     0.063 A 
HETATM    5  N   UNL     1      -3.759   6.284 -30.006  1.00  0.00    -0.277 N 
HETATM    6  H   UNL     1      -4.276   6.882 -29.371  1.00  0.00     0.189 HD
HETATM    7  N   UNL     1      -2.514   6.654 -30.358  1.00  0.00    -0.168 NA
HETATM    8  C   UNL     1      -2.110   5.671 -31.193  1.00  0.00     0.156 A 
HETATM    9  C   UNL     1      -5.364   4.385 -30.420  1.00  0.00     0.034 A 
HETATM   10  C   UNL     1      -5.467   3.177 -31.126  1.00  0.00     0.032 A 
ENDROOT
BRANCH   1  11
HETATM   11  N   UNL     1      -4.492   1.516 -32.675  1.00  0.00    -0.325 N 
HETATM   12  C   UNL     1      -4.041   0.264 -32.290  1.00  0.00     0.252 C 
HETATM   13  O   UNL     1      -3.479  -0.017 -31.234  1.00  0.00    -0.270 OA
HETATM   14  H   UNL     1      -4.886   1.564 -33.610  1.00  0.00     0.169 HD
BRANCH  12  15
HETATM   15  C   UNL     1      -4.217  -0.791 -33.387  1.00  0.00     0.229 C 
HETATM   16  C   UNL     1      -5.683  -0.985 -33.835  1.00  0.00     0.056 C 
HETATM   17  C   UNL     1      -6.747  -0.794 -32.756  1.00  0.00     0.018 C 
HETATM   18  C   UNL     1      -5.589  -2.418 -34.231  1.00  0.00    -0.018 A 
HETATM   19  C   UNL     1      -4.438  -2.971 -33.688  1.00  0.00     0.076 A 
HETATM   20  C   UNL     1      -6.465  -3.194 -34.969  1.00  0.00     0.010 A 
HETATM   21  O   UNL     1      -3.689  -2.077 -32.969  1.00  0.00    -0.335 OA
HETATM   22  C   UNL     1      -4.119  -4.303 -33.846  1.00  0.00     0.037 A 
HETATM   23  C   UNL     1      -4.989  -5.097 -34.595  1.00  0.00     0.003 A 
HETATM   24  C   UNL     1      -6.155  -4.545 -35.154  1.00  0.00     0.001 A 
ENDBRANCH  12  15
ENDBRANCH   1  11
BRANCH   8  25
HETATM   25  C   UNL     1      -0.771   5.680 -31.799  1.00  0.00     0.270 C 
HETATM   26  N   UNL     1      -0.539   6.741 -32.629  1.00  0.00    -0.365 N 
HETATM   27  H   UNL     1      -1.273   7.430 -32.751  1.00  0.00     0.159 HD
HETATM   28  H   UNL     1       0.362   6.849 -33.067  1.00  0.00     0.159 HD
HETATM   29  O   UNL     1       0.089   4.830 -31.591  1.00  0.00    -0.266 OA
ENDBRANCH   8  25
TORSDOF 3
ENDMDL
MODEL 2
REMARK VINA RESULT:      -8.7      1.620      2.983
REMARK  3 active torsions:
REMARK  status: ('A' for Active; 'I' for Inactive)
REMARK    1  A    between atoms: C_3  and  C_4 
REMARK       I    between atoms: C_4  and  N_5 
REMARK    2  A    between atoms: N_5  and  C_6 
REMARK    3  A    between atoms: C_13  and  C_14 
REMARK       I    between atoms: C_14  and  N_15 
ROOT
HETATM    1  C   UNL     1      -3.783   2.833 -32.202  1.00  0.00     0.035 A 
HETATM    2  C   UNL     1      -4.786   3.224 -31.301  1.00  0.00     0.046 A 
HETATM    3  C   UNL     1      -4.673   4.452 -30.618  1.00  0.00     0.030 A 
HETATM    4  C   UNL     1      -3.547   5.234 -30.832  1.00  0.00     0.063 A 
HETATM    5  N   UNL     1      -3.714   6.334 -30.039  1.00  0.00    -0.277 N 
HETATM    6  H   UNL     1      -3.079   7.118 -29.935  1.00  0.00     0.189 HD
HETATM    7  N   UNL     1      -4.867   6.350 -29.345  1.00  0.00    -0.168 NA
HETATM    8  C   UNL     1      -5.470   5.192 -29.696  1.00  0.00     0.156 A 
HETATM    9  C   UNL     1      -2.521   4.867 -31.705  1.00  0.00     0.034 A 
HETATM   10  C   UNL     1      -2.669   3.653 -32.394  1.00  0.00     0.032 A 
ENDROOT
BRANCH   1  11
HETATM   11  N   UNL     1      -3.976   1.610 -32.870  1.00  0.00    -0.325 N 
HETATM   12  C   UNL     1      -3.772   0.330 -32.382  1.00  0.00     0.252 C 
HETATM   13  O   UNL     1      -3.355   0.031 -31.265  1.00  0.00    -0.270 OA
HETATM   14  H   UNL     1      -4.275   1.660 -33.839  1.00  0.00     0.169 HD
BRANCH  12  15
HETATM   15  C   UNL     1      -4.024  -0.752 -33.438  1.00  0.00     0.229 C 
HETATM   16  C   UNL     1      -5.515  -0.927 -33.804  1.00  0.00     0.056 C 
HETATM   17  C   UNL     1      -6.519  -0.683 -32.679  1.00  0.00     0.018 C 
HETATM   18  C   UNL     1      -5.470  -2.372 -34.162  1.00  0.00    -0.018 A 
HETATM   19  C   UNL     1      -4.305  -2.935 -33.662  1.00  0.00     0.076 A 
HETATM   20  C   UNL     1      -6.399  -3.150 -34.832  1.00  0.00     0.010 A 
HETATM   21  O   UNL     1      -3.502  -2.037 -33.009  1.00  0.00    -0.335 OA
HETATM   22  C   UNL     1      -4.020  -4.277 -33.797  1.00  0.00     0.037 A 
HETATM   23  C   UNL     1      -4.944  -5.072 -34.478  1.00  0.00     0.003 A 
HETATM   24  C   UNL     1      -6.126  -4.512 -34.992  1.00  0.00     0.001 A 
ENDBRANCH  12  15
ENDBRANCH   1  11
BRANCH   8  25
HETATM   25  C   UNL     1      -6.789   4.823 -29.166  1.00  0.00     0.270 C 
HETATM   26  N   UNL     1      -6.942   5.058 -27.828  1.00  0.00    -0.365 N 
HETATM   27  H   UNL     1      -6.169   5.470 -27.318  1.00  0.00     0.159 HD
HETATM   28  H   UNL     1      -7.824   4.864 -27.381  1.00  0.00     0.159 HD
HETATM   29  O   UNL     1      -7.700   4.352 -29.841  1.00  0.00    -0.266 OA
ENDBRANCH   8  25
TORSDOF 3
ENDMDL
MODEL 3
REMARK VINA RESULT:      -8.7      2.609      8.322
REMARK  3 active torsions:
REMARK  status: ('A' for Active; 'I' for Inactive)
REMARK    1  A    between atoms: C_3  and  C_4 
REMARK       I    between atoms: C_4  and  N_5 
REMARK    2  A    between atoms: N_5  and  C_6 
REMARK    3  A    between atoms: C_13  and  C_14 
REMARK       I    between atoms: C_14  and  N_15 
ROOT
HETATM    1  C   UNL     1      -5.137   0.159 -33.390  1.00  0.00     0.035 A 
HETATM    2  C   UNL     1      -4.543  -1.103 -33.234  1.00  0.00     0.046 A 
HETATM    3  C   UNL     1      -5.107  -2.224 -33.874  1.00  0.00     0.030 A 
HETATM    4  C   UNL     1      -6.265  -2.056 -34.621  1.00  0.00     0.063 A 
HETATM    5  N   UNL     1      -6.572  -3.299 -35.099  1.00  0.00    -0.277 N 
HETATM    6  H   UNL     1      -7.362  -3.555 -35.680  1.00  0.00     0.189 HD
HETATM    7  N   UNL     1      -5.698  -4.261 -34.750  1.00  0.00    -0.168 NA
HETATM    8  C   UNL     1      -4.786  -3.609 -33.994  1.00  0.00     0.156 A 
HETATM    9  C   UNL     1      -6.893  -0.820 -34.779  1.00  0.00     0.034 A 
HETATM   10  C   UNL     1      -6.299   0.287 -34.155  1.00  0.00     0.032 A 
ENDROOT
BRANCH   1  11
HETATM   11  N   UNL     1      -4.504   1.239 -32.747  1.00  0.00    -0.325 N 
HETATM   12  C   UNL     1      -4.747   1.739 -31.478  1.00  0.00     0.252 C 
HETATM   13  O   UNL     1      -5.592   1.334 -30.683  1.00  0.00    -0.270 OA
HETATM   14  H   UNL     1      -3.799   1.739 -33.280  1.00  0.00     0.169 HD
BRANCH  12  15
HETATM   15  C   UNL     1      -3.899   2.974 -31.157  1.00  0.00     0.229 C 
HETATM   16  C   UNL     1      -4.679   4.305 -31.248  1.00  0.00     0.056 C 
HETATM   17  C   UNL     1      -5.785   4.367 -32.299  1.00  0.00     0.018 C 
HETATM   18  C   UNL     1      -3.540   5.185 -31.631  1.00  0.00    -0.018 A 
HETATM   19  C   UNL     1      -2.485   4.404 -32.080  1.00  0.00     0.076 A 
HETATM   20  C   UNL     1      -3.448   6.566 -31.636  1.00  0.00     0.010 A 
HETATM   21  O   UNL     1      -2.742   3.059 -32.031  1.00  0.00    -0.335 OA
HETATM   22  C   UNL     1      -1.313   4.954 -32.553  1.00  0.00     0.037 A 
HETATM   23  C   UNL     1      -1.202   6.346 -32.555  1.00  0.00     0.003 A 
HETATM   24  C   UNL     1      -2.264   7.146 -32.099  1.00  0.00     0.001 A 
ENDBRANCH  12  15
ENDBRANCH   1  11
BRANCH   8  25
HETATM   25  C   UNL     1      -3.627  -4.305 -33.420  1.00  0.00     0.270 C 
HETATM   26  N   UNL     1      -3.163  -5.343 -34.180  1.00  0.00    -0.365 N 
HETATM   27  H   UNL     1      -3.624  -5.542 -35.060  1.00  0.00     0.159 HD
HETATM   28  H   UNL     1      -2.351  -5.860 -33.881  1.00  0.00     0.159 HD
HETATM   29  O   UNL     1      -3.091  -3.999 -32.359  1.00  0.00    -0.266 OA
ENDBRANCH   8  25
TORSDOF 3
ENDMDL
MODEL 4
REMARK VINA RESULT:      -8.4      4.712      7.585
REMARK  3 active torsions:
REMARK  status: ('A' for Active; 'I' for Inactive)
REMARK    1  A    between atoms: C_3  and  C_4 
REMARK       I    between atoms: C_4  and  N_5 
REMARK    2  A    between atoms: N_5  and  C_6 
REMARK    3  A    between atoms: C_13  and  C_14 
REMARK       I    between atoms: C_14  and  N_15 
ROOT
HETATM    1  C   UNL     1      -6.819   0.446 -32.485  1.00  0.00     0.035 A 
HETATM    2  C   UNL     1      -6.160  -0.642 -33.079  1.00  0.00     0.046 A 
HETATM    3  C   UNL     1      -4.919  -1.071 -32.568  1.00  0.00     0.030 A 
HETATM    4  C   UNL     1      -4.360  -0.380 -31.502  1.00  0.00     0.063 A 
HETATM    5  N   UNL     1      -3.176  -1.010 -31.242  1.00  0.00    -0.277 N 
HETATM    6  H   UNL     1      -2.496  -0.770 -30.530  1.00  0.00     0.189 HD
HETATM    7  N   UNL     1      -2.926  -2.071 -32.031  1.00  0.00    -0.168 NA
HETATM    8  C   UNL     1      -3.997  -2.121 -32.854  1.00  0.00     0.156 A 
HETATM    9  C   UNL     1      -4.978   0.718 -30.900  1.00  0.00     0.034 A 
HETATM   10  C   UNL     1      -6.226   1.111 -31.409  1.00  0.00     0.032 A 
ENDROOT
BRANCH   1  11
HETATM   11  N   UNL     1      -8.068   0.801 -33.028  1.00  0.00    -0.325 N 
HETATM   12  C   UNL     1      -8.403   1.957 -33.714  1.00  0.00     0.252 C 
HETATM   13  O   UNL     1      -7.660   2.906 -33.954  1.00  0.00    -0.270 OA
HETATM   14  H   UNL     1      -8.833   0.149 -32.881  1.00  0.00     0.169 HD
BRANCH  12  15
HETATM   15  C   UNL     1      -9.888   2.012 -34.089  1.00  0.00     0.229 C 
HETATM   16  C   UNL     1     -10.693   3.060 -33.289  1.00  0.00     0.056 C 
HETATM   17  C   UNL     1     -10.240   3.303 -31.851  1.00  0.00     0.018 C 
HETATM   18  C   UNL     1     -12.012   2.369 -33.314  1.00  0.00    -0.018 A 
HETATM   19  C   UNL     1     -11.829   1.039 -33.665  1.00  0.00     0.076 A 
HETATM   20  C   UNL     1     -13.273   2.850 -33.007  1.00  0.00     0.010 A 
HETATM   21  O   UNL     1     -10.521   0.717 -33.918  1.00  0.00    -0.335 OA
HETATM   22  C   UNL     1     -12.874   0.142 -33.716  1.00  0.00     0.037 A 
HETATM   23  C   UNL     1     -14.153   0.615 -33.417  1.00  0.00     0.003 A 
HETATM   24  C   UNL     1     -14.351   1.961 -33.064  1.00  0.00     0.001 A 
ENDBRANCH  12  15
ENDBRANCH   1  11
BRANCH   8  25
HETATM   25  C   UNL     1      -4.132  -3.167 -33.876  1.00  0.00     0.270 C 
HETATM   26  N   UNL     1      -3.633  -4.383 -33.502  1.00  0.00    -0.365 N 
HETATM   27  H   UNL     1      -3.234  -4.479 -32.576  1.00  0.00     0.159 HD
HETATM   28  H   UNL     1      -3.708  -5.171 -34.127  1.00  0.00     0.159 HD
HETATM   29  O   UNL     1      -4.653  -3.000 -34.975  1.00  0.00    -0.266 OA
ENDBRANCH   8  25
TORSDOF 3
ENDMDL
MODEL 5
REMARK VINA RESULT:      -8.4      5.756      7.080
REMARK  3 active torsions:
REMARK  status: ('A' for Active; 'I' for Inactive)
REMARK    1  A    between atoms: C_3  and  C_4 
REMARK       I    between atoms: C_4  and  N_5 
REMARK    2  A    between atoms: N_5  and  C_6 
REMARK    3  A    between atoms: C_13  and  C_14 
REMARK       I    between atoms: C_14  and  N_15 
ROOT
HETATM    1  C   UNL     1     -10.788   1.873 -34.109  1.00  0.00     0.035 A 
HETATM    2  C   UNL     1     -10.384   3.160 -34.497  1.00  0.00     0.046 A 
HETATM    3  C   UNL     1     -11.354   4.117 -34.857  1.00  0.00     0.030 A 
HETATM    4  C   UNL     1     -12.692   3.748 -34.851  1.00  0.00     0.063 A 
HETATM    5  N   UNL     1     -13.377   4.862 -35.250  1.00  0.00    -0.277 N 
HETATM    6  H   UNL     1     -14.379   4.957 -35.367  1.00  0.00     0.189 HD
HETATM    7  N   UNL     1     -12.602   5.935 -35.489  1.00  0.00    -0.168 NA
HETATM    8  C   UNL     1     -11.349   5.489 -35.249  1.00  0.00     0.156 A 
HETATM    9  C   UNL     1     -13.126   2.471 -34.490  1.00  0.00     0.034 A 
HETATM   10  C   UNL     1     -12.145   1.543 -34.109  1.00  0.00     0.032 A 
ENDROOT
BRANCH   1  11
HETATM   11  N   UNL     1      -9.769   0.978 -33.734  1.00  0.00    -0.325 N 
HETATM   12  C   UNL     1      -8.956   1.030 -32.613  1.00  0.00     0.252 C 
HETATM   13  O   UNL     1      -8.967   1.897 -31.743  1.00  0.00    -0.270 OA
HETATM   14  H   UNL     1      -9.577   0.209 -34.371  1.00  0.00     0.169 HD
BRANCH  12  15
HETATM   15  C   UNL     1      -7.911  -0.090 -32.589  1.00  0.00     0.229 C 
HETATM   16  C   UNL     1      -6.460   0.408 -32.774  1.00  0.00     0.056 C 
HETATM   17  C   UNL     1      -6.278   1.628 -33.674  1.00  0.00     0.018 C 
HETATM   18  C   UNL     1      -5.906  -0.811 -33.425  1.00  0.00    -0.018 A 
HETATM   19  C   UNL     1      -6.948  -1.603 -33.884  1.00  0.00     0.076 A 
HETATM   20  C   UNL     1      -4.590  -1.180 -33.645  1.00  0.00     0.010 A 
HETATM   21  O   UNL     1      -8.188  -1.090 -33.605  1.00  0.00    -0.335 OA
HETATM   22  C   UNL     1      -6.731  -2.774 -34.578  1.00  0.00     0.037 A 
HETATM   23  C   UNL     1      -5.409  -3.163 -34.800  1.00  0.00     0.003 A 
HETATM   24  C   UNL     1      -4.345  -2.371 -34.335  1.00  0.00     0.001 A 
ENDBRANCH  12  15
ENDBRANCH   1  11
BRANCH   8  25
HETATM   25  C   UNL     1     -10.181   6.371 -35.377  1.00  0.00     0.270 C 
HETATM   26  N   UNL     1      -9.535   6.618 -34.198  1.00  0.00    -0.365 N 
HETATM   27  H   UNL     1      -9.883   6.180 -33.353  1.00  0.00     0.159 HD
HETATM   28  H   UNL     1      -8.703   7.188 -34.191  1.00  0.00     0.159 HD
HETATM   29  O   UNL     1      -9.787   6.851 -36.435  1.00  0.00    -0.266 OA
ENDBRANCH   8  25
TORSDOF 3
ENDMDL
MODEL 6
REMARK VINA RESULT:      -8.3      2.875      8.496
REMARK  3 active torsions:
REMARK  status: ('A' for Active; 'I' for Inactive)
REMARK    1  A    between atoms: C_3  and  C_4 
REMARK       I    between atoms: C_4  and  N_5 
REMARK    2  A    between atoms: N_5  and  C_6 
REMARK    3  A    between atoms: C_13  and  C_14 
REMARK       I    between atoms: C_14  and  N_15 
ROOT
HETATM    1  C   UNL     1      -4.100   0.933 -32.747  1.00  0.00     0.035 A 
HETATM    2  C   UNL     1      -5.472   0.870 -33.037  1.00  0.00     0.046 A 
HETATM    3  C   UNL     1      -6.035  -0.341 -33.489  1.00  0.00     0.030 A 
HETATM    4  C   UNL     1      -5.205  -1.439 -33.668  1.00  0.00     0.063 A 
HETATM    5  N   UNL     1      -6.021  -2.440 -34.115  1.00  0.00    -0.277 N 
HETATM    6  H   UNL     1      -5.752  -3.387 -34.358  1.00  0.00     0.189 HD
HETATM    7  N   UNL     1      -7.318  -2.098 -34.218  1.00  0.00    -0.168 NA
HETATM    8  C   UNL     1      -7.341  -0.803 -33.833  1.00  0.00     0.156 A 
HETATM    9  C   UNL     1      -3.834  -1.405 -33.408  1.00  0.00     0.034 A 
HETATM   10  C   UNL     1      -3.301  -0.197 -32.933  1.00  0.00     0.032 A 
ENDROOT
BRANCH   1  11
HETATM   11  N   UNL     1      -3.612   2.165 -32.272  1.00  0.00    -0.325 N 
HETATM   12  C   UNL     1      -3.983   3.439 -32.667  1.00  0.00     0.252 C 
HETATM   13  O   UNL     1      -4.804   3.725 -33.535  1.00  0.00    -0.270 OA
HETATM   14  H   UNL     1      -2.876   2.126 -31.573  1.00  0.00     0.169 HD
BRANCH  12  15
HETATM   15  C   UNL     1      -3.172   4.534 -31.966  1.00  0.00     0.229 C 
HETATM   16  C   UNL     1      -2.514   5.539 -32.939  1.00  0.00     0.056 C 
HETATM   17  C   UNL     1      -2.069   4.979 -34.288  1.00  0.00     0.018 C 
HETATM   18  C   UNL     1      -1.333   5.891 -32.102  1.00  0.00    -0.018 A 
HETATM   19  C   UNL     1      -1.175   4.941 -31.104  1.00  0.00     0.076 A 
HETATM   20  C   UNL     1      -0.433   6.935 -32.231  1.00  0.00     0.010 A 
HETATM   21  O   UNL     1      -2.136   3.963 -31.124  1.00  0.00    -0.335 OA
HETATM   22  C   UNL     1      -0.128   4.982 -30.209  1.00  0.00     0.037 A 
HETATM   23  C   UNL     1       0.783   6.034 -30.321  1.00  0.00     0.003 A 
HETATM   24  C   UNL     1       0.631   7.005 -31.326  1.00  0.00     0.001 A 
ENDBRANCH  12  15
ENDBRANCH   1  11
BRANCH   8  25
HETATM   25  C   UNL     1      -8.594  -0.039 -33.780  1.00  0.00     0.270 C 
HETATM   26  N   UNL     1      -8.794   0.784 -34.853  1.00  0.00    -0.365 N 
HETATM   27  H   UNL     1      -8.098   0.798 -35.589  1.00  0.00     0.159 HD
HETATM   28  H   UNL     1      -9.642   1.326 -34.920  1.00  0.00     0.159 HD
HETATM   29  O   UNL     1      -9.417  -0.117 -32.872  1.00  0.00    -0.266 OA
ENDBRANCH   8  25
TORSDOF 3
ENDMDL
MODEL 7
REMARK VINA RESULT:      -8.2      3.074      9.101
REMARK  3 active torsions:
REMARK  status: ('A' for Active; 'I' for Inactive)
REMARK    1  A    between atoms: C_3  and  C_4 
REMARK       I    between atoms: C_4  and  N_5 
REMARK    2  A    between atoms: N_5  and  C_6 
REMARK    3  A    between atoms: C_13  and  C_14 
REMARK       I    between atoms: C_14  and  N_15 
ROOT
HETATM    1  C   UNL     1      -3.702   4.433 -32.149  1.00  0.00     0.035 A 
HETATM    2  C   UNL     1      -3.346   3.123 -31.794  1.00  0.00     0.046 A 
HETATM    3  C   UNL     1      -4.146   2.042 -32.217  1.00  0.00     0.030 A 
HETATM    4  C   UNL     1      -5.294   2.307 -32.951  1.00  0.00     0.063 A 
HETATM    5  N   UNL     1      -5.855   1.086 -33.199  1.00  0.00    -0.277 N 
HETATM    6  H   UNL     1      -6.712   0.897 -33.708  1.00  0.00     0.189 HD
HETATM    7  N   UNL     1      -5.157   0.044 -32.713  1.00  0.00    -0.168 NA
HETATM    8  C   UNL     1      -4.098   0.621 -32.104  1.00  0.00     0.156 A 
HETATM    9  C   UNL     1      -5.688   3.599 -33.304  1.00  0.00     0.034 A 
HETATM   10  C   UNL     1      -4.861   4.657 -32.895  1.00  0.00     0.032 A 
ENDROOT
BRANCH   1  11
HETATM   11  N   UNL     1      -2.842   5.460 -31.718  1.00  0.00    -0.325 N 
HETATM   12  C   UNL     1      -1.611   5.819 -32.242  1.00  0.00     0.252 C 
HETATM   13  O   UNL     1      -1.031   5.278 -33.180  1.00  0.00    -0.270 OA
HETATM   14  H   UNL     1      -3.137   5.993 -30.905  1.00  0.00     0.169 HD
BRANCH  12  15
HETATM   15  C   UNL     1      -0.939   6.948 -31.453  1.00  0.00     0.229 C 
HETATM   16  C   UNL     1       0.253   6.478 -30.589  1.00  0.00     0.056 C 
HETATM   17  C   UNL     1       0.148   5.071 -30.005  1.00  0.00     0.018 C 
HETATM   18  C   UNL     1       0.141   7.502 -29.512  1.00  0.00    -0.018 A 
HETATM   19  C   UNL     1      -1.110   8.099 -29.572  1.00  0.00     0.076 A 
HETATM   20  C   UNL     1       1.044   7.854 -28.524  1.00  0.00     0.010 A 
HETATM   21  O   UNL     1      -1.892   7.627 -30.593  1.00  0.00    -0.335 OA
HETATM   22  C   UNL     1      -1.514   9.050 -28.660  1.00  0.00     0.037 A 
HETATM   23  C   UNL     1      -0.611   9.421 -27.662  1.00  0.00     0.003 A 
HETATM   24  C   UNL     1       0.661   8.826 -27.595  1.00  0.00     0.001 A 
ENDBRANCH  12  15
ENDBRANCH   1  11
BRANCH   8  25
HETATM   25  C   UNL     1      -3.057  -0.182 -31.448  1.00  0.00     0.270 C 
HETATM   26  N   UNL     1      -3.139  -1.523 -31.705  1.00  0.00    -0.365 N 
HETATM   27  H   UNL     1      -3.874  -1.854 -32.320  1.00  0.00     0.159 HD
HETATM   28  H   UNL     1      -2.450  -2.151 -31.324  1.00  0.00     0.159 HD
HETATM   29  O   UNL     1      -2.171   0.279 -30.735  1.00  0.00    -0.266 OA
ENDBRANCH   8  25
TORSDOF 3
ENDMDL
MODEL 8
REMARK VINA RESULT:      -8.1      5.518      7.833
REMARK  3 active torsions:
REMARK  status: ('A' for Active; 'I' for Inactive)
REMARK    1  A    between atoms: C_3  and  C_4 
REMARK       I    between atoms: C_4  and  N_5 
REMARK    2  A    between atoms: N_5  and  C_6 
REMARK    3  A    between atoms: C_13  and  C_14 
REMARK       I    between atoms: C_14  and  N_15 
ROOT
HETATM    1  C   UNL     1      -0.658   7.183 -28.711  1.00  0.00     0.035 A 
HETATM    2  C   UNL     1      -1.498   7.409 -27.609  1.00  0.00     0.046 A 
HETATM    3  C   UNL     1      -1.057   8.229 -26.551  1.00  0.00     0.030 A 
HETATM    4  C   UNL     1       0.219   8.771 -26.612  1.00  0.00     0.063 A 
HETATM    5  N   UNL     1       0.361   9.495 -25.461  1.00  0.00    -0.277 N 
HETATM    6  H   UNL     1       1.174  10.023 -25.164  1.00  0.00     0.189 HD
HETATM    7  N   UNL     1      -0.725   9.495 -24.666  1.00  0.00    -0.168 NA
HETATM    8  C   UNL     1      -1.609   8.717 -25.329  1.00  0.00     0.156 A 
HETATM    9  C   UNL     1       1.088   8.551 -27.682  1.00  0.00     0.034 A 
HETATM   10  C   UNL     1       0.618   7.753 -28.736  1.00  0.00     0.032 A 
ENDROOT
BRANCH   1  11
HETATM   11  N   UNL     1      -1.173   6.378 -29.743  1.00  0.00    -0.325 N 
HETATM   12  C   UNL     1      -0.600   5.257 -30.319  1.00  0.00     0.252 C 
HETATM   13  O   UNL     1       0.494   4.771 -30.041  1.00  0.00    -0.270 OA
HETATM   14  H   UNL     1      -2.064   6.661 -30.142  1.00  0.00     0.169 HD
BRANCH  12  15
HETATM   15  C   UNL     1      -1.437   4.690 -31.470  1.00  0.00     0.229 C 
HETATM   16  C   UNL     1      -1.062   5.264 -32.854  1.00  0.00     0.056 C 
HETATM   17  C   UNL     1      -0.587   6.716 -32.875  1.00  0.00     0.018 C 
HETATM   18  C   UNL     1      -2.401   5.142 -33.497  1.00  0.00    -0.018 A 
HETATM   19  C   UNL     1      -3.367   4.960 -32.518  1.00  0.00     0.076 A 
HETATM   20  C   UNL     1      -2.756   5.232 -34.832  1.00  0.00     0.010 A 
HETATM   21  O   UNL     1      -2.855   4.912 -31.248  1.00  0.00    -0.335 OA
HETATM   22  C   UNL     1      -4.709   4.868 -32.818  1.00  0.00     0.037 A 
HETATM   23  C   UNL     1      -5.082   4.948 -34.161  1.00  0.00     0.003 A 
HETATM   24  C   UNL     1      -4.111   5.129 -35.162  1.00  0.00     0.001 A 
ENDBRANCH  12  15
ENDBRANCH   1  11
BRANCH   8  25
HETATM   25  C   UNL     1      -2.959   8.468 -24.804  1.00  0.00     0.270 C 
HETATM   26  N   UNL     1      -3.019   8.364 -23.442  1.00  0.00    -0.365 N 
HETATM   27  H   UNL     1      -2.164   8.477 -22.909  1.00  0.00     0.159 HD
HETATM   28  H   UNL     1      -3.907   8.224 -22.987  1.00  0.00     0.159 HD
HETATM   29  O   UNL     1      -3.966   8.368 -25.498  1.00  0.00    -0.266 OA
ENDBRANCH   8  25
TORSDOF 3
ENDMDL
MODEL 9
REMARK VINA RESULT:      -8.1      2.394      8.605
REMARK  3 active torsions:
REMARK  status: ('A' for Active; 'I' for Inactive)
REMARK    1  A    between atoms: C_3  and  C_4 
REMARK       I    between atoms: C_4  and  N_5 
REMARK    2  A    between atoms: N_5  and  C_6 
REMARK    3  A    between atoms: C_13  and  C_14 
REMARK       I    between atoms: C_14  and  N_15 
ROOT
HETATM    1  C   UNL     1      -5.079   2.104 -32.793  1.00  0.00     0.035 A 
HETATM    2  C   UNL     1      -4.691   0.756 -32.829  1.00  0.00     0.046 A 
HETATM    3  C   UNL     1      -5.396  -0.153 -33.644  1.00  0.00     0.030 A 
HETATM    4  C   UNL     1      -6.485   0.307 -34.371  1.00  0.00     0.063 A 
HETATM    5  N   UNL     1      -6.960  -0.785 -35.041  1.00  0.00    -0.277 N 
HETATM    6  H   UNL     1      -7.758  -0.822 -35.666  1.00  0.00     0.189 HD
HETATM    7  N   UNL     1      -6.257  -1.913 -34.836  1.00  0.00    -0.168 NA
HETATM    8  C   UNL     1      -5.286  -1.536 -33.975  1.00  0.00     0.156 A 
HETATM    9  C   UNL     1      -6.910   1.637 -34.342  1.00  0.00     0.034 A 
HETATM   10  C   UNL     1      -6.177   2.528 -33.545  1.00  0.00     0.032 A 
ENDROOT
BRANCH   1  11
HETATM   11  N   UNL     1      -4.313   2.960 -31.980  1.00  0.00    -0.325 N 
HETATM   12  C   UNL     1      -3.148   3.633 -32.309  1.00  0.00     0.252 C 
HETATM   13  O   UNL     1      -2.553   3.582 -33.383  1.00  0.00    -0.270 OA
HETATM   14  H   UNL     1      -4.629   3.086 -31.023  1.00  0.00     0.169 HD
BRANCH  12  15
HETATM   15  C   UNL     1      -2.565   4.418 -31.129  1.00  0.00     0.229 C 
HETATM   16  C   UNL     1      -3.185   5.822 -30.949  1.00  0.00     0.056 C 
HETATM   17  C   UNL     1      -3.614   6.538 -32.227  1.00  0.00     0.018 C 
HETATM   18  C   UNL     1      -2.000   6.493 -30.344  1.00  0.00    -0.018 A 
HETATM   19  C   UNL     1      -0.868   5.723 -30.573  1.00  0.00     0.076 A 
HETATM   20  C   UNL     1      -1.907   7.707 -29.686  1.00  0.00     0.010 A 
HETATM   21  O   UNL     1      -1.126   4.562 -31.253  1.00  0.00    -0.335 OA
HETATM   22  C   UNL     1       0.387   6.126 -30.171  1.00  0.00     0.037 A 
HETATM   23  C   UNL     1       0.496   7.345 -29.499  1.00  0.00     0.003 A 
HETATM   24  C   UNL     1      -0.645   8.130 -29.258  1.00  0.00     0.001 A 
ENDBRANCH  12  15
ENDBRANCH   1  11
BRANCH   8  25
HETATM   25  C   UNL     1      -4.269  -2.484 -33.500  1.00  0.00     0.270 C 
HETATM   26  N   UNL     1      -4.102  -3.576 -34.306  1.00  0.00    -0.365 N 
HETATM   27  H   UNL     1      -4.658  -3.644 -35.151  1.00  0.00     0.159 HD
HETATM   28  H   UNL     1      -3.404  -4.266 -34.078  1.00  0.00     0.159 HD
HETATM   29  O   UNL     1      -3.603  -2.334 -32.481  1.00  0.00    -0.266 OA
ENDBRANCH   8  25
TORSDOF 3
ENDMDL
MODEL 10
REMARK VINA RESULT:      -8.0      4.614      8.005
REMARK  3 active torsions:
REMARK  status: ('A' for Active; 'I' for Inactive)
REMARK    1  A    between atoms: C_3  and  C_4 
REMARK       I    between atoms: C_4  and  N_5 
REMARK    2  A    between atoms: N_5  and  C_6 
REMARK    3  A    between atoms: C_13  and  C_14 
REMARK       I    between atoms: C_14  and  N_15 
ROOT
HETATM    1  C   UNL     1      -5.582   0.246 -33.014  1.00  0.00     0.035 A 
HETATM    2  C   UNL     1      -5.343  -1.038 -33.529  1.00  0.00     0.046 A 
HETATM    3  C   UNL     1      -4.356  -1.854 -32.939  1.00  0.00     0.030 A 
HETATM    4  C   UNL     1      -3.618  -1.349 -31.878  1.00  0.00     0.063 A 
HETATM    5  N   UNL     1      -2.749  -2.346 -31.535  1.00  0.00    -0.277 N 
HETATM    6  H   UNL     1      -2.049  -2.325 -30.801  1.00  0.00     0.189 HD
HETATM    7  N   UNL     1      -2.875  -3.470 -32.264  1.00  0.00    -0.168 NA
HETATM    8  C   UNL     1      -3.866  -3.179 -33.135  1.00  0.00     0.156 A 
HETATM    9  C   UNL     1      -3.816  -0.070 -31.355  1.00  0.00     0.034 A 
HETATM   10  C   UNL     1      -4.822   0.714 -31.940  1.00  0.00     0.032 A 
ENDROOT
BRANCH   1  11
HETATM   11  N   UNL     1      -6.602   0.993 -33.632  1.00  0.00    -0.325 N 
HETATM   12  C   UNL     1      -7.955   1.000 -33.336  1.00  0.00     0.252 C 
HETATM   13  O   UNL     1      -8.519   0.323 -32.480  1.00  0.00    -0.270 OA
HETATM   14  H   UNL     1      -6.327   1.584 -34.412  1.00  0.00     0.169 HD
BRANCH  12  15
HETATM   15  C   UNL     1      -8.762   1.896 -34.281  1.00  0.00     0.229 C 
HETATM   16  C   UNL     1      -8.701   3.397 -33.919  1.00  0.00     0.056 C 
HETATM   17  C   UNL     1      -8.592   3.727 -32.432  1.00  0.00     0.018 C 
HETATM   18  C   UNL     1     -10.037   3.791 -34.447  1.00  0.00    -0.018 A 
HETATM   19  C   UNL     1     -10.809   2.654 -34.638  1.00  0.00     0.076 A 
HETATM   20  C   UNL     1     -10.558   5.049 -34.695  1.00  0.00     0.010 A 
HETATM   21  O   UNL     1     -10.155   1.491 -34.328  1.00  0.00    -0.335 OA
HETATM   22  C   UNL     1     -12.117   2.719 -35.071  1.00  0.00     0.037 A 
HETATM   23  C   UNL     1     -12.653   3.981 -35.334  1.00  0.00     0.003 A 
HETATM   24  C   UNL     1     -11.878   5.139 -35.147  1.00  0.00     0.001 A 
ENDBRANCH  12  15
ENDBRANCH   1  11
BRANCH   8  25
HETATM   25  C   UNL     1      -4.339  -4.164 -34.117  1.00  0.00     0.270 C 
HETATM   26  N   UNL     1      -3.673  -5.357 -34.079  1.00  0.00    -0.365 N 
HETATM   27  H   UNL     1      -2.939  -5.480 -33.391  1.00  0.00     0.159 HD
HETATM   28  H   UNL     1      -3.948  -6.106 -34.695  1.00  0.00     0.159 HD
HETATM   29  O   UNL     1      -5.255  -3.968 -34.910  1.00  0.00    -0.266 OA
ENDBRANCH   8  25
TORSDOF 3
ENDMDL
