MODEL 1
REMARK VINA RESULT:      -9.9      0.000      0.000
REMARK  7 active torsions:
REMARK  status: ('A' for Active; 'I' for Inactive)
REMARK       I    between atoms: C_2  and  N_3 
REMARK    1  A    between atoms: N_3  and  C_4 
REMARK    2  A    between atoms: C_7  and  N_8 
REMARK       I    between atoms: N_8  and  C_9 
REMARK    3  A    between atoms: C_9  and  C_10 
REMARK    4  A    between atoms: C_10  and  S_11 
REMARK    5  A    between atoms: S_11  and  C_12 
REMARK    6  A    between atoms: N_13  and  N_14 
REMARK    7  A    between atoms: C_20  and  C_21 
ROOT
HETATM    1  C   UNL     1      -3.360   4.831 -32.941  1.00  0.00     0.206 A 
HETATM    2  N   UNL     1      -2.748   5.789 -32.171  1.00  0.00    -0.234 N 
HETATM    3  C   UNL     1      -1.943   5.085 -31.300  1.00  0.00     0.197 A 
HETATM    4  C   UNL     1      -1.074   5.616 -30.305  1.00  0.00     0.101 A 
HETATM    5  N   UNL     1      -0.069   4.874 -29.759  1.00  0.00    -0.274 N 
HETATM    6  H   UNL     1       0.175   3.913 -29.976  1.00  0.00     0.189 HD
HETATM    7  N   UNL     1       0.663   5.535 -28.847  1.00  0.00    -0.174 NA
HETATM    8  C   UNL     1       0.077   6.741 -28.753  1.00  0.00     0.089 A 
HETATM    9  C   UNL     1      -1.008   6.836 -29.671  1.00  0.00     0.069 A 
HETATM   10  N   UNL     1      -2.070   3.791 -31.543  1.00  0.00    -0.125 NA
HETATM   11  N   UNL     1      -2.988   3.632 -32.556  1.00  0.00    -0.121 NA
ENDROOT
BRANCH   1  12
HETATM   12  S   UNL     1      -4.407   5.209 -34.266  1.00  0.00    -0.080 SA
BRANCH  12  13
HETATM   13  C   UNL     1      -6.027   5.208 -33.439  1.00  0.00     0.185 C 
BRANCH  13  14
HETATM   14  C   UNL     1      -6.763   3.899 -33.700  1.00  0.00     0.231 C 
HETATM   15  N   UNL     1      -5.924   2.797 -33.687  1.00  0.00    -0.327 N 
HETATM   16  H   UNL     1      -4.926   2.995 -33.648  1.00  0.00     0.169 HD
HETATM   17  O   UNL     1      -7.972   3.889 -33.915  1.00  0.00    -0.272 OA
BRANCH  15  18
HETATM   18  C   UNL     1      -6.258   1.452 -33.931  1.00  0.00     0.034 A 
HETATM   19  C   UNL     1      -6.932   1.002 -35.063  1.00  0.00     0.032 A 
HETATM   20  C   UNL     1      -7.187  -0.366 -35.246  1.00  0.00     0.032 A 
HETATM   21  C   UNL     1      -6.776  -1.303 -34.300  1.00  0.00     0.034 A 
HETATM   22  C   UNL     1      -6.145  -0.842 -33.140  1.00  0.00     0.032 A 
HETATM   23  C   UNL     1      -5.876   0.519 -32.963  1.00  0.00     0.032 A 
BRANCH  21  24
HETATM   24  N   UNL     1      -6.980  -2.689 -34.394  1.00  0.00    -0.328 N 
HETATM   25  C   UNL     1      -6.160  -3.732 -34.705  1.00  0.00     0.218 C 
HETATM   26  C   UNL     1      -4.676  -3.550 -34.836  1.00  0.00     0.117 C 
HETATM   27  O   UNL     1      -6.663  -4.853 -34.829  1.00  0.00    -0.274 OA
HETATM   28  H   UNL     1      -7.913  -3.022 -34.175  1.00  0.00     0.169 HD
ENDBRANCH  21  24
ENDBRANCH  15  18
ENDBRANCH  13  14
ENDBRANCH  12  13
ENDBRANCH   1  12
BRANCH   2  29
HETATM   29  N   UNL     1      -2.856   7.221 -32.309  1.00  0.00    -0.239 NA
HETATM   30  H   UNL     1      -2.169   7.561 -32.984  1.00  0.00     0.143 HD
HETATM   31  H   UNL     1      -2.612   7.677 -31.430  1.00  0.00     0.143 HD
ENDBRANCH   2  29
BRANCH   8  32
HETATM   32  C   UNL     1       0.551   7.753 -27.804  1.00  0.00    -0.006 A 
HETATM   33  C   UNL     1       1.536   7.432 -26.857  1.00  0.00     0.015 A 
HETATM   34  C   UNL     1       1.987   8.387 -25.941  1.00  0.00     0.024 A 
HETATM   35  C   UNL     1       1.449   9.671 -25.961  1.00  0.00     0.034 A 
HETATM   36 CL   UNL     1       1.993  10.848 -24.830  1.00  0.00    -0.084 Cl
HETATM   37  C   UNL     1       0.469  10.008 -26.892  1.00  0.00     0.024 A 
HETATM   38  C   UNL     1       0.022   9.052 -27.810  1.00  0.00     0.015 A 
ENDBRANCH   8  32
TORSDOF 7
ENDMDL
MODEL 2
REMARK VINA RESULT:      -9.6      5.938     10.206
REMARK  7 active torsions:
REMARK  status: ('A' for Active; 'I' for Inactive)
REMARK       I    between atoms: C_2  and  N_3 
REMARK    1  A    between atoms: N_3  and  C_4 
REMARK    2  A    between atoms: C_7  and  N_8 
REMARK       I    between atoms: N_8  and  C_9 
REMARK    3  A    between atoms: C_9  and  C_10 
REMARK    4  A    between atoms: C_10  and  S_11 
REMARK    5  A    between atoms: S_11  and  C_12 
REMARK    6  A    between atoms: N_13  and  N_14 
REMARK    7  A    between atoms: C_20  and  C_21 
ROOT
HETATM    1  C   UNL     1     -10.949   3.256 -32.210  1.00  0.00     0.206 A 
HETATM    2  N   UNL     1      -9.950   2.317 -32.132  1.00  0.00    -0.234 N 
HETATM    3  C   UNL     1      -9.646   2.011 -33.442  1.00  0.00     0.197 A 
HETATM    4  C   UNL     1      -8.654   1.103 -33.909  1.00  0.00     0.101 A 
HETATM    5  N   UNL     1      -8.190   1.143 -35.191  1.00  0.00    -0.274 N 
HETATM    6  H   UNL     1      -8.472   1.781 -35.928  1.00  0.00     0.189 HD
HETATM    7  N   UNL     1      -7.245   0.227 -35.458  1.00  0.00    -0.174 NA
HETATM    8  C   UNL     1      -7.127  -0.477 -34.319  1.00  0.00     0.089 A 
HETATM    9  C   UNL     1      -7.983   0.058 -33.315  1.00  0.00     0.069 A 
HETATM   10  N   UNL     1     -10.417   2.726 -34.244  1.00  0.00    -0.125 NA
HETATM   11  N   UNL     1     -11.259   3.486 -33.466  1.00  0.00    -0.121 NA
ENDROOT
BRANCH   1  12
HETATM   12  S   UNL     1     -11.617   4.045 -30.823  1.00  0.00    -0.080 SA
BRANCH  12  13
HETATM   13  C   UNL     1     -10.662   5.592 -30.810  1.00  0.00     0.185 C 
BRANCH  13  14
HETATM   14  C   UNL     1      -9.177   5.308 -31.006  1.00  0.00     0.231 C 
HETATM   15  N   UNL     1      -8.725   5.648 -32.270  1.00  0.00    -0.327 N 
HETATM   16  H   UNL     1      -9.441   5.906 -32.947  1.00  0.00     0.169 HD
HETATM   17  O   UNL     1      -8.507   4.808 -30.106  1.00  0.00    -0.272 OA
BRANCH  15  18
HETATM   18  C   UNL     1      -7.433   5.483 -32.802  1.00  0.00     0.034 A 
HETATM   19  C   UNL     1      -7.065   4.458 -33.669  1.00  0.00     0.032 A 
HETATM   20  C   UNL     1      -5.762   4.392 -34.187  1.00  0.00     0.032 A 
HETATM   21  C   UNL     1      -4.808   5.348 -33.843  1.00  0.00     0.034 A 
HETATM   22  C   UNL     1      -5.167   6.346 -32.931  1.00  0.00     0.032 A 
HETATM   23  C   UNL     1      -6.469   6.422 -32.427  1.00  0.00     0.032 A 
BRANCH  21  24
HETATM   24  N   UNL     1      -3.483   5.370 -34.309  1.00  0.00    -0.328 N 
HETATM   25  C   UNL     1      -2.300   4.957 -33.773  1.00  0.00     0.218 C 
HETATM   26  C   UNL     1      -2.253   4.146 -32.511  1.00  0.00     0.117 C 
HETATM   27  O   UNL     1      -1.259   5.226 -34.380  1.00  0.00    -0.274 OA
HETATM   28  H   UNL     1      -3.340   5.747 -35.239  1.00  0.00     0.169 HD
ENDBRANCH  21  24
ENDBRANCH  15  18
ENDBRANCH  13  14
ENDBRANCH  12  13
ENDBRANCH   1  12
BRANCH   2  29
HETATM   29  N   UNL     1      -9.300   1.832 -30.939  1.00  0.00    -0.239 NA
HETATM   30  H   UNL     1      -8.720   2.567 -30.531  1.00  0.00     0.143 HD
HETATM   31  H   UNL     1      -8.650   1.082 -31.176  1.00  0.00     0.143 HD
ENDBRANCH   2  29
BRANCH   8  32
HETATM   32  C   UNL     1      -6.222  -1.627 -34.218  1.00  0.00    -0.006 A 
HETATM   33  C   UNL     1      -4.973  -1.496 -33.593  1.00  0.00     0.015 A 
HETATM   34  C   UNL     1      -4.099  -2.584 -33.502  1.00  0.00     0.024 A 
HETATM   35  C   UNL     1      -4.468  -3.813 -34.042  1.00  0.00     0.034 A 
HETATM   36 CL   UNL     1      -3.394  -5.152 -33.941  1.00  0.00    -0.084 Cl
HETATM   37  C   UNL     1      -5.703  -3.962 -34.669  1.00  0.00     0.024 A 
HETATM   38  C   UNL     1      -6.577  -2.874 -34.756  1.00  0.00     0.015 A 
ENDBRANCH   8  32
TORSDOF 7
ENDMDL
MODEL 3
REMARK VINA RESULT:      -9.4      5.151     11.882
REMARK  7 active torsions:
REMARK  status: ('A' for Active; 'I' for Inactive)
REMARK       I    between atoms: C_2  and  N_3 
REMARK    1  A    between atoms: N_3  and  C_4 
REMARK    2  A    between atoms: C_7  and  N_8 
REMARK       I    between atoms: N_8  and  C_9 
REMARK    3  A    between atoms: C_9  and  C_10 
REMARK    4  A    between atoms: C_10  and  S_11 
REMARK    5  A    between atoms: S_11  and  C_12 
REMARK    6  A    between atoms: N_13  and  N_14 
REMARK    7  A    between atoms: C_20  and  C_21 
ROOT
HETATM    1  C   UNL     1      -3.393   5.637 -31.501  1.00  0.00     0.206 A 
HETATM    2  N   UNL     1      -3.609   4.510 -32.255  1.00  0.00    -0.234 N 
HETATM    3  C   UNL     1      -4.539   3.780 -31.544  1.00  0.00     0.197 A 
HETATM    4  C   UNL     1      -5.120   2.533 -31.910  1.00  0.00     0.101 A 
HETATM    5  N   UNL     1      -6.272   2.081 -31.337  1.00  0.00    -0.274 N 
HETATM    6  H   UNL     1      -6.828   2.544 -30.624  1.00  0.00     0.189 HD
HETATM    7  N   UNL     1      -6.688   0.895 -31.808  1.00  0.00    -0.174 NA
HETATM    8  C   UNL     1      -5.739   0.529 -32.687  1.00  0.00     0.089 A 
HETATM    9  C   UNL     1      -4.746   1.545 -32.792  1.00  0.00     0.069 A 
HETATM   10  N   UNL     1      -4.854   4.436 -30.440  1.00  0.00    -0.125 NA
HETATM   11  N   UNL     1      -4.107   5.591 -30.399  1.00  0.00    -0.121 NA
ENDROOT
BRANCH   1  12
HETATM   12  S   UNL     1      -2.372   6.937 -32.013  1.00  0.00    -0.080 SA
BRANCH  12  13
HETATM   13  C   UNL     1      -0.794   6.065 -32.248  1.00  0.00     0.185 C 
BRANCH  13  14
HETATM   14  C   UNL     1      -0.041   5.951 -30.927  1.00  0.00     0.231 C 
HETATM   15  N   UNL     1      -0.323   6.989 -30.055  1.00  0.00    -0.327 N 
HETATM   16  H   UNL     1      -0.871   7.758 -30.436  1.00  0.00     0.169 HD
HETATM   17  O   UNL     1       0.739   5.023 -30.725  1.00  0.00    -0.272 OA
BRANCH  15  18
HETATM   18  C   UNL     1       0.222   7.220 -28.778  1.00  0.00     0.034 A 
HETATM   19  C   UNL     1      -0.081   6.468 -27.646  1.00  0.00     0.032 A 
HETATM   20  C   UNL     1       0.541   6.741 -26.417  1.00  0.00     0.032 A 
HETATM   21  C   UNL     1       1.473   7.771 -26.303  1.00  0.00     0.034 A 
HETATM   22  C   UNL     1       1.736   8.557 -27.429  1.00  0.00     0.032 A 
HETATM   23  C   UNL     1       1.129   8.276 -28.657  1.00  0.00     0.032 A 
BRANCH  21  24
HETATM   24  N   UNL     1       2.150   8.119 -25.123  1.00  0.00    -0.328 N 
HETATM   25  C   UNL     1       1.980   9.119 -24.212  1.00  0.00     0.218 C 
HETATM   26  C   UNL     1       0.772  10.010 -24.243  1.00  0.00     0.117 C 
HETATM   27  O   UNL     1       2.826   9.246 -23.321  1.00  0.00    -0.274 OA
HETATM   28  H   UNL     1       2.917   7.515 -24.850  1.00  0.00     0.169 HD
ENDBRANCH  21  24
ENDBRANCH  15  18
ENDBRANCH  13  14
ENDBRANCH  12  13
ENDBRANCH   1  12
BRANCH   2  29
HETATM   29  N   UNL     1      -3.053   4.207 -33.551  1.00  0.00    -0.239 NA
HETATM   30  H   UNL     1      -2.868   3.205 -33.628  1.00  0.00     0.143 HD
HETATM   31  H   UNL     1      -2.141   4.653 -33.653  1.00  0.00     0.143 HD
ENDBRANCH   2  29
BRANCH   8  32
HETATM   32  C   UNL     1      -5.795  -0.758 -33.386  1.00  0.00    -0.006 A 
HETATM   33  C   UNL     1      -7.025  -1.284 -33.809  1.00  0.00     0.015 A 
HETATM   34  C   UNL     1      -7.090  -2.516 -34.467  1.00  0.00     0.024 A 
HETATM   35  C   UNL     1      -5.922  -3.235 -34.703  1.00  0.00     0.034 A 
HETATM   36 CL   UNL     1      -5.996  -4.755 -35.504  1.00  0.00    -0.084 Cl
HETATM   37  C   UNL     1      -4.691  -2.731 -34.288  1.00  0.00     0.024 A 
HETATM   38  C   UNL     1      -4.627  -1.497 -33.634  1.00  0.00     0.015 A 
ENDBRANCH   8  32
TORSDOF 7
ENDMDL
MODEL 4
REMARK VINA RESULT:      -9.1      6.161      9.189
REMARK  7 active torsions:
REMARK  status: ('A' for Active; 'I' for Inactive)
REMARK       I    between atoms: C_2  and  N_3 
REMARK    1  A    between atoms: N_3  and  C_4 
REMARK    2  A    between atoms: C_7  and  N_8 
REMARK       I    between atoms: N_8  and  C_9 
REMARK    3  A    between atoms: C_9  and  C_10 
REMARK    4  A    between atoms: C_10  and  S_11 
REMARK    5  A    between atoms: S_11  and  C_12 
REMARK    6  A    between atoms: N_13  and  N_14 
REMARK    7  A    between atoms: C_20  and  C_21 
ROOT
HETATM    1  C   UNL     1      -5.870   4.913 -29.335  1.00  0.00     0.206 A 
HETATM    2  N   UNL     1      -6.104   3.659 -29.843  1.00  0.00    -0.234 N 
HETATM    3  C   UNL     1      -5.083   3.443 -30.745  1.00  0.00     0.197 A 
HETATM    4  C   UNL     1      -4.854   2.276 -31.526  1.00  0.00     0.101 A 
HETATM    5  N   UNL     1      -3.642   2.022 -32.099  1.00  0.00    -0.274 N 
HETATM    6  H   UNL     1      -2.804   2.592 -32.046  1.00  0.00     0.189 HD
HETATM    7  N   UNL     1      -3.596   0.871 -32.789  1.00  0.00    -0.174 NA
HETATM    8  C   UNL     1      -4.844   0.379 -32.710  1.00  0.00     0.089 A 
HETATM    9  C   UNL     1      -5.659   1.227 -31.906  1.00  0.00     0.069 A 
HETATM   10  N   UNL     1      -4.294   4.504 -30.768  1.00  0.00    -0.125 NA
HETATM   11  N   UNL     1      -4.809   5.442 -29.903  1.00  0.00    -0.121 NA
ENDROOT
BRANCH   1  12
HETATM   12  S   UNL     1      -6.825   5.618 -28.077  1.00  0.00    -0.080 SA
BRANCH  12  13
HETATM   13  C   UNL     1      -7.751   6.876 -29.007  1.00  0.00     0.185 C 
BRANCH  13  14
HETATM   14  C   UNL     1      -8.331   6.280 -30.285  1.00  0.00     0.231 C 
HETATM   15  N   UNL     1      -9.249   5.273 -30.042  1.00  0.00    -0.327 N 
HETATM   16  H   UNL     1      -9.323   4.958 -29.076  1.00  0.00     0.169 HD
HETATM   17  O   UNL     1      -7.966   6.679 -31.388  1.00  0.00    -0.272 OA
BRANCH  15  18
HETATM   18  C   UNL     1      -9.940   4.484 -30.981  1.00  0.00     0.034 A 
HETATM   19  C   UNL     1      -9.333   3.571 -31.838  1.00  0.00     0.032 A 
HETATM   20  C   UNL     1     -10.103   2.794 -32.717  1.00  0.00     0.032 A 
HETATM   21  C   UNL     1     -11.490   2.920 -32.753  1.00  0.00     0.034 A 
HETATM   22  C   UNL     1     -12.092   3.875 -31.927  1.00  0.00     0.032 A 
HETATM   23  C   UNL     1     -11.327   4.639 -31.041  1.00  0.00     0.032 A 
BRANCH  21  24
HETATM   24  N   UNL     1     -12.346   2.187 -33.591  1.00  0.00    -0.328 N 
HETATM   25  C   UNL     1     -12.843   2.412 -34.841  1.00  0.00     0.218 C 
HETATM   26  C   UNL     1     -12.340   3.541 -35.692  1.00  0.00     0.117 C 
HETATM   27  O   UNL     1     -13.690   1.629 -35.282  1.00  0.00    -0.274 OA
HETATM   28  H   UNL     1     -12.667   1.293 -33.236  1.00  0.00     0.169 HD
ENDBRANCH  21  24
ENDBRANCH  15  18
ENDBRANCH  13  14
ENDBRANCH  12  13
ENDBRANCH   1  12
BRANCH   2  29
HETATM   29  N   UNL     1      -7.139   2.736 -29.445  1.00  0.00    -0.239 NA
HETATM   30  H   UNL     1      -7.883   2.719 -30.145  1.00  0.00     0.143 HD
HETATM   31  H   UNL     1      -7.589   3.062 -28.589  1.00  0.00     0.143 HD
ENDBRANCH   2  29
BRANCH   8  32
HETATM   32  C   UNL     1      -5.226  -0.859 -33.396  1.00  0.00    -0.006 A 
HETATM   33  C   UNL     1      -4.258  -1.826 -33.709  1.00  0.00     0.015 A 
HETATM   34  C   UNL     1      -4.611  -3.005 -34.372  1.00  0.00     0.024 A 
HETATM   35  C   UNL     1      -5.938  -3.224 -34.734  1.00  0.00     0.034 A 
HETATM   36 CL   UNL     1      -6.376  -4.668 -35.558  1.00  0.00    -0.084 Cl
HETATM   37  C   UNL     1      -6.913  -2.274 -34.434  1.00  0.00     0.024 A 
HETATM   38  C   UNL     1      -6.559  -1.097 -33.767  1.00  0.00     0.015 A 
ENDBRANCH   8  32
TORSDOF 7
ENDMDL
MODEL 5
REMARK VINA RESULT:      -8.9      2.485      3.709
REMARK  7 active torsions:
REMARK  status: ('A' for Active; 'I' for Inactive)
REMARK       I    between atoms: C_2  and  N_3 
REMARK    1  A    between atoms: N_3  and  C_4 
REMARK    2  A    between atoms: C_7  and  N_8 
REMARK       I    between atoms: N_8  and  C_9 
REMARK    3  A    between atoms: C_9  and  C_10 
REMARK    4  A    between atoms: C_10  and  S_11 
REMARK    5  A    between atoms: S_11  and  C_12 
REMARK    6  A    between atoms: N_13  and  N_14 
REMARK    7  A    between atoms: C_20  and  C_21 
ROOT
HETATM    1  C   UNL     1      -8.065   5.028 -33.134  1.00  0.00     0.206 A 
HETATM    2  N   UNL     1      -7.103   5.587 -32.330  1.00  0.00    -0.234 N 
HETATM    3  C   UNL     1      -5.923   5.435 -33.027  1.00  0.00     0.197 A 
HETATM    4  C   UNL     1      -4.626   5.873 -32.636  1.00  0.00     0.101 A 
HETATM    5  N   UNL     1      -3.610   6.002 -33.537  1.00  0.00    -0.274 N 
HETATM    6  H   UNL     1      -3.644   5.817 -34.534  1.00  0.00     0.189 HD
HETATM    7  N   UNL     1      -2.459   6.439 -33.001  1.00  0.00    -0.174 NA
HETATM    8  C   UNL     1      -2.718   6.548 -31.687  1.00  0.00     0.089 A 
HETATM    9  C   UNL     1      -4.078   6.219 -31.422  1.00  0.00     0.069 A 
HETATM   10  N   UNL     1      -6.173   4.826 -34.174  1.00  0.00    -0.125 NA
HETATM   11  N   UNL     1      -7.519   4.541 -34.225  1.00  0.00    -0.121 NA
ENDROOT
BRANCH   1  12
HETATM   12  S   UNL     1      -9.752   5.053 -32.750  1.00  0.00    -0.080 SA
BRANCH  12  13
HETATM   13  C   UNL     1      -9.876   3.620 -31.638  1.00  0.00     0.185 C 
BRANCH  13  14
HETATM   14  C   UNL     1      -9.469   2.341 -32.361  1.00  0.00     0.231 C 
HETATM   15  N   UNL     1      -8.122   2.052 -32.226  1.00  0.00    -0.327 N 
HETATM   16  H   UNL     1      -7.549   2.775 -31.795  1.00  0.00     0.169 HD
HETATM   17  O   UNL     1     -10.292   1.690 -33.000  1.00  0.00    -0.272 OA
BRANCH  15  18
HETATM   18  C   UNL     1      -7.404   0.982 -32.794  1.00  0.00     0.034 A 
HETATM   19  C   UNL     1      -7.306   0.739 -34.161  1.00  0.00     0.032 A 
HETATM   20  C   UNL     1      -6.534  -0.330 -34.644  1.00  0.00     0.032 A 
HETATM   21  C   UNL     1      -5.852  -1.171 -33.767  1.00  0.00     0.034 A 
HETATM   22  C   UNL     1      -5.995  -0.955 -32.393  1.00  0.00     0.032 A 
HETATM   23  C   UNL     1      -6.751   0.118 -31.911  1.00  0.00     0.032 A 
BRANCH  21  24
HETATM   24  N   UNL     1      -5.053  -2.260 -34.151  1.00  0.00    -0.328 N 
HETATM   25  C   UNL     1      -5.342  -3.517 -34.593  1.00  0.00     0.218 C 
HETATM   26  C   UNL     1      -6.743  -3.917 -34.954  1.00  0.00     0.117 C 
HETATM   27  O   UNL     1      -4.409  -4.313 -34.739  1.00  0.00    -0.274 OA
HETATM   28  H   UNL     1      -4.050  -2.115 -34.124  1.00  0.00     0.169 HD
ENDBRANCH  21  24
ENDBRANCH  15  18
ENDBRANCH  13  14
ENDBRANCH  12  13
ENDBRANCH   1  12
BRANCH   2  29
HETATM   29  N   UNL     1      -7.303   6.266 -31.073  1.00  0.00    -0.239 NA
HETATM   30  H   UNL     1      -6.688   7.080 -31.011  1.00  0.00     0.143 HD
HETATM   31  H   UNL     1      -7.022   5.663 -30.300  1.00  0.00     0.143 HD
ENDBRANCH   2  29
BRANCH   8  32
HETATM   32  C   UNL     1      -1.681   6.948 -30.730  1.00  0.00    -0.006 A 
HETATM   33  C   UNL     1      -2.027   7.617 -29.546  1.00  0.00     0.015 A 
HETATM   34  C   UNL     1      -1.045   8.012 -28.633  1.00  0.00     0.024 A 
HETATM   35  C   UNL     1       0.295   7.745 -28.902  1.00  0.00     0.034 A 
HETATM   36 CL   UNL     1       1.509   8.237 -27.786  1.00  0.00    -0.084 Cl
HETATM   37  C   UNL     1       0.658   7.085 -30.073  1.00  0.00     0.024 A 
HETATM   38  C   UNL     1      -0.326   6.687 -30.983  1.00  0.00     0.015 A 
ENDBRANCH   8  32
TORSDOF 7
ENDMDL
MODEL 6
REMARK VINA RESULT:      -8.8      6.420      9.394
REMARK  7 active torsions:
REMARK  status: ('A' for Active; 'I' for Inactive)
REMARK       I    between atoms: C_2  and  N_3 
REMARK    1  A    between atoms: N_3  and  C_4 
REMARK    2  A    between atoms: C_7  and  N_8 
REMARK       I    between atoms: N_8  and  C_9 
REMARK    3  A    between atoms: C_9  and  C_10 
REMARK    4  A    between atoms: C_10  and  S_11 
REMARK    5  A    between atoms: S_11  and  C_12 
REMARK    6  A    between atoms: N_13  and  N_14 
REMARK    7  A    between atoms: C_20  and  C_21 
ROOT
HETATM    1  C   UNL     1      -6.199   5.811 -31.863  1.00  0.00     0.206 A 
HETATM    2  N   UNL     1      -6.483   4.563 -32.359  1.00  0.00    -0.234 N 
HETATM    3  C   UNL     1      -5.475   3.752 -31.881  1.00  0.00     0.197 A 
HETATM    4  C   UNL     1      -5.320   2.352 -32.089  1.00  0.00     0.101 A 
HETATM    5  N   UNL     1      -4.516   1.592 -31.292  1.00  0.00    -0.274 N 
HETATM    6  H   UNL     1      -3.962   1.903 -30.501  1.00  0.00     0.189 HD
HETATM    7  N   UNL     1      -4.497   0.290 -31.619  1.00  0.00    -0.174 NA
HETATM    8  C   UNL     1      -5.279   0.205 -32.709  1.00  0.00     0.089 A 
HETATM    9  C   UNL     1      -5.830   1.479 -33.023  1.00  0.00     0.069 A 
HETATM   10  N   UNL     1      -4.647   4.477 -31.147  1.00  0.00    -0.125 NA
HETATM   11  N   UNL     1      -5.088   5.780 -31.163  1.00  0.00    -0.121 NA
ENDROOT
BRANCH   1  12
HETATM   12  S   UNL     1      -7.232   7.180 -32.097  1.00  0.00    -0.080 SA
BRANCH  12  13
HETATM   13  C   UNL     1      -8.516   6.862 -30.849  1.00  0.00     0.185 C 
BRANCH  13  14
HETATM   14  C   UNL     1      -9.821   6.443 -31.516  1.00  0.00     0.231 C 
HETATM   15  N   UNL     1     -10.113   5.102 -31.333  1.00  0.00    -0.327 N 
HETATM   16  H   UNL     1      -9.378   4.536 -30.912  1.00  0.00     0.169 HD
HETATM   17  O   UNL     1     -10.491   7.251 -32.155  1.00  0.00    -0.272 OA
BRANCH  15  18
HETATM   18  C   UNL     1     -11.206   4.375 -31.842  1.00  0.00     0.034 A 
HETATM   19  C   UNL     1     -12.396   4.160 -31.153  1.00  0.00     0.032 A 
HETATM   20  C   UNL     1     -13.453   3.458 -31.753  1.00  0.00     0.032 A 
HETATM   21  C   UNL     1     -13.334   2.958 -33.049  1.00  0.00     0.034 A 
HETATM   22  C   UNL     1     -12.118   3.132 -33.718  1.00  0.00     0.032 A 
HETATM   23  C   UNL     1     -11.070   3.844 -33.128  1.00  0.00     0.032 A 
BRANCH  21  24
HETATM   24  N   UNL     1     -14.333   2.249 -33.735  1.00  0.00    -0.328 N 
HETATM   25  C   UNL     1     -14.459   0.944 -34.108  1.00  0.00     0.218 C 
HETATM   26  C   UNL     1     -13.504  -0.106 -33.618  1.00  0.00     0.117 C 
HETATM   27  O   UNL     1     -15.414   0.631 -34.825  1.00  0.00    -0.274 OA
HETATM   28  H   UNL     1     -15.153   2.778 -34.010  1.00  0.00     0.169 HD
ENDBRANCH  21  24
ENDBRANCH  15  18
ENDBRANCH  13  14
ENDBRANCH  12  13
ENDBRANCH   1  12
BRANCH   2  29
HETATM   29  N   UNL     1      -7.637   4.172 -33.131  1.00  0.00    -0.239 NA
HETATM   30  H   UNL     1      -7.343   3.725 -34.001  1.00  0.00     0.143 HD
HETATM   31  H   UNL     1      -8.160   4.999 -33.422  1.00  0.00     0.143 HD
ENDBRANCH   2  29
BRANCH   8  32
HETATM   32  C   UNL     1      -5.472  -1.065 -33.418  1.00  0.00    -0.006 A 
HETATM   33  C   UNL     1      -4.371  -1.874 -33.739  1.00  0.00     0.015 A 
HETATM   34  C   UNL     1      -4.544  -3.080 -34.424  1.00  0.00     0.024 A 
HETATM   35  C   UNL     1      -5.823  -3.484 -34.799  1.00  0.00     0.034 A 
HETATM   36 CL   UNL     1      -6.040  -4.963 -35.650  1.00  0.00    -0.084 Cl
HETATM   37  C   UNL     1      -6.927  -2.693 -34.491  1.00  0.00     0.024 A 
HETATM   38  C   UNL     1      -6.753  -1.489 -33.802  1.00  0.00     0.015 A 
ENDBRANCH   8  32
TORSDOF 7
ENDMDL
MODEL 7
REMARK VINA RESULT:      -8.8      5.481     12.704
REMARK  7 active torsions:
REMARK  status: ('A' for Active; 'I' for Inactive)
REMARK       I    between atoms: C_2  and  N_3 
REMARK    1  A    between atoms: N_3  and  C_4 
REMARK    2  A    between atoms: C_7  and  N_8 
REMARK       I    between atoms: N_8  and  C_9 
REMARK    3  A    between atoms: C_9  and  C_10 
REMARK    4  A    between atoms: C_10  and  S_11 
REMARK    5  A    between atoms: S_11  and  C_12 
REMARK    6  A    between atoms: N_13  and  N_14 
REMARK    7  A    between atoms: C_20  and  C_21 
ROOT
HETATM    1  C   UNL     1      -3.643   5.638 -31.019  1.00  0.00     0.206 A 
HETATM    2  N   UNL     1      -3.578   4.398 -31.606  1.00  0.00    -0.234 N 
HETATM    3  C   UNL     1      -4.890   4.052 -31.852  1.00  0.00     0.197 A 
HETATM    4  C   UNL     1      -5.367   2.864 -32.475  1.00  0.00     0.101 A 
HETATM    5  N   UNL     1      -6.626   2.782 -32.994  1.00  0.00    -0.274 N 
HETATM    6  H   UNL     1      -7.337   3.506 -33.003  1.00  0.00     0.189 HD
HETATM    7  N   UNL     1      -6.907   1.595 -33.558  1.00  0.00    -0.174 NA
HETATM    8  C   UNL     1      -5.805   0.854 -33.350  1.00  0.00     0.089 A 
HETATM    9  C   UNL     1      -4.807   1.626 -32.689  1.00  0.00     0.069 A 
HETATM   10  N   UNL     1      -5.681   5.028 -31.438  1.00  0.00    -0.125 NA
HETATM   11  N   UNL     1      -4.895   6.012 -30.884  1.00  0.00    -0.121 NA
ENDROOT
BRANCH   1  12
HETATM   12  S   UNL     1      -2.240   6.563 -30.603  1.00  0.00    -0.080 SA
BRANCH  12  13
HETATM   13  C   UNL     1      -2.751   7.269 -29.008  1.00  0.00     0.185 C 
BRANCH  13  14
HETATM   14  C   UNL     1      -1.715   8.268 -28.506  1.00  0.00     0.231 C 
HETATM   15  N   UNL     1      -1.020   7.812 -27.398  1.00  0.00    -0.327 N 
HETATM   16  H   UNL     1      -1.367   6.953 -26.973  1.00  0.00     0.169 HD
HETATM   17  O   UNL     1      -1.572   9.357 -29.055  1.00  0.00    -0.272 OA
BRANCH  15  18
HETATM   18  C   UNL     1      -0.031   8.486 -26.657  1.00  0.00     0.034 A 
HETATM   19  C   UNL     1      -0.286   9.538 -25.782  1.00  0.00     0.032 A 
HETATM   20  C   UNL     1       0.757  10.128 -25.050  1.00  0.00     0.032 A 
HETATM   21  C   UNL     1       2.068   9.676 -25.184  1.00  0.00     0.034 A 
HETATM   22  C   UNL     1       2.327   8.653 -26.103  1.00  0.00     0.032 A 
HETATM   23  C   UNL     1       1.287   8.055 -26.821  1.00  0.00     0.032 A 
BRANCH  21  24
HETATM   24  N   UNL     1       3.176  10.195 -24.495  1.00  0.00    -0.328 N 
HETATM   25  C   UNL     1       3.727   9.924 -23.279  1.00  0.00     0.218 C 
HETATM   26  C   UNL     1       3.280   8.747 -22.461  1.00  0.00     0.117 C 
HETATM   27  O   UNL     1       4.648  10.645 -22.881  1.00  0.00    -0.274 OA
HETATM   28  H   UNL     1       3.712  10.908 -24.977  1.00  0.00     0.169 HD
ENDBRANCH  21  24
ENDBRANCH  15  18
ENDBRANCH  13  14
ENDBRANCH  12  13
ENDBRANCH   1  12
BRANCH   2  29
HETATM   29  N   UNL     1      -2.389   3.665 -31.969  1.00  0.00    -0.239 NA
HETATM   30  H   UNL     1      -1.570   4.080 -31.521  1.00  0.00     0.143 HD
HETATM   31  H   UNL     1      -2.216   3.753 -32.970  1.00  0.00     0.143 HD
ENDBRANCH   2  29
BRANCH   8  32
HETATM   32  C   UNL     1      -5.734  -0.549 -33.771  1.00  0.00    -0.006 A 
HETATM   33  C   UNL     1      -6.848  -1.175 -34.350  1.00  0.00     0.015 A 
HETATM   34  C   UNL     1      -6.793  -2.515 -34.745  1.00  0.00     0.024 A 
HETATM   35  C   UNL     1      -5.621  -3.242 -34.558  1.00  0.00     0.034 A 
HETATM   36 CL   UNL     1      -5.550  -4.894 -35.033  1.00  0.00    -0.084 Cl
HETATM   37  C   UNL     1      -4.505  -2.639 -33.983  1.00  0.00     0.024 A 
HETATM   38  C   UNL     1      -4.560  -1.297 -33.592  1.00  0.00     0.015 A 
ENDBRANCH   8  32
TORSDOF 7
ENDMDL
MODEL 8
REMARK VINA RESULT:      -8.8      5.323     11.267
REMARK  7 active torsions:
REMARK  status: ('A' for Active; 'I' for Inactive)
REMARK       I    between atoms: C_2  and  N_3 
REMARK    1  A    between atoms: N_3  and  C_4 
REMARK    2  A    between atoms: C_7  and  N_8 
REMARK       I    between atoms: N_8  and  C_9 
REMARK    3  A    between atoms: C_9  and  C_10 
REMARK    4  A    between atoms: C_10  and  S_11 
REMARK    5  A    between atoms: S_11  and  C_12 
REMARK    6  A    between atoms: N_13  and  N_14 
REMARK    7  A    between atoms: C_20  and  C_21 
ROOT
HETATM    1  C   UNL     1      -2.538   4.459 -33.091  1.00  0.00     0.206 A 
HETATM    2  N   UNL     1      -3.849   4.195 -33.400  1.00  0.00    -0.234 N 
HETATM    3  C   UNL     1      -4.326   3.462 -32.333  1.00  0.00     0.197 A 
HETATM    4  C   UNL     1      -5.645   2.959 -32.151  1.00  0.00     0.101 A 
HETATM    5  N   UNL     1      -6.104   2.574 -30.926  1.00  0.00    -0.274 N 
HETATM    6  H   UNL     1      -5.600   2.595 -30.045  1.00  0.00     0.189 HD
HETATM    7  N   UNL     1      -7.375   2.139 -30.931  1.00  0.00    -0.174 NA
HETATM    8  C   UNL     1      -7.743   2.191 -32.223  1.00  0.00     0.089 A 
HETATM    9  C   UNL     1      -6.687   2.721 -33.017  1.00  0.00     0.069 A 
HETATM   10  N   UNL     1      -3.355   3.304 -31.448  1.00  0.00    -0.125 NA
HETATM   11  N   UNL     1      -2.221   3.906 -31.942  1.00  0.00    -0.121 NA
ENDROOT
BRANCH   1  12
HETATM   12  S   UNL     1      -1.514   5.447 -34.076  1.00  0.00    -0.080 SA
BRANCH  12  13
HETATM   13  C   UNL     1      -2.293   7.075 -33.862  1.00  0.00     0.185 C 
BRANCH  13  14
HETATM   14  C   UNL     1      -1.834   7.724 -32.561  1.00  0.00     0.231 C 
HETATM   15  N   UNL     1      -1.419   6.802 -31.616  1.00  0.00    -0.327 N 
HETATM   16  H   UNL     1      -1.596   5.823 -31.837  1.00  0.00     0.169 HD
HETATM   17  O   UNL     1      -1.873   8.944 -32.418  1.00  0.00    -0.272 OA
BRANCH  15  18
HETATM   18  C   UNL     1      -0.976   7.046 -30.302  1.00  0.00     0.034 A 
HETATM   19  C   UNL     1      -1.818   7.166 -29.199  1.00  0.00     0.032 A 
HETATM   20  C   UNL     1      -1.288   7.369 -27.915  1.00  0.00     0.032 A 
HETATM   21  C   UNL     1       0.088   7.457 -27.716  1.00  0.00     0.034 A 
HETATM   22  C   UNL     1       0.927   7.387 -28.833  1.00  0.00     0.032 A 
HETATM   23  C   UNL     1       0.402   7.170 -30.110  1.00  0.00     0.032 A 
BRANCH  21  24
HETATM   24  N   UNL     1       0.713   7.654 -26.474  1.00  0.00    -0.328 N 
HETATM   25  C   UNL     1       1.242   8.750 -25.861  1.00  0.00     0.218 C 
HETATM   26  C   UNL     1       1.049  10.130 -26.421  1.00  0.00     0.117 C 
HETATM   27  O   UNL     1       1.848   8.589 -24.796  1.00  0.00    -0.274 OA
HETATM   28  H   UNL     1       0.788   6.840 -25.873  1.00  0.00     0.169 HD
ENDBRANCH  21  24
ENDBRANCH  15  18
ENDBRANCH  13  14
ENDBRANCH  12  13
ENDBRANCH   1  12
BRANCH   2  29
HETATM   29  N   UNL     1      -4.588   4.665 -34.547  1.00  0.00    -0.239 NA
HETATM   30  H   UNL     1      -5.585   4.486 -34.420  1.00  0.00     0.143 HD
HETATM   31  H   UNL     1      -4.326   4.129 -35.375  1.00  0.00     0.143 HD
ENDBRANCH   2  29
BRANCH   8  32
HETATM   32  C   UNL     1      -9.066   1.735 -32.662  1.00  0.00    -0.006 A 
HETATM   33  C   UNL     1     -10.029   2.660 -33.094  1.00  0.00     0.015 A 
HETATM   34  C   UNL     1     -11.297   2.236 -33.504  1.00  0.00     0.024 A 
HETATM   35  C   UNL     1     -11.613   0.880 -33.480  1.00  0.00     0.034 A 
HETATM   36 CL   UNL     1     -13.173   0.354 -33.976  1.00  0.00    -0.084 Cl
HETATM   37  C   UNL     1     -10.670  -0.053 -33.053  1.00  0.00     0.024 A 
HETATM   38  C   UNL     1      -9.402   0.372 -32.647  1.00  0.00     0.015 A 
ENDBRANCH   8  32
TORSDOF 7
ENDMDL
MODEL 9
REMARK VINA RESULT:      -8.8      2.029      2.994
REMARK  7 active torsions:
REMARK  status: ('A' for Active; 'I' for Inactive)
REMARK       I    between atoms: C_2  and  N_3 
REMARK    1  A    between atoms: N_3  and  C_4 
REMARK    2  A    between atoms: C_7  and  N_8 
REMARK       I    between atoms: N_8  and  C_9 
REMARK    3  A    between atoms: C_9  and  C_10 
REMARK    4  A    between atoms: C_10  and  S_11 
REMARK    5  A    between atoms: S_11  and  C_12 
REMARK    6  A    between atoms: N_13  and  N_14 
REMARK    7  A    between atoms: C_20  and  C_21 
ROOT
HETATM    1  C   UNL     1      -2.027   5.923 -31.285  1.00  0.00     0.206 A 
HETATM    2  N   UNL     1      -1.241   6.189 -30.191  1.00  0.00    -0.234 N 
HETATM    3  C   UNL     1      -1.494   7.510 -29.883  1.00  0.00     0.197 A 
HETATM    4  C   UNL     1      -0.945   8.267 -28.810  1.00  0.00     0.101 A 
HETATM    5  N   UNL     1      -1.522   9.425 -28.379  1.00  0.00    -0.274 N 
HETATM    6  H   UNL     1      -2.361   9.867 -28.742  1.00  0.00     0.189 HD
HETATM    7  N   UNL     1      -0.883  10.003 -27.349  1.00  0.00    -0.174 NA
HETATM    8  C   UNL     1       0.187   9.219 -27.133  1.00  0.00     0.089 A 
HETATM    9  C   UNL     1       0.171   8.105 -28.021  1.00  0.00     0.069 A 
HETATM   10  N   UNL     1      -2.377   7.993 -30.741  1.00  0.00    -0.125 NA
HETATM   11  N   UNL     1      -2.687   7.001 -31.643  1.00  0.00    -0.121 NA
ENDROOT
BRANCH   1  12
HETATM   12  S   UNL     1      -2.148   4.354 -32.004  1.00  0.00    -0.080 SA
BRANCH  12  13
HETATM   13  C   UNL     1      -3.781   3.823 -31.405  1.00  0.00     0.185 C 
BRANCH  13  14
HETATM   14  C   UNL     1      -4.414   2.834 -32.377  1.00  0.00     0.231 C 
HETATM   15  N   UNL     1      -4.200   1.514 -32.017  1.00  0.00    -0.327 N 
HETATM   16  H   UNL     1      -3.546   1.358 -31.251  1.00  0.00     0.169 HD
HETATM   17  O   UNL     1      -5.020   3.226 -33.370  1.00  0.00    -0.272 OA
BRANCH  15  18
HETATM   18  C   UNL     1      -4.602   0.352 -32.703  1.00  0.00     0.034 A 
HETATM   19  C   UNL     1      -3.727  -0.549 -33.303  1.00  0.00     0.032 A 
HETATM   20  C   UNL     1      -4.212  -1.706 -33.932  1.00  0.00     0.032 A 
HETATM   21  C   UNL     1      -5.578  -1.977 -33.973  1.00  0.00     0.034 A 
HETATM   22  C   UNL     1      -6.457  -1.044 -33.414  1.00  0.00     0.032 A 
HETATM   23  C   UNL     1      -5.975   0.101 -32.774  1.00  0.00     0.032 A 
BRANCH  21  24
HETATM   24  N   UNL     1      -6.160  -3.106 -34.572  1.00  0.00    -0.328 N 
HETATM   25  C   UNL     1      -5.729  -4.385 -34.763  1.00  0.00     0.218 C 
HETATM   26  C   UNL     1      -4.475  -4.894 -34.114  1.00  0.00     0.117 C 
HETATM   27  O   UNL     1      -6.427  -5.140 -35.447  1.00  0.00    -0.274 OA
HETATM   28  H   UNL     1      -7.100  -2.990 -34.934  1.00  0.00     0.169 HD
ENDBRANCH  21  24
ENDBRANCH  15  18
ENDBRANCH  13  14
ENDBRANCH  12  13
ENDBRANCH   1  12
BRANCH   2  29
HETATM   29  N   UNL     1      -0.406   5.260 -29.469  1.00  0.00    -0.239 NA
HETATM   30  H   UNL     1      -0.459   5.446 -28.466  1.00  0.00     0.143 HD
HETATM   31  H   UNL     1       0.573   5.406 -29.714  1.00  0.00     0.143 HD
ENDBRANCH   2  29
BRANCH   8  32
HETATM   32  C   UNL     1       1.185   9.547 -26.111  1.00  0.00    -0.006 A 
HETATM   33  C   UNL     1       1.246  10.840 -25.566  1.00  0.00     0.015 A 
HETATM   34  C   UNL     1       2.202  11.165 -24.599  1.00  0.00     0.024 A 
HETATM   35  C   UNL     1       3.110  10.200 -24.173  1.00  0.00     0.034 A 
HETATM   36 CL   UNL     1       4.293  10.597 -22.990  1.00  0.00    -0.084 Cl
HETATM   37  C   UNL     1       3.067   8.912 -24.703  1.00  0.00     0.024 A 
HETATM   38  C   UNL     1       2.108   8.587 -25.668  1.00  0.00     0.015 A 
ENDBRANCH   8  32
TORSDOF 7
ENDMDL
MODEL 10
REMARK VINA RESULT:      -8.5      5.486      9.814
REMARK  7 active torsions:
REMARK  status: ('A' for Active; 'I' for Inactive)
REMARK       I    between atoms: C_2  and  N_3 
REMARK    1  A    between atoms: N_3  and  C_4 
REMARK    2  A    between atoms: C_7  and  N_8 
REMARK       I    between atoms: N_8  and  C_9 
REMARK    3  A    between atoms: C_9  and  C_10 
REMARK    4  A    between atoms: C_10  and  S_11 
REMARK    5  A    between atoms: S_11  and  C_12 
REMARK    6  A    between atoms: N_13  and  N_14 
REMARK    7  A    between atoms: C_20  and  C_21 
ROOT
HETATM    1  C   UNL     1      -4.033   7.811 -26.548  1.00  0.00     0.206 A 
HETATM    2  N   UNL     1      -4.553   6.663 -27.093  1.00  0.00    -0.234 N 
HETATM    3  C   UNL     1      -5.133   7.064 -28.279  1.00  0.00     0.197 A 
HETATM    4  C   UNL     1      -5.791   6.244 -29.239  1.00  0.00     0.101 A 
HETATM    5  N   UNL     1      -6.000   6.664 -30.520  1.00  0.00    -0.274 N 
HETATM    6  H   UNL     1      -5.731   7.553 -30.928  1.00  0.00     0.189 HD
HETATM    7  N   UNL     1      -6.621   5.760 -31.295  1.00  0.00    -0.174 NA
HETATM    8  C   UNL     1      -6.878   4.729 -30.473  1.00  0.00     0.089 A 
HETATM    9  C   UNL     1      -6.353   4.989 -29.175  1.00  0.00     0.069 A 
HETATM   10  N   UNL     1      -4.963   8.367 -28.426  1.00  0.00    -0.125 NA
HETATM   11  N   UNL     1      -4.297   8.841 -27.319  1.00  0.00    -0.121 NA
ENDROOT
BRANCH   1  12
HETATM   12  S   UNL     1      -3.105   7.828 -25.087  1.00  0.00    -0.080 SA
BRANCH  12  13
HETATM   13  C   UNL     1      -1.467   8.297 -25.722  1.00  0.00     0.185 C 
BRANCH  13  14
HETATM   14  C   UNL     1      -1.131   7.503 -26.980  1.00  0.00     0.231 C 
HETATM   15  N   UNL     1      -1.227   8.259 -28.136  1.00  0.00    -0.327 N 
HETATM   16  H   UNL     1      -1.636   9.186 -28.032  1.00  0.00     0.169 HD
HETATM   17  O   UNL     1      -0.834   6.313 -26.913  1.00  0.00    -0.272 OA
BRANCH  15  18
HETATM   18  C   UNL     1      -1.031   7.839 -29.465  1.00  0.00     0.034 A 
HETATM   19  C   UNL     1       0.098   7.161 -29.916  1.00  0.00     0.032 A 
HETATM   20  C   UNL     1       0.195   6.742 -31.252  1.00  0.00     0.032 A 
HETATM   21  C   UNL     1      -0.834   6.997 -32.156  1.00  0.00     0.034 A 
HETATM   22  C   UNL     1      -1.943   7.724 -31.712  1.00  0.00     0.032 A 
HETATM   23  C   UNL     1      -2.048   8.128 -30.378  1.00  0.00     0.032 A 
BRANCH  21  24
HETATM   24  N   UNL     1      -0.834   6.616 -33.508  1.00  0.00    -0.328 N 
HETATM   25  C   UNL     1      -1.308   5.521 -34.167  1.00  0.00     0.218 C 
HETATM   26  C   UNL     1      -2.174   4.507 -33.479  1.00  0.00     0.117 C 
HETATM   27  O   UNL     1      -1.047   5.405 -35.369  1.00  0.00    -0.274 OA
HETATM   28  H   UNL     1      -0.422   7.274 -34.161  1.00  0.00     0.169 HD
ENDBRANCH  21  24
ENDBRANCH  15  18
ENDBRANCH  13  14
ENDBRANCH  12  13
ENDBRANCH   1  12
BRANCH   2  29
HETATM   29  N   UNL     1      -4.435   5.320 -26.579  1.00  0.00    -0.239 NA
HETATM   30  H   UNL     1      -5.014   5.212 -25.744  1.00  0.00     0.143 HD
HETATM   31  H   UNL     1      -3.480   5.150 -26.263  1.00  0.00     0.143 HD
ENDBRANCH   2  29
BRANCH   8  32
HETATM   32  C   UNL     1      -7.612   3.545 -30.932  1.00  0.00    -0.006 A 
HETATM   33  C   UNL     1      -7.015   2.276 -30.883  1.00  0.00     0.015 A 
HETATM   34  C   UNL     1      -7.702   1.143 -31.329  1.00  0.00     0.024 A 
HETATM   35  C   UNL     1      -8.993   1.273 -31.833  1.00  0.00     0.034 A 
HETATM   36 CL   UNL     1      -9.840  -0.117 -32.391  1.00  0.00    -0.084 Cl
HETATM   37  C   UNL     1      -9.602   2.524 -31.892  1.00  0.00     0.024 A 
HETATM   38  C   UNL     1      -8.915   3.656 -31.442  1.00  0.00     0.015 A 
ENDBRANCH   8  32
TORSDOF 7
ENDMDL
