MODEL 1
REMARK VINA RESULT:      -8.3      0.000      0.000
REMARK  10 active torsions:
REMARK  status: ('A' for Active; 'I' for Inactive)
REMARK    1  A    between atoms: C_2  and  O_3 
REMARK    2  A    between atoms: O_3  and  C_4 
REMARK    3  A    between atoms: C_7  and  N_8 
REMARK    4  A    between atoms: C_9  and  S_10 
REMARK    5  A    between atoms: S_10  and  C_11 
REMARK    6  A    between atoms: C_11  and  C_12 
REMARK       I    between atoms: C_12  and  N_13 
REMARK    7  A    between atoms: N_13  and  C_14 
REMARK    8  A    between atoms: C_15  and  O_16 
REMARK    9  A    between atoms: C_19  and  O_20 
REMARK   10  A    between atoms: C_29  and  N_30 
ROOT
HETATM    1  N   UNL     1      -9.507   1.838 -33.454  1.00  0.00    -0.276 N 
HETATM    2  C   UNL     1      -9.251   3.178 -33.535  1.00  0.00     0.177 A 
HETATM    3  N   UNL     1     -10.192   4.128 -33.497  1.00  0.00    -0.204 NA
HETATM    4  C   UNL     1     -11.425   3.648 -33.421  1.00  0.00     0.162 A 
HETATM    5  C   UNL     1     -11.785   2.323 -33.337  1.00  0.00     0.081 A 
HETATM    6  C   UNL     1     -10.777   1.346 -33.313  1.00  0.00     0.124 A 
HETATM    7  N   UNL     1     -12.571   4.386 -33.418  1.00  0.00    -0.260 N 
HETATM    8  H   UNL     1     -12.660   5.397 -33.478  1.00  0.00     0.191 HD
HETATM    9  N   UNL     1     -13.675   3.626 -33.330  1.00  0.00    -0.177 NA
HETATM   10  C   UNL     1     -13.211   2.370 -33.290  1.00  0.00     0.068 A 
HETATM   11  C   UNL     1     -14.179   1.245 -33.215  1.00  0.00     0.073 C 
ENDROOT
BRANCH   2  12
HETATM   12  S   UNL     1      -7.580   3.835 -33.704  1.00  0.00    -0.082 SA
BRANCH  12  13
HETATM   13  C   UNL     1      -7.492   5.015 -32.294  1.00  0.00     0.185 C 
BRANCH  13  14
HETATM   14  C   UNL     1      -6.146   5.721 -32.187  1.00  0.00     0.232 C 
HETATM   15  N   UNL     1      -5.066   5.133 -31.600  1.00  0.00    -0.324 N 
HETATM   16  H   UNL     1      -4.361   5.807 -31.310  1.00  0.00     0.169 HD
HETATM   17  O   UNL     1      -6.034   6.896 -32.557  1.00  0.00    -0.272 OA
BRANCH  15  18
HETATM   18  C   UNL     1      -4.687   3.795 -31.385  1.00  0.00     0.070 A 
HETATM   19  C   UNL     1      -3.667   3.280 -32.214  1.00  0.00     0.097 A 
HETATM   20  C   UNL     1      -3.289   1.934 -32.114  1.00  0.00     0.077 A 
HETATM   21  C   UNL     1      -3.933   1.083 -31.210  1.00  0.00     0.092 A 
HETATM   22  C   UNL     1      -4.960   1.602 -30.406  1.00  0.00     0.069 A 
HETATM   23 CL   UNL     1      -5.830   0.599 -29.296  1.00  0.00    -0.081 Cl
HETATM   24  C   UNL     1      -5.337   2.947 -30.494  1.00  0.00     0.059 A 
BRANCH  19  25
HETATM   25  O   UNL     1      -3.097   4.193 -33.073  1.00  0.00    -0.354 OA
HETATM   26  C   UNL     1      -1.794   4.671 -32.756  1.00  0.00     0.210 C 
ENDBRANCH  19  25
BRANCH  21  27
HETATM   27  O   UNL     1      -3.643  -0.246 -31.049  1.00  0.00    -0.354 OA
HETATM   28  C   UNL     1      -2.942  -0.912 -32.091  1.00  0.00     0.210 C 
ENDBRANCH  21  27
ENDBRANCH  15  18
ENDBRANCH  13  14
ENDBRANCH  12  13
ENDBRANCH   2  12
BRANCH   1  29
HETATM   29  C   UNL     1      -8.430   0.894 -33.569  1.00  0.00     0.043 A 
HETATM   30  C   UNL     1      -7.833   0.385 -32.413  1.00  0.00     0.033 A 
HETATM   31  C   UNL     1      -6.882  -0.635 -32.535  1.00  0.00     0.039 A 
HETATM   32  C   UNL     1      -6.556  -1.147 -33.795  1.00  0.00     0.068 A 
HETATM   33  C   UNL     1      -7.169  -0.619 -34.939  1.00  0.00     0.039 A 
HETATM   34  C   UNL     1      -8.110   0.403 -34.836  1.00  0.00     0.033 A 
BRANCH  32  35
HETATM   35  O   UNL     1      -5.686  -2.166 -34.051  1.00  0.00    -0.352 OA
BRANCH  35  36
HETATM   36  C   UNL     1      -5.910  -2.965 -35.212  1.00  0.00     0.171 C 
HETATM   37  C   UNL     1      -6.677  -4.203 -34.785  1.00  0.00     0.034 C 
ENDBRANCH  35  36
ENDBRANCH  32  35
ENDBRANCH   1  29
BRANCH   6  38
HETATM   38  N   UNL     1     -11.056  -0.010 -33.167  1.00  0.00    -0.384 N 
HETATM   39  H   UNL     1     -11.442  -0.510 -33.963  1.00  0.00     0.157 HD
HETATM   40  H   UNL     1     -11.313  -0.402 -32.268  1.00  0.00     0.157 HD
ENDBRANCH   6  38
TORSDOF 10
ENDMDL
MODEL 2
REMARK VINA RESULT:      -8.3      2.878      4.206
REMARK  10 active torsions:
REMARK  status: ('A' for Active; 'I' for Inactive)
REMARK    1  A    between atoms: C_2  and  O_3 
REMARK    2  A    between atoms: O_3  and  C_4 
REMARK    3  A    between atoms: C_7  and  N_8 
REMARK    4  A    between atoms: C_9  and  S_10 
REMARK    5  A    between atoms: S_10  and  C_11 
REMARK    6  A    between atoms: C_11  and  C_12 
REMARK       I    between atoms: C_12  and  N_13 
REMARK    7  A    between atoms: N_13  and  C_14 
REMARK    8  A    between atoms: C_15  and  O_16 
REMARK    9  A    between atoms: C_19  and  O_20 
REMARK   10  A    between atoms: C_29  and  N_30 
ROOT
HETATM    1  N   UNL     1      -7.735   2.627 -33.931  1.00  0.00    -0.276 N 
HETATM    2  C   UNL     1      -6.925   3.706 -33.720  1.00  0.00     0.177 A 
HETATM    3  N   UNL     1      -7.326   4.979 -33.819  1.00  0.00    -0.204 NA
HETATM    4  C   UNL     1      -8.590   5.108 -34.195  1.00  0.00     0.162 A 
HETATM    5  C   UNL     1      -9.482   4.087 -34.431  1.00  0.00     0.081 A 
HETATM    6  C   UNL     1      -9.058   2.760 -34.258  1.00  0.00     0.124 A 
HETATM    7  N   UNL     1      -9.241   6.283 -34.422  1.00  0.00    -0.260 N 
HETATM    8  H   UNL     1      -8.867   7.225 -34.347  1.00  0.00     0.191 HD
HETATM    9  N   UNL     1     -10.520   6.103 -34.791  1.00  0.00    -0.177 NA
HETATM   10  C   UNL     1     -10.676   4.773 -34.809  1.00  0.00     0.068 A 
HETATM   11  C   UNL     1     -11.991   4.206 -35.207  1.00  0.00     0.073 C 
ENDROOT
BRANCH   2  12
HETATM   12  S   UNL     1      -5.186   3.539 -33.272  1.00  0.00    -0.082 SA
BRANCH  12  13
HETATM   13  C   UNL     1      -4.681   5.294 -33.044  1.00  0.00     0.185 C 
BRANCH  13  14
HETATM   14  C   UNL     1      -3.642   5.754 -34.058  1.00  0.00     0.232 C 
HETATM   15  N   UNL     1      -2.511   6.416 -33.685  1.00  0.00    -0.324 N 
HETATM   16  H   UNL     1      -2.088   6.935 -34.451  1.00  0.00     0.169 HD
HETATM   17  O   UNL     1      -3.855   5.612 -35.269  1.00  0.00    -0.272 OA
BRANCH  15  18
HETATM   18  C   UNL     1      -1.766   6.467 -32.492  1.00  0.00     0.070 A 
HETATM   19  C   UNL     1      -2.003   7.566 -31.638  1.00  0.00     0.097 A 
HETATM   20  C   UNL     1      -1.244   7.729 -30.470  1.00  0.00     0.077 A 
HETATM   21  C   UNL     1      -0.229   6.821 -30.154  1.00  0.00     0.092 A 
HETATM   22  C   UNL     1       0.012   5.745 -31.022  1.00  0.00     0.069 A 
HETATM   23 CL   UNL     1       1.278   4.606 -30.717  1.00  0.00    -0.081 Cl
HETATM   24  C   UNL     1      -0.748   5.570 -32.184  1.00  0.00     0.059 A 
BRANCH  19  25
HETATM   25  O   UNL     1      -3.018   8.405 -32.037  1.00  0.00    -0.354 OA
HETATM   26  C   UNL     1      -4.137   8.546 -31.168  1.00  0.00     0.210 C 
ENDBRANCH  19  25
BRANCH  21  27
HETATM   27  O   UNL     1       0.571   6.903 -29.045  1.00  0.00    -0.354 OA
HETATM   28  C   UNL     1       0.055   6.433 -27.807  1.00  0.00     0.210 C 
ENDBRANCH  21  27
ENDBRANCH  15  18
ENDBRANCH  13  14
ENDBRANCH  12  13
ENDBRANCH   2  12
BRANCH   1  29
HETATM   29  C   UNL     1      -7.192   1.297 -33.861  1.00  0.00     0.043 A 
HETATM   30  C   UNL     1      -7.056   0.672 -32.620  1.00  0.00     0.033 A 
HETATM   31  C   UNL     1      -6.657  -0.669 -32.578  1.00  0.00     0.039 A 
HETATM   32  C   UNL     1      -6.422  -1.372 -33.764  1.00  0.00     0.068 A 
HETATM   33  C   UNL     1      -6.565  -0.721 -34.996  1.00  0.00     0.039 A 
HETATM   34  C   UNL     1      -6.951   0.616 -35.055  1.00  0.00     0.033 A 
BRANCH  32  35
HETATM   35  O   UNL     1      -6.074  -2.687 -33.867  1.00  0.00    -0.352 OA
BRANCH  35  36
HETATM   36  C   UNL     1      -5.799  -3.208 -35.166  1.00  0.00     0.171 C 
HETATM   37  C   UNL     1      -6.603  -4.485 -35.336  1.00  0.00     0.034 C 
ENDBRANCH  35  36
ENDBRANCH  32  35
ENDBRANCH   1  29
BRANCH   6  38
HETATM   38  N   UNL     1      -9.917   1.676 -34.416  1.00  0.00    -0.384 N 
HETATM   39  H   UNL     1      -9.777   1.065 -35.215  1.00  0.00     0.157 HD
HETATM   40  H   UNL     1     -10.873   1.707 -34.081  1.00  0.00     0.157 HD
ENDBRANCH   6  38
TORSDOF 10
ENDMDL
MODEL 3
REMARK VINA RESULT:      -8.1      2.323      3.410
REMARK  10 active torsions:
REMARK  status: ('A' for Active; 'I' for Inactive)
REMARK    1  A    between atoms: C_2  and  O_3 
REMARK    2  A    between atoms: O_3  and  C_4 
REMARK    3  A    between atoms: C_7  and  N_8 
REMARK    4  A    between atoms: C_9  and  S_10 
REMARK    5  A    between atoms: S_10  and  C_11 
REMARK    6  A    between atoms: C_11  and  C_12 
REMARK       I    between atoms: C_12  and  N_13 
REMARK    7  A    between atoms: N_13  and  C_14 
REMARK    8  A    between atoms: C_15  and  O_16 
REMARK    9  A    between atoms: C_19  and  O_20 
REMARK   10  A    between atoms: C_29  and  N_30 
ROOT
HETATM    1  N   UNL     1      -9.193   1.184 -33.349  1.00  0.00    -0.276 N 
HETATM    2  C   UNL     1      -9.050   2.427 -33.897  1.00  0.00     0.177 A 
HETATM    3  N   UNL     1     -10.054   3.135 -34.429  1.00  0.00    -0.204 NA
HETATM    4  C   UNL     1     -11.213   2.493 -34.425  1.00  0.00     0.162 A 
HETATM    5  C   UNL     1     -11.457   1.244 -33.902  1.00  0.00     0.081 A 
HETATM    6  C   UNL     1     -10.403   0.547 -33.289  1.00  0.00     0.124 A 
HETATM    7  N   UNL     1     -12.385   2.954 -34.947  1.00  0.00    -0.260 N 
HETATM    8  H   UNL     1     -12.549   3.841 -35.417  1.00  0.00     0.191 HD
HETATM    9  N   UNL     1     -13.397   2.085 -34.796  1.00  0.00    -0.177 NA
HETATM   10  C   UNL     1     -12.844   1.038 -34.171  1.00  0.00     0.068 A 
HETATM   11  C   UNL     1     -13.688  -0.146 -33.859  1.00  0.00     0.073 C 
ENDROOT
BRANCH   2  12
HETATM   12  S   UNL     1      -7.462   3.280 -33.964  1.00  0.00    -0.082 SA
BRANCH  12  13
HETATM   13  C   UNL     1      -7.534   4.336 -32.458  1.00  0.00     0.185 C 
BRANCH  13  14
HETATM   14  C   UNL     1      -7.353   5.818 -32.757  1.00  0.00     0.232 C 
HETATM   15  N   UNL     1      -6.164   6.455 -32.564  1.00  0.00    -0.324 N 
HETATM   16  H   UNL     1      -6.267   7.465 -32.488  1.00  0.00     0.169 HD
HETATM   17  O   UNL     1      -8.325   6.502 -33.101  1.00  0.00    -0.272 OA
BRANCH  15  18
HETATM   18  C   UNL     1      -4.826   6.022 -32.528  1.00  0.00     0.070 A 
HETATM   19  C   UNL     1      -4.187   6.024 -31.269  1.00  0.00     0.097 A 
HETATM   20  C   UNL     1      -2.832   5.681 -31.164  1.00  0.00     0.077 A 
HETATM   21  C   UNL     1      -2.093   5.359 -32.307  1.00  0.00     0.092 A 
HETATM   22  C   UNL     1      -2.734   5.382 -33.555  1.00  0.00     0.069 A 
HETATM   23 CL   UNL     1      -1.873   5.036 -35.016  1.00  0.00    -0.081 Cl
HETATM   24  C   UNL     1      -4.088   5.713 -33.667  1.00  0.00     0.059 A 
BRANCH  19  25
HETATM   25  O   UNL     1      -4.996   6.359 -30.206  1.00  0.00    -0.354 OA
HETATM   26  C   UNL     1      -5.416   5.309 -29.342  1.00  0.00     0.210 C 
ENDBRANCH  19  25
BRANCH  21  27
HETATM   27  O   UNL     1      -0.765   5.024 -32.306  1.00  0.00    -0.354 OA
HETATM   28  C   UNL     1       0.012   5.358 -31.164  1.00  0.00     0.210 C 
ENDBRANCH  21  27
ENDBRANCH  15  18
ENDBRANCH  13  14
ENDBRANCH  12  13
ENDBRANCH   2  12
BRANCH   1  29
HETATM   29  C   UNL     1      -8.039   0.479 -32.859  1.00  0.00     0.043 A 
HETATM   30  C   UNL     1      -7.250  -0.254 -33.748  1.00  0.00     0.033 A 
HETATM   31  C   UNL     1      -6.056  -0.819 -33.286  1.00  0.00     0.039 A 
HETATM   32  C   UNL     1      -5.654  -0.629 -31.959  1.00  0.00     0.068 A 
HETATM   33  C   UNL     1      -6.464   0.110 -31.088  1.00  0.00     0.039 A 
HETATM   34  C   UNL     1      -7.661   0.670 -31.530  1.00  0.00     0.033 A 
BRANCH  32  35
HETATM   35  O   UNL     1      -4.499  -1.083 -31.394  1.00  0.00    -0.352 OA
BRANCH  35  36
HETATM   36  C   UNL     1      -3.450  -1.513 -32.261  1.00  0.00     0.171 C 
HETATM   37  C   UNL     1      -3.101  -2.945 -31.895  1.00  0.00     0.034 C 
ENDBRANCH  35  36
ENDBRANCH  32  35
ENDBRANCH   1  29
BRANCH   6  38
HETATM   38  N   UNL     1     -10.583  -0.693 -32.682  1.00  0.00    -0.384 N 
HETATM   39  H   UNL     1     -10.131  -0.858 -31.787  1.00  0.00     0.157 HD
HETATM   40  H   UNL     1     -10.738  -1.532 -33.229  1.00  0.00     0.157 HD
ENDBRANCH   6  38
TORSDOF 10
ENDMDL
MODEL 4
REMARK VINA RESULT:      -8.0      3.281      6.060
REMARK  10 active torsions:
REMARK  status: ('A' for Active; 'I' for Inactive)
REMARK    1  A    between atoms: C_2  and  O_3 
REMARK    2  A    between atoms: O_3  and  C_4 
REMARK    3  A    between atoms: C_7  and  N_8 
REMARK    4  A    between atoms: C_9  and  S_10 
REMARK    5  A    between atoms: S_10  and  C_11 
REMARK    6  A    between atoms: C_11  and  C_12 
REMARK       I    between atoms: C_12  and  N_13 
REMARK    7  A    between atoms: N_13  and  C_14 
REMARK    8  A    between atoms: C_15  and  O_16 
REMARK    9  A    between atoms: C_19  and  O_20 
REMARK   10  A    between atoms: C_29  and  N_30 
ROOT
HETATM    1  N   UNL     1      -6.838   0.421 -32.605  1.00  0.00    -0.276 N 
HETATM    2  C   UNL     1      -6.229   1.126 -31.606  1.00  0.00     0.177 A 
HETATM    3  N   UNL     1      -5.026   0.830 -31.101  1.00  0.00    -0.204 NA
HETATM    4  C   UNL     1      -4.484  -0.258 -31.628  1.00  0.00     0.162 A 
HETATM    5  C   UNL     1      -5.016  -1.034 -32.632  1.00  0.00     0.081 A 
HETATM    6  C   UNL     1      -6.249  -0.667 -33.193  1.00  0.00     0.124 A 
HETATM    7  N   UNL     1      -3.294  -0.814 -31.266  1.00  0.00    -0.260 N 
HETATM    8  H   UNL     1      -2.651  -0.494 -30.546  1.00  0.00     0.191 HD
HETATM    9  N   UNL     1      -2.999  -1.915 -31.977  1.00  0.00    -0.177 NA
HETATM   10  C   UNL     1      -4.042  -2.064 -32.804  1.00  0.00     0.068 A 
HETATM   11  C   UNL     1      -4.063  -3.220 -33.738  1.00  0.00     0.073 C 
ENDROOT
BRANCH   2  12
HETATM   12  S   UNL     1      -6.990   2.570 -30.839  1.00  0.00    -0.082 SA
BRANCH  12  13
HETATM   13  C   UNL     1      -5.600   3.776 -30.836  1.00  0.00     0.185 C 
BRANCH  13  14
HETATM   14  C   UNL     1      -5.461   4.532 -32.151  1.00  0.00     0.232 C 
HETATM   15  N   UNL     1      -4.482   5.457 -32.354  1.00  0.00    -0.324 N 
HETATM   16  H   UNL     1      -4.697   6.097 -33.116  1.00  0.00     0.169 HD
HETATM   17  O   UNL     1      -6.307   4.381 -33.042  1.00  0.00    -0.272 OA
BRANCH  15  18
HETATM   18  C   UNL     1      -3.210   5.663 -31.789  1.00  0.00     0.070 A 
HETATM   19  C   UNL     1      -2.114   5.067 -32.451  1.00  0.00     0.097 A 
HETATM   20  C   UNL     1      -0.825   5.161 -31.907  1.00  0.00     0.077 A 
HETATM   21  C   UNL     1      -0.616   5.823 -30.693  1.00  0.00     0.092 A 
HETATM   22  C   UNL     1      -1.717   6.393 -30.035  1.00  0.00     0.069 A 
HETATM   23 CL   UNL     1      -1.540   7.192 -28.510  1.00  0.00    -0.081 Cl
HETATM   24  C   UNL     1      -3.004   6.313 -30.576  1.00  0.00     0.059 A 
BRANCH  19  25
HETATM   25  O   UNL     1      -2.422   4.434 -33.634  1.00  0.00    -0.354 OA
HETATM   26  C   UNL     1      -1.938   5.019 -34.838  1.00  0.00     0.210 C 
ENDBRANCH  19  25
BRANCH  21  27
HETATM   27  O   UNL     1       0.601   5.956 -30.079  1.00  0.00    -0.354 OA
HETATM   28  C   UNL     1       1.115   4.845 -29.357  1.00  0.00     0.210 C 
ENDBRANCH  21  27
ENDBRANCH  15  18
ENDBRANCH  13  14
ENDBRANCH  12  13
ENDBRANCH   2  12
BRANCH   1  29
HETATM   29  C   UNL     1      -8.161   0.782 -33.036  1.00  0.00     0.043 A 
HETATM   30  C   UNL     1      -8.321   1.723 -34.056  1.00  0.00     0.033 A 
HETATM   31  C   UNL     1      -9.604   1.963 -34.559  1.00  0.00     0.039 A 
HETATM   32  C   UNL     1     -10.701   1.253 -34.061  1.00  0.00     0.068 A 
HETATM   33  C   UNL     1     -10.514   0.315 -33.038  1.00  0.00     0.039 A 
HETATM   34  C   UNL     1      -9.244   0.071 -32.518  1.00  0.00     0.033 A 
BRANCH  32  35
HETATM   35  O   UNL     1     -11.992   1.356 -34.492  1.00  0.00    -0.352 OA
BRANCH  35  36
HETATM   36  C   UNL     1     -13.033   1.244 -33.522  1.00  0.00     0.171 C 
HETATM   37  C   UNL     1     -14.146   0.409 -34.129  1.00  0.00     0.034 C 
ENDBRANCH  35  36
ENDBRANCH  32  35
ENDBRANCH   1  29
BRANCH   6  38
HETATM   38  N   UNL     1      -6.823  -1.363 -34.254  1.00  0.00    -0.384 N 
HETATM   39  H   UNL     1      -6.287  -2.112 -34.682  1.00  0.00     0.157 HD
HETATM   40  H   UNL     1      -7.487  -0.920 -34.878  1.00  0.00     0.157 HD
ENDBRANCH   6  38
TORSDOF 10
ENDMDL
MODEL 5
REMARK VINA RESULT:      -8.0      1.967      2.877
REMARK  10 active torsions:
REMARK  status: ('A' for Active; 'I' for Inactive)
REMARK    1  A    between atoms: C_2  and  O_3 
REMARK    2  A    between atoms: O_3  and  C_4 
REMARK    3  A    between atoms: C_7  and  N_8 
REMARK    4  A    between atoms: C_9  and  S_10 
REMARK    5  A    between atoms: S_10  and  C_11 
REMARK    6  A    between atoms: C_11  and  C_12 
REMARK       I    between atoms: C_12  and  N_13 
REMARK    7  A    between atoms: N_13  and  C_14 
REMARK    8  A    between atoms: C_15  and  O_16 
REMARK    9  A    between atoms: C_19  and  O_20 
REMARK   10  A    between atoms: C_29  and  N_30 
ROOT
HETATM    1  N   UNL     1      -9.161   1.912 -33.462  1.00  0.00    -0.276 N 
HETATM    2  C   UNL     1      -8.816   3.230 -33.570  1.00  0.00     0.177 A 
HETATM    3  N   UNL     1      -9.692   4.241 -33.546  1.00  0.00    -0.204 NA
HETATM    4  C   UNL     1     -10.954   3.847 -33.457  1.00  0.00     0.162 A 
HETATM    5  C   UNL     1     -11.400   2.550 -33.345  1.00  0.00     0.081 A 
HETATM    6  C   UNL     1     -10.460   1.508 -33.306  1.00  0.00     0.124 A 
HETATM    7  N   UNL     1     -12.048   4.659 -33.463  1.00  0.00    -0.260 N 
HETATM    8  H   UNL     1     -12.069   5.672 -33.543  1.00  0.00     0.191 HD
HETATM    9  N   UNL     1     -13.200   3.976 -33.356  1.00  0.00    -0.177 NA
HETATM   10  C   UNL     1     -12.820   2.694 -33.293  1.00  0.00     0.068 A 
HETATM   11  C   UNL     1     -13.860   1.637 -33.192  1.00  0.00     0.073 C 
ENDROOT
BRANCH   2  12
HETATM   12  S   UNL     1      -7.106   3.771 -33.758  1.00  0.00    -0.082 SA
BRANCH  12  13
HETATM   13  C   UNL     1      -7.194   5.517 -33.182  1.00  0.00     0.185 C 
BRANCH  13  14
HETATM   14  C   UNL     1      -7.083   5.655 -31.670  1.00  0.00     0.232 C 
HETATM   15  N   UNL     1      -5.923   5.398 -31.004  1.00  0.00    -0.324 N 
HETATM   16  H   UNL     1      -6.070   5.214 -30.013  1.00  0.00     0.169 HD
HETATM   17  O   UNL     1      -8.088   5.919 -30.999  1.00  0.00    -0.272 OA
BRANCH  15  18
HETATM   18  C   UNL     1      -4.566   5.415 -31.376  1.00  0.00     0.070 A 
HETATM   19  C   UNL     1      -3.857   4.200 -31.259  1.00  0.00     0.097 A 
HETATM   20  C   UNL     1      -2.483   4.154 -31.535  1.00  0.00     0.077 A 
HETATM   21  C   UNL     1      -1.797   5.315 -31.905  1.00  0.00     0.092 A 
HETATM   22  C   UNL     1      -2.509   6.522 -31.997  1.00  0.00     0.069 A 
HETATM   23 CL   UNL     1      -1.718   8.005 -32.408  1.00  0.00    -0.081 Cl
HETATM   24  C   UNL     1      -3.881   6.573 -31.732  1.00  0.00     0.059 A 
BRANCH  19  25
HETATM   25  O   UNL     1      -4.618   3.115 -30.885  1.00  0.00    -0.354 OA
HETATM   26  C   UNL     1      -4.153   1.823 -31.262  1.00  0.00     0.210 C 
ENDBRANCH  19  25
BRANCH  21  27
HETATM   27  O   UNL     1      -0.457   5.373 -32.182  1.00  0.00    -0.354 OA
HETATM   28  C   UNL     1       0.456   5.380 -31.093  1.00  0.00     0.210 C 
ENDBRANCH  21  27
ENDBRANCH  15  18
ENDBRANCH  13  14
ENDBRANCH  12  13
ENDBRANCH   2  12
BRANCH   1  29
HETATM   29  C   UNL     1      -8.150   0.896 -33.562  1.00  0.00     0.043 A 
HETATM   30  C   UNL     1      -7.533   0.420 -32.403  1.00  0.00     0.033 A 
HETATM   31  C   UNL     1      -6.653  -0.664 -32.501  1.00  0.00     0.039 A 
HETATM   32  C   UNL     1      -6.416  -1.270 -33.739  1.00  0.00     0.068 A 
HETATM   33  C   UNL     1      -7.047  -0.774 -34.887  1.00  0.00     0.039 A 
HETATM   34  C   UNL     1      -7.918   0.311 -34.808  1.00  0.00     0.033 A 
BRANCH  32  35
HETATM   35  O   UNL     1      -5.622  -2.356 -33.967  1.00  0.00    -0.352 OA
BRANCH  35  36
HETATM   36  C   UNL     1      -5.795  -3.069 -35.191  1.00  0.00     0.171 C 
HETATM   37  C   UNL     1      -6.396  -4.423 -34.860  1.00  0.00     0.034 C 
ENDBRANCH  35  36
ENDBRANCH  32  35
ENDBRANCH   1  29
BRANCH   6  38
HETATM   38  N   UNL     1     -10.828   0.177 -33.132  1.00  0.00    -0.384 N 
HETATM   39  H   UNL     1     -11.818  -0.042 -33.062  1.00  0.00     0.157 HD
HETATM   40  H   UNL     1     -10.224  -0.479 -32.650  1.00  0.00     0.157 HD
ENDBRANCH   6  38
TORSDOF 10
ENDMDL
MODEL 6
REMARK VINA RESULT:      -7.7      3.603      6.490
REMARK  10 active torsions:
REMARK  status: ('A' for Active; 'I' for Inactive)
REMARK    1  A    between atoms: C_2  and  O_3 
REMARK    2  A    between atoms: O_3  and  C_4 
REMARK    3  A    between atoms: C_7  and  N_8 
REMARK    4  A    between atoms: C_9  and  S_10 
REMARK    5  A    between atoms: S_10  and  C_11 
REMARK    6  A    between atoms: C_11  and  C_12 
REMARK       I    between atoms: C_12  and  N_13 
REMARK    7  A    between atoms: N_13  and  C_14 
REMARK    8  A    between atoms: C_15  and  O_16 
REMARK    9  A    between atoms: C_19  and  O_20 
REMARK   10  A    between atoms: C_29  and  N_30 
ROOT
HETATM    1  N   UNL     1      -6.644   0.357 -32.518  1.00  0.00    -0.276 N 
HETATM    2  C   UNL     1      -6.001   1.043 -31.527  1.00  0.00     0.177 A 
HETATM    3  N   UNL     1      -4.797   0.715 -31.044  1.00  0.00    -0.204 NA
HETATM    4  C   UNL     1      -4.291  -0.383 -31.586  1.00  0.00     0.162 A 
HETATM    5  C   UNL     1      -4.859  -1.141 -32.584  1.00  0.00     0.081 A 
HETATM    6  C   UNL     1      -6.093  -0.742 -33.121  1.00  0.00     0.124 A 
HETATM    7  N   UNL     1      -3.109  -0.970 -31.247  1.00  0.00    -0.260 N 
HETATM    8  H   UNL     1      -2.446  -0.669 -30.538  1.00  0.00     0.191 HD
HETATM    9  N   UNL     1      -2.854  -2.075 -31.968  1.00  0.00    -0.177 NA
HETATM   10  C   UNL     1      -3.914  -2.194 -32.777  1.00  0.00     0.068 A 
HETATM   11  C   UNL     1      -3.981  -3.345 -33.716  1.00  0.00     0.073 C 
ENDROOT
BRANCH   2  12
HETATM   12  S   UNL     1      -6.713   2.502 -30.740  1.00  0.00    -0.082 SA
BRANCH  12  13
HETATM   13  C   UNL     1      -5.250   3.610 -30.600  1.00  0.00     0.185 C 
BRANCH  13  14
HETATM   14  C   UNL     1      -4.932   4.348 -31.894  1.00  0.00     0.232 C 
HETATM   15  N   UNL     1      -4.023   5.360 -31.945  1.00  0.00    -0.324 N 
HETATM   16  H   UNL     1      -4.146   5.960 -32.759  1.00  0.00     0.169 HD
HETATM   17  O   UNL     1      -5.574   4.095 -32.922  1.00  0.00    -0.272 OA
BRANCH  15  18
HETATM   18  C   UNL     1      -2.907   5.703 -31.159  1.00  0.00     0.070 A 
HETATM   19  C   UNL     1      -3.088   6.730 -30.207  1.00  0.00     0.097 A 
HETATM   20  C   UNL     1      -2.004   7.181 -29.441  1.00  0.00     0.077 A 
HETATM   21  C   UNL     1      -0.729   6.637 -29.630  1.00  0.00     0.092 A 
HETATM   22  C   UNL     1      -0.558   5.632 -30.594  1.00  0.00     0.069 A 
HETATM   23 CL   UNL     1       0.997   4.943 -30.912  1.00  0.00    -0.081 Cl
HETATM   24  C   UNL     1      -1.637   5.170 -31.355  1.00  0.00     0.059 A 
BRANCH  19  25
HETATM   25  O   UNL     1      -4.376   7.203 -30.098  1.00  0.00    -0.354 OA
HETATM   26  C   UNL     1      -5.065   6.962 -28.876  1.00  0.00     0.210 C 
ENDBRANCH  19  25
BRANCH  21  27
HETATM   27  O   UNL     1       0.391   7.021 -28.940  1.00  0.00    -0.354 OA
HETATM   28  C   UNL     1       0.558   6.544 -27.611  1.00  0.00     0.210 C 
ENDBRANCH  21  27
ENDBRANCH  15  18
ENDBRANCH  13  14
ENDBRANCH  12  13
ENDBRANCH   2  12
BRANCH   1  29
HETATM   29  C   UNL     1      -7.965   0.753 -32.924  1.00  0.00     0.043 A 
HETATM   30  C   UNL     1      -8.120   1.732 -33.908  1.00  0.00     0.033 A 
HETATM   31  C   UNL     1      -9.404   2.008 -34.391  1.00  0.00     0.039 A 
HETATM   32  C   UNL     1     -10.507   1.297 -33.909  1.00  0.00     0.068 A 
HETATM   33  C   UNL     1     -10.325   0.321 -32.921  1.00  0.00     0.039 A 
HETATM   34  C   UNL     1      -9.055   0.041 -32.421  1.00  0.00     0.033 A 
BRANCH  32  35
HETATM   35  O   UNL     1     -11.800   1.434 -34.323  1.00  0.00    -0.352 OA
BRANCH  35  36
HETATM   36  C   UNL     1     -12.626   2.377 -33.643  1.00  0.00     0.171 C 
HETATM   37  C   UNL     1     -13.901   1.665 -33.228  1.00  0.00     0.034 C 
ENDBRANCH  35  36
ENDBRANCH  32  35
ENDBRANCH   1  29
BRANCH   6  38
HETATM   38  N   UNL     1      -6.702  -1.418 -34.174  1.00  0.00    -0.384 N 
HETATM   39  H   UNL     1      -6.719  -2.434 -34.147  1.00  0.00     0.157 HD
HETATM   40  H   UNL     1      -6.722  -1.029 -35.111  1.00  0.00     0.157 HD
ENDBRANCH   6  38
TORSDOF 10
ENDMDL
MODEL 7
REMARK VINA RESULT:      -7.6      2.606      7.045
REMARK  10 active torsions:
REMARK  status: ('A' for Active; 'I' for Inactive)
REMARK    1  A    between atoms: C_2  and  O_3 
REMARK    2  A    between atoms: O_3  and  C_4 
REMARK    3  A    between atoms: C_7  and  N_8 
REMARK    4  A    between atoms: C_9  and  S_10 
REMARK    5  A    between atoms: S_10  and  C_11 
REMARK    6  A    between atoms: C_11  and  C_12 
REMARK       I    between atoms: C_12  and  N_13 
REMARK    7  A    between atoms: N_13  and  C_14 
REMARK    8  A    between atoms: C_15  and  O_16 
REMARK    9  A    between atoms: C_19  and  O_20 
REMARK   10  A    between atoms: C_29  and  N_30 
ROOT
HETATM    1  N   UNL     1      -5.262   3.259 -31.721  1.00  0.00    -0.276 N 
HETATM    2  C   UNL     1      -6.219   4.032 -31.126  1.00  0.00     0.177 A 
HETATM    3  N   UNL     1      -5.993   5.245 -30.610  1.00  0.00    -0.204 NA
HETATM    4  C   UNL     1      -4.725   5.623 -30.682  1.00  0.00     0.162 A 
HETATM    5  C   UNL     1      -3.692   4.919 -31.257  1.00  0.00     0.081 A 
HETATM    6  C   UNL     1      -3.964   3.676 -31.851  1.00  0.00     0.124 A 
HETATM    7  N   UNL     1      -4.207   6.784 -30.192  1.00  0.00    -0.260 N 
HETATM    8  H   UNL     1      -4.699   7.524 -29.699  1.00  0.00     0.191 HD
HETATM    9  N   UNL     1      -2.887   6.896 -30.413  1.00  0.00    -0.177 NA
HETATM   10  C   UNL     1      -2.561   5.765 -31.051  1.00  0.00     0.068 A 
HETATM   11  C   UNL     1      -1.143   5.537 -31.436  1.00  0.00     0.073 C 
ENDROOT
BRANCH   2  12
HETATM   12  S   UNL     1      -7.934   3.497 -30.967  1.00  0.00    -0.082 SA
BRANCH  12  13
HETATM   13  C   UNL     1      -8.820   4.756 -31.976  1.00  0.00     0.185 C 
BRANCH  13  14
HETATM   14  C   UNL     1      -8.500   4.665 -33.462  1.00  0.00     0.232 C 
HETATM   15  N   UNL     1      -8.909   3.614 -34.227  1.00  0.00    -0.324 N 
HETATM   16  H   UNL     1      -8.368   3.519 -35.084  1.00  0.00     0.169 HD
HETATM   17  O   UNL     1      -7.773   5.516 -33.990  1.00  0.00    -0.272 OA
BRANCH  15  18
HETATM   18  C   UNL     1      -9.964   2.690 -34.122  1.00  0.00     0.070 A 
HETATM   19  C   UNL     1     -11.250   3.145 -34.486  1.00  0.00     0.097 A 
HETATM   20  C   UNL     1     -12.365   2.308 -34.334  1.00  0.00     0.077 A 
HETATM   21  C   UNL     1     -12.218   1.024 -33.798  1.00  0.00     0.092 A 
HETATM   22  C   UNL     1     -10.937   0.591 -33.420  1.00  0.00     0.069 A 
HETATM   23 CL   UNL     1     -10.686  -0.967 -32.712  1.00  0.00    -0.081 Cl
HETATM   24  C   UNL     1      -9.819   1.417 -33.577  1.00  0.00     0.059 A 
BRANCH  19  25
HETATM   25  O   UNL     1     -11.293   4.422 -34.998  1.00  0.00    -0.354 OA
HETATM   26  C   UNL     1     -12.507   4.847 -35.608  1.00  0.00     0.210 C 
ENDBRANCH  19  25
BRANCH  21  27
HETATM   27  O   UNL     1     -13.246   0.141 -33.601  1.00  0.00    -0.354 OA
HETATM   28  C   UNL     1     -14.559   0.546 -33.963  1.00  0.00     0.210 C 
ENDBRANCH  21  27
ENDBRANCH  15  18
ENDBRANCH  13  14
ENDBRANCH  12  13
ENDBRANCH   2  12
BRANCH   1  29
HETATM   29  C   UNL     1      -5.593   1.940 -32.188  1.00  0.00     0.043 A 
HETATM   30  C   UNL     1      -5.994   1.760 -33.514  1.00  0.00     0.033 A 
HETATM   31  C   UNL     1      -6.179   0.458 -33.993  1.00  0.00     0.039 A 
HETATM   32  C   UNL     1      -5.943  -0.640 -33.160  1.00  0.00     0.068 A 
HETATM   33  C   UNL     1      -5.542  -0.432 -31.834  1.00  0.00     0.039 A 
HETATM   34  C   UNL     1      -5.363   0.858 -31.338  1.00  0.00     0.033 A 
BRANCH  32  35
HETATM   35  O   UNL     1      -6.040  -1.955 -33.510  1.00  0.00    -0.352 OA
BRANCH  35  36
HETATM   36  C   UNL     1      -6.800  -2.286 -34.672  1.00  0.00     0.171 C 
HETATM   37  C   UNL     1      -6.793  -3.797 -34.819  1.00  0.00     0.034 C 
ENDBRANCH  35  36
ENDBRANCH  32  35
ENDBRANCH   1  29
BRANCH   6  38
HETATM   38  N   UNL     1      -2.987   2.933 -32.507  1.00  0.00    -0.384 N 
HETATM   39  H   UNL     1      -2.037   3.291 -32.516  1.00  0.00     0.157 HD
HETATM   40  H   UNL     1      -3.215   2.345 -33.301  1.00  0.00     0.157 HD
ENDBRANCH   6  38
TORSDOF 10
ENDMDL
MODEL 8
REMARK VINA RESULT:      -7.4      2.707      4.003
REMARK  10 active torsions:
REMARK  status: ('A' for Active; 'I' for Inactive)
REMARK    1  A    between atoms: C_2  and  O_3 
REMARK    2  A    between atoms: O_3  and  C_4 
REMARK    3  A    between atoms: C_7  and  N_8 
REMARK    4  A    between atoms: C_9  and  S_10 
REMARK    5  A    between atoms: S_10  and  C_11 
REMARK    6  A    between atoms: C_11  and  C_12 
REMARK       I    between atoms: C_12  and  N_13 
REMARK    7  A    between atoms: N_13  and  C_14 
REMARK    8  A    between atoms: C_15  and  O_16 
REMARK    9  A    between atoms: C_19  and  O_20 
REMARK   10  A    between atoms: C_29  and  N_30 
ROOT
HETATM    1  N   UNL     1      -9.104   1.852 -33.363  1.00  0.00    -0.276 N 
HETATM    2  C   UNL     1      -8.750   3.171 -33.410  1.00  0.00     0.177 A 
HETATM    3  N   UNL     1      -9.620   4.186 -33.353  1.00  0.00    -0.204 NA
HETATM    4  C   UNL     1     -10.885   3.796 -33.295  1.00  0.00     0.162 A 
HETATM    5  C   UNL     1     -11.341   2.499 -33.245  1.00  0.00     0.081 A 
HETATM    6  C   UNL     1     -10.407   1.450 -33.241  1.00  0.00     0.124 A 
HETATM    7  N   UNL     1     -11.975   4.615 -33.278  1.00  0.00    -0.260 N 
HETATM    8  H   UNL     1     -11.989   5.631 -33.314  1.00  0.00     0.191 HD
HETATM    9  N   UNL     1     -13.132   3.935 -33.215  1.00  0.00    -0.177 NA
HETATM   10  C   UNL     1     -12.760   2.649 -33.203  1.00  0.00     0.068 A 
HETATM   11  C   UNL     1     -13.808   1.595 -33.161  1.00  0.00     0.073 C 
ENDROOT
BRANCH   2  12
HETATM   12  S   UNL     1      -7.035   3.709 -33.554  1.00  0.00    -0.082 SA
BRANCH  12  13
HETATM   13  C   UNL     1      -6.811   4.684 -32.010  1.00  0.00     0.185 C 
BRANCH  13  14
HETATM   14  C   UNL     1      -5.930   3.985 -30.983  1.00  0.00     0.232 C 
HETATM   15  N   UNL     1      -4.653   4.386 -30.732  1.00  0.00    -0.324 N 
HETATM   16  H   UNL     1      -4.092   3.661 -30.289  1.00  0.00     0.169 HD
HETATM   17  O   UNL     1      -6.337   2.964 -30.413  1.00  0.00    -0.272 OA
BRANCH  15  18
HETATM   18  C   UNL     1      -3.973   5.609 -30.882  1.00  0.00     0.070 A 
HETATM   19  C   UNL     1      -4.138   6.562 -29.853  1.00  0.00     0.097 A 
HETATM   20  C   UNL     1      -3.557   7.832 -29.967  1.00  0.00     0.077 A 
HETATM   21  C   UNL     1      -2.829   8.177 -31.111  1.00  0.00     0.092 A 
HETATM   22  C   UNL     1      -2.690   7.229 -32.136  1.00  0.00     0.069 A 
HETATM   23 CL   UNL     1      -1.840   7.600 -33.597  1.00  0.00    -0.081 Cl
HETATM   24  C   UNL     1      -3.259   5.956 -32.025  1.00  0.00     0.059 A 
BRANCH  19  25
HETATM   25  O   UNL     1      -4.873   6.130 -28.772  1.00  0.00    -0.354 OA
HETATM   26  C   UNL     1      -5.645   7.099 -28.071  1.00  0.00     0.210 C 
ENDBRANCH  19  25
BRANCH  21  27
HETATM   27  O   UNL     1      -2.236   9.394 -31.318  1.00  0.00    -0.354 OA
HETATM   28  C   UNL     1      -2.556  10.458 -30.431  1.00  0.00     0.210 C 
ENDBRANCH  21  27
ENDBRANCH  15  18
ENDBRANCH  13  14
ENDBRANCH  12  13
ENDBRANCH   2  12
BRANCH   1  29
HETATM   29  C   UNL     1      -8.098   0.834 -33.496  1.00  0.00     0.043 A 
HETATM   30  C   UNL     1      -7.456   0.347 -32.356  1.00  0.00     0.033 A 
HETATM   31  C   UNL     1      -6.581  -0.738 -32.484  1.00  0.00     0.039 A 
HETATM   32  C   UNL     1      -6.374  -1.334 -33.732  1.00  0.00     0.068 A 
HETATM   33  C   UNL     1      -7.029  -0.825 -34.861  1.00  0.00     0.039 A 
HETATM   34  C   UNL     1      -7.896   0.261 -34.753  1.00  0.00     0.033 A 
BRANCH  32  35
HETATM   35  O   UNL     1      -5.588  -2.419 -33.988  1.00  0.00    -0.352 OA
BRANCH  35  36
HETATM   36  C   UNL     1      -5.740  -3.076 -35.246  1.00  0.00     0.171 C 
HETATM   37  C   UNL     1      -6.393  -4.422 -34.991  1.00  0.00     0.034 C 
ENDBRANCH  35  36
ENDBRANCH  32  35
ENDBRANCH   1  29
BRANCH   6  38
HETATM   38  N   UNL     1     -10.786   0.115 -33.129  1.00  0.00    -0.384 N 
HETATM   39  H   UNL     1     -10.058  -0.580 -32.995  1.00  0.00     0.157 HD
HETATM   40  H   UNL     1     -11.617  -0.239 -33.589  1.00  0.00     0.157 HD
ENDBRANCH   6  38
TORSDOF 10
ENDMDL
MODEL 9
REMARK VINA RESULT:      -7.3      3.258      7.608
REMARK  10 active torsions:
REMARK  status: ('A' for Active; 'I' for Inactive)
REMARK    1  A    between atoms: C_2  and  O_3 
REMARK    2  A    between atoms: O_3  and  C_4 
REMARK    3  A    between atoms: C_7  and  N_8 
REMARK    4  A    between atoms: C_9  and  S_10 
REMARK    5  A    between atoms: S_10  and  C_11 
REMARK    6  A    between atoms: C_11  and  C_12 
REMARK       I    between atoms: C_12  and  N_13 
REMARK    7  A    between atoms: N_13  and  C_14 
REMARK    8  A    between atoms: C_15  and  O_16 
REMARK    9  A    between atoms: C_19  and  O_20 
REMARK   10  A    between atoms: C_29  and  N_30 
ROOT
HETATM    1  N   UNL     1      -6.271   5.809 -31.856  1.00  0.00    -0.276 N 
HETATM    2  C   UNL     1      -6.933   5.219 -32.895  1.00  0.00     0.177 A 
HETATM    3  N   UNL     1      -6.360   4.875 -34.054  1.00  0.00    -0.204 NA
HETATM    4  C   UNL     1      -5.079   5.207 -34.130  1.00  0.00     0.162 A 
HETATM    5  C   UNL     1      -4.328   5.802 -33.143  1.00  0.00     0.081 A 
HETATM    6  C   UNL     1      -4.933   6.095 -31.911  1.00  0.00     0.124 A 
HETATM    7  N   UNL     1      -4.268   5.022 -35.209  1.00  0.00    -0.260 N 
HETATM    8  H   UNL     1      -4.513   4.616 -36.108  1.00  0.00     0.191 HD
HETATM    9  N   UNL     1      -3.015   5.456 -34.995  1.00  0.00    -0.177 NA
HETATM   10  C   UNL     1      -3.041   5.941 -33.747  1.00  0.00     0.068 A 
HETATM   11  C   UNL     1      -1.804   6.537 -33.178  1.00  0.00     0.073 C 
ENDROOT
BRANCH   2  12
HETATM   12  S   UNL     1      -8.691   4.822 -32.823  1.00  0.00    -0.082 SA
BRANCH  12  13
HETATM   13  C   UNL     1      -8.666   2.982 -32.806  1.00  0.00     0.185 C 
BRANCH  13  14
HETATM   14  C   UNL     1      -8.707   2.396 -31.401  1.00  0.00     0.232 C 
HETATM   15  N   UNL     1      -8.202   1.163 -31.118  1.00  0.00    -0.324 N 
HETATM   16  H   UNL     1      -8.576   0.774 -30.255  1.00  0.00     0.169 HD
HETATM   17  O   UNL     1      -9.291   3.004 -30.496  1.00  0.00    -0.272 OA
BRANCH  15  18
HETATM   18  C   UNL     1      -7.219   0.355 -31.719  1.00  0.00     0.070 A 
HETATM   19  C   UNL     1      -5.890   0.533 -31.279  1.00  0.00     0.097 A 
HETATM   20  C   UNL     1      -4.845  -0.179 -31.884  1.00  0.00     0.077 A 
HETATM   21  C   UNL     1      -5.105  -1.053 -32.945  1.00  0.00     0.092 A 
HETATM   22  C   UNL     1      -6.428  -1.205 -33.387  1.00  0.00     0.069 A 
HETATM   23 CL   UNL     1      -6.820  -2.236 -34.721  1.00  0.00    -0.081 Cl
HETATM   24  C   UNL     1      -7.478  -0.505 -32.782  1.00  0.00     0.059 A 
BRANCH  19  25
HETATM   25  O   UNL     1      -5.735   1.416 -30.234  1.00  0.00    -0.354 OA
HETATM   26  C   UNL     1      -4.925   2.565 -30.457  1.00  0.00     0.210 C 
ENDBRANCH  19  25
BRANCH  21  27
HETATM   27  O   UNL     1      -4.151  -1.780 -33.606  1.00  0.00    -0.354 OA
HETATM   28  C   UNL     1      -3.689  -2.984 -33.008  1.00  0.00     0.210 C 
ENDBRANCH  21  27
ENDBRANCH  15  18
ENDBRANCH  13  14
ENDBRANCH  12  13
ENDBRANCH   2  12
BRANCH   1  29
HETATM   29  C   UNL     1      -6.992   6.197 -30.674  1.00  0.00     0.043 A 
HETATM   30  C   UNL     1      -6.972   5.367 -29.551  1.00  0.00     0.033 A 
HETATM   31  C   UNL     1      -7.561   5.820 -28.365  1.00  0.00     0.039 A 
HETATM   32  C   UNL     1      -8.138   7.093 -28.305  1.00  0.00     0.068 A 
HETATM   33  C   UNL     1      -8.145   7.905 -29.446  1.00  0.00     0.039 A 
HETATM   34  C   UNL     1      -7.573   7.465 -30.638  1.00  0.00     0.033 A 
BRANCH  32  35
HETATM   35  O   UNL     1      -8.702   7.673 -27.207  1.00  0.00    -0.352 OA
BRANCH  35  36
HETATM   36  C   UNL     1      -9.933   8.374 -27.376  1.00  0.00     0.171 C 
HETATM   37  C   UNL     1     -10.772   8.150 -26.130  1.00  0.00     0.034 C 
ENDBRANCH  35  36
ENDBRANCH  32  35
ENDBRANCH   1  29
BRANCH   6  38
HETATM   38  N   UNL     1      -4.226   6.638 -30.843  1.00  0.00    -0.384 N 
HETATM   39  H   UNL     1      -4.679   7.352 -30.280  1.00  0.00     0.157 HD
HETATM   40  H   UNL     1      -3.214   6.704 -30.858  1.00  0.00     0.157 HD
ENDBRANCH   6  38
TORSDOF 10
ENDMDL
MODEL 10
REMARK VINA RESULT:      -7.3      3.814      8.490
REMARK  10 active torsions:
REMARK  status: ('A' for Active; 'I' for Inactive)
REMARK    1  A    between atoms: C_2  and  O_3 
REMARK    2  A    between atoms: O_3  and  C_4 
REMARK    3  A    between atoms: C_7  and  N_8 
REMARK    4  A    between atoms: C_9  and  S_10 
REMARK    5  A    between atoms: S_10  and  C_11 
REMARK    6  A    between atoms: C_11  and  C_12 
REMARK       I    between atoms: C_12  and  N_13 
REMARK    7  A    between atoms: N_13  and  C_14 
REMARK    8  A    between atoms: C_15  and  O_16 
REMARK    9  A    between atoms: C_19  and  O_20 
REMARK   10  A    between atoms: C_29  and  N_30 
ROOT
HETATM    1  N   UNL     1      -5.553   0.446 -32.563  1.00  0.00    -0.276 N 
HETATM    2  C   UNL     1      -6.225   0.273 -33.740  1.00  0.00     0.177 A 
HETATM    3  N   UNL     1      -6.133  -0.821 -34.505  1.00  0.00    -0.204 NA
HETATM    4  C   UNL     1      -5.279  -1.722 -34.040  1.00  0.00     0.162 A 
HETATM    5  C   UNL     1      -4.557  -1.639 -32.872  1.00  0.00     0.081 A 
HETATM    6  C   UNL     1      -4.718  -0.511 -32.051  1.00  0.00     0.124 A 
HETATM    7  N   UNL     1      -4.954  -2.901 -34.641  1.00  0.00    -0.260 N 
HETATM    8  H   UNL     1      -5.302  -3.265 -35.524  1.00  0.00     0.191 HD
HETATM    9  N   UNL     1      -4.060  -3.612 -33.936  1.00  0.00    -0.177 NA
HETATM   10  C   UNL     1      -3.804  -2.852 -32.863  1.00  0.00     0.068 A 
HETATM   11  C   UNL     1      -2.818  -3.329 -31.858  1.00  0.00     0.073 C 
ENDROOT
BRANCH   2  12
HETATM   12  S   UNL     1      -7.340   1.522 -34.412  1.00  0.00    -0.082 SA
BRANCH  12  13
HETATM   13  C   UNL     1      -8.970   0.675 -34.302  1.00  0.00     0.185 C 
BRANCH  13  14
HETATM   14  C   UNL     1      -9.662   0.880 -32.961  1.00  0.00     0.232 C 
HETATM   15  N   UNL     1     -10.368   2.009 -32.677  1.00  0.00    -0.324 N 
HETATM   16  H   UNL     1     -10.491   2.156 -31.677  1.00  0.00     0.169 HD
HETATM   17  O   UNL     1      -9.516   0.047 -32.057  1.00  0.00    -0.272 OA
BRANCH  15  18
HETATM   18  C   UNL     1     -11.029   2.967 -33.470  1.00  0.00     0.070 A 
HETATM   19  C   UNL     1     -12.372   2.697 -33.810  1.00  0.00     0.097 A 
HETATM   20  C   UNL     1     -13.073   3.563 -34.661  1.00  0.00     0.077 A 
HETATM   21  C   UNL     1     -12.441   4.688 -35.201  1.00  0.00     0.092 A 
HETATM   22  C   UNL     1     -11.099   4.933 -34.872  1.00  0.00     0.069 A 
HETATM   23 CL   UNL     1     -10.241   6.282 -35.536  1.00  0.00    -0.081 Cl
HETATM   24  C   UNL     1     -10.396   4.079 -34.016  1.00  0.00     0.059 A 
BRANCH  19  25
HETATM   25  O   UNL     1     -12.903   1.565 -33.232  1.00  0.00    -0.354 OA
HETATM   26  C   UNL     1     -13.391   0.549 -34.102  1.00  0.00     0.210 C 
ENDBRANCH  19  25
BRANCH  21  27
HETATM   27  O   UNL     1     -13.038   5.583 -36.049  1.00  0.00    -0.354 OA
HETATM   28  C   UNL     1     -13.859   6.598 -35.486  1.00  0.00     0.210 C 
ENDBRANCH  21  27
ENDBRANCH  15  18
ENDBRANCH  13  14
ENDBRANCH  12  13
ENDBRANCH   2  12
BRANCH   1  29
HETATM   29  C   UNL     1      -5.671   1.686 -31.846  1.00  0.00     0.043 A 
HETATM   30  C   UNL     1      -6.646   1.819 -30.855  1.00  0.00     0.033 A 
HETATM   31  C   UNL     1      -6.661   2.979 -30.071  1.00  0.00     0.039 A 
HETATM   32  C   UNL     1      -5.697   3.974 -30.266  1.00  0.00     0.068 A 
HETATM   33  C   UNL     1      -4.730   3.816 -31.268  1.00  0.00     0.039 A 
HETATM   34  C   UNL     1      -4.708   2.673 -32.064  1.00  0.00     0.033 A 
BRANCH  32  35
HETATM   35  O   UNL     1      -5.569   5.126 -29.547  1.00  0.00    -0.352 OA
BRANCH  35  36
HETATM   36  C   UNL     1      -6.747   5.888 -29.285  1.00  0.00     0.171 C 
HETATM   37  C   UNL     1      -6.746   7.083 -30.222  1.00  0.00     0.034 C 
ENDBRANCH  35  36
ENDBRANCH  32  35
ENDBRANCH   1  29
BRANCH   6  38
HETATM   38  N   UNL     1      -4.073  -0.382 -30.825  1.00  0.00    -0.384 N 
HETATM   39  H   UNL     1      -4.401   0.332 -30.182  1.00  0.00     0.157 HD
HETATM   40  H   UNL     1      -3.092  -0.618 -30.717  1.00  0.00     0.157 HD
ENDBRANCH   6  38
TORSDOF 10
ENDMDL
