MODEL 1
REMARK VINA RESULT:      -9.4      0.000      0.000
REMARK  4 active torsions:
REMARK  status: ('A' for Active; 'I' for Inactive)
REMARK    1  A    between atoms: C_8  and  C_9 
REMARK    2  A    between atoms: N_10  and  N_11 
REMARK       I    between atoms: N_11  and  C_12 
REMARK    3  A    between atoms: C_12  and  C_13 
REMARK    4  A    between atoms: C_17  and  C_18 
ROOT
HETATM    1  N   UNL     1      -2.641   3.812 -31.264  1.00  0.00    -0.242 N 
HETATM    2  C   UNL     1      -1.646   4.668 -31.710  1.00  0.00     0.292 C 
HETATM    3  O   UNL     1      -1.477   5.024 -32.874  1.00  0.00    -0.264 OA
HETATM    4  H   UNL     1      -2.668   3.605 -30.269  1.00  0.00     0.192 HD
ENDROOT
BRANCH   2   5
HETATM    5  C   UNL     1      -0.776   5.139 -30.620  1.00  0.00     0.148 A 
HETATM    6  N   UNL     1       0.221   4.392 -30.103  1.00  0.00    -0.169 NA
HETATM    7  N   UNL     1       0.750   5.183 -29.148  1.00  0.00    -0.277 N 
HETATM    8  H   UNL     1       1.520   4.818 -28.596  1.00  0.00     0.189 HD
HETATM    9  C   UNL     1       0.149   6.410 -29.024  1.00  0.00     0.063 A 
HETATM   10  C   UNL     1      -0.852   6.398 -29.973  1.00  0.00     0.071 A 
BRANCH   9  11
HETATM   11  C   UNL     1       0.538   7.432 -28.052  1.00  0.00    -0.005 A 
HETATM   12  C   UNL     1      -0.029   8.715 -28.076  1.00  0.00     0.053 A 
HETATM   13  C   UNL     1       0.371   9.625 -27.116  1.00  0.00     0.106 A 
HETATM   14  C   UNL     1       1.299   9.308 -26.153  1.00  0.00     0.105 A 
HETATM   15  O   UNL     1      -0.085  10.900 -26.994  1.00  0.00    -0.323 OA
HETATM   16  O   UNL     1       1.546  10.341 -25.306  1.00  0.00    -0.323 OA
HETATM   17  C   UNL     1       1.881   8.062 -26.095  1.00  0.00     0.040 A 
HETATM   18  C   UNL     1       0.654  11.343 -25.835  1.00  0.00     0.352 A 
HETATM   19  C   UNL     1       1.492   7.120 -27.054  1.00  0.00     0.017 A 
ENDBRANCH   9  11
ENDBRANCH   2   5
BRANCH   1  20
HETATM   20  N   UNL     1      -3.545   3.289 -32.139  1.00  0.00    -0.183 NA
HETATM   21  C   UNL     1      -3.998   2.110 -31.859  1.00  0.00     0.152 C 
BRANCH  21  22
HETATM   22  C   UNL     1      -4.964   1.504 -32.753  1.00  0.00     0.011 A 
HETATM   23  C   UNL     1      -4.999   0.153 -33.229  1.00  0.00     0.004 A 
HETATM   24  C   UNL     1      -4.190  -0.986 -33.031  1.00  0.00     0.014 A 
HETATM   25  C   UNL     1      -6.113   0.034 -34.064  1.00  0.00     0.043 A 
HETATM   26  C   UNL     1      -4.522  -2.189 -33.668  1.00  0.00     0.001 A 
HETATM   27  C   UNL     1      -5.639  -2.272 -34.494  1.00  0.00     0.002 A 
HETATM   28  C   UNL     1      -6.458  -1.160 -34.709  1.00  0.00     0.030 A 
HETATM   29  N   UNL     1      -6.731   1.263 -34.097  1.00  0.00    -0.364 N 
HETATM   30  H   UNL     1      -7.567   1.474 -34.624  1.00  0.00     0.165 HD
HETATM   31  C   UNL     1      -6.051   2.150 -33.313  1.00  0.00     0.102 A 
ENDBRANCH  21  22
ENDBRANCH   1  20
TORSDOF 4
ENDMDL
MODEL 2
REMARK VINA RESULT:      -9.2      1.009      1.129
REMARK  4 active torsions:
REMARK  status: ('A' for Active; 'I' for Inactive)
REMARK    1  A    between atoms: C_8  and  C_9 
REMARK    2  A    between atoms: N_10  and  N_11 
REMARK       I    between atoms: N_11  and  C_12 
REMARK    3  A    between atoms: C_12  and  C_13 
REMARK    4  A    between atoms: C_17  and  C_18 
ROOT
HETATM    1  N   UNL     1      -3.400   3.896 -31.695  1.00  0.00    -0.242 N 
HETATM    2  C   UNL     1      -2.305   4.415 -32.369  1.00  0.00     0.292 C 
HETATM    3  O   UNL     1      -2.099   4.323 -33.577  1.00  0.00    -0.264 OA
HETATM    4  H   UNL     1      -3.447   4.050 -30.692  1.00  0.00     0.192 HD
ENDROOT
BRANCH   2   5
HETATM    5  C   UNL     1      -1.375   5.123 -31.475  1.00  0.00     0.148 A 
HETATM    6  N   UNL     1      -0.095   4.737 -31.293  1.00  0.00    -0.169 NA
HETATM    7  N   UNL     1       0.388   5.636 -30.412  1.00  0.00    -0.277 N 
HETATM    8  H   UNL     1       1.349   5.535 -30.103  1.00  0.00     0.189 HD
HETATM    9  C   UNL     1      -0.514   6.591 -30.018  1.00  0.00     0.063 A 
HETATM   10  C   UNL     1      -1.672   6.270 -30.697  1.00  0.00     0.071 A 
BRANCH   9  11
HETATM   11  C   UNL     1      -0.227   7.662 -29.063  1.00  0.00    -0.005 A 
HETATM   12  C   UNL     1      -1.210   8.591 -28.691  1.00  0.00     0.053 A 
HETATM   13  C   UNL     1      -0.876   9.565 -27.770  1.00  0.00     0.106 A 
HETATM   14  C   UNL     1       0.380   9.644 -27.217  1.00  0.00     0.105 A 
HETATM   15  O   UNL     1      -1.709  10.530 -27.298  1.00  0.00    -0.323 OA
HETATM   16  O   UNL     1       0.497  10.669 -26.333  1.00  0.00    -0.323 OA
HETATM   17  C   UNL     1       1.374   8.755 -27.556  1.00  0.00     0.040 A 
HETATM   18  C   UNL     1      -0.836  11.217 -26.376  1.00  0.00     0.352 A 
HETATM   19  C   UNL     1       1.062   7.756 -28.486  1.00  0.00     0.017 A 
ENDBRANCH   9  11
ENDBRANCH   2   5
BRANCH   1  20
HETATM   20  N   UNL     1      -4.369   3.218 -32.372  1.00  0.00    -0.183 NA
HETATM   21  C   UNL     1      -4.362   1.931 -32.247  1.00  0.00     0.152 C 
BRANCH  21  22
HETATM   22  C   UNL     1      -5.371   1.157 -32.942  1.00  0.00     0.011 A 
HETATM   23  C   UNL     1      -5.262  -0.176 -33.456  1.00  0.00     0.004 A 
HETATM   24  C   UNL     1      -4.236  -1.145 -33.480  1.00  0.00     0.014 A 
HETATM   25  C   UNL     1      -6.489  -0.498 -34.043  1.00  0.00     0.043 A 
HETATM   26  C   UNL     1      -4.474  -2.388 -34.083  1.00  0.00     0.001 A 
HETATM   27  C   UNL     1      -5.708  -2.675 -34.659  1.00  0.00     0.002 A 
HETATM   28  C   UNL     1      -6.742  -1.734 -34.650  1.00  0.00     0.030 A 
HETATM   29  N   UNL     1      -7.311   0.595 -33.893  1.00  0.00    -0.364 N 
HETATM   30  H   UNL     1      -8.265   0.647 -34.223  1.00  0.00     0.165 HD
HETATM   31  C   UNL     1      -6.652   1.591 -33.234  1.00  0.00     0.102 A 
ENDBRANCH  21  22
ENDBRANCH   1  20
TORSDOF 4
ENDMDL
MODEL 3
REMARK VINA RESULT:      -9.2      1.612      2.143
REMARK  4 active torsions:
REMARK  status: ('A' for Active; 'I' for Inactive)
REMARK    1  A    between atoms: C_8  and  C_9 
REMARK    2  A    between atoms: N_10  and  N_11 
REMARK       I    between atoms: N_11  and  C_12 
REMARK    3  A    between atoms: C_12  and  C_13 
REMARK    4  A    between atoms: C_17  and  C_18 
ROOT
HETATM    1  N   UNL     1      -2.843   3.515 -31.312  1.00  0.00    -0.242 N 
HETATM    2  C   UNL     1      -2.237   4.591 -31.943  1.00  0.00     0.292 C 
HETATM    3  O   UNL     1      -1.834   4.604 -33.104  1.00  0.00    -0.264 OA
HETATM    4  H   UNL     1      -3.133   3.643 -30.346  1.00  0.00     0.192 HD
ENDROOT
BRANCH   2   5
HETATM    5  C   UNL     1      -2.120   5.767 -31.067  1.00  0.00     0.148 A 
HETATM    6  N   UNL     1      -3.105   6.677 -30.926  1.00  0.00    -0.169 NA
HETATM    7  N   UNL     1      -2.593   7.570 -30.055  1.00  0.00    -0.277 N 
HETATM    8  H   UNL     1      -3.159   8.375 -29.806  1.00  0.00     0.189 HD
HETATM    9  C   UNL     1      -1.326   7.279 -29.618  1.00  0.00     0.063 A 
HETATM   10  C   UNL     1      -0.998   6.109 -30.271  1.00  0.00     0.071 A 
BRANCH   9  11
HETATM   11  C   UNL     1      -0.560   8.103 -28.682  1.00  0.00    -0.005 A 
HETATM   12  C   UNL     1      -1.174   9.114 -27.929  1.00  0.00     0.053 A 
HETATM   13  C   UNL     1      -0.394   9.842 -27.050  1.00  0.00     0.106 A 
HETATM   14  C   UNL     1       0.951   9.602 -26.900  1.00  0.00     0.105 A 
HETATM   15  O   UNL     1      -0.833  10.845 -26.244  1.00  0.00    -0.323 OA
HETATM   16  O   UNL     1       1.527  10.423 -25.984  1.00  0.00    -0.323 OA
HETATM   17  C   UNL     1       1.593   8.621 -27.620  1.00  0.00     0.040 A 
HETATM   18  C   UNL     1       0.388  11.198 -25.560  1.00  0.00     0.352 A 
HETATM   19  C   UNL     1       0.826   7.867 -28.516  1.00  0.00     0.017 A 
ENDBRANCH   9  11
ENDBRANCH   2   5
BRANCH   1  20
HETATM   20  N   UNL     1      -3.042   2.344 -31.981  1.00  0.00    -0.183 NA
HETATM   21  C   UNL     1      -3.587   1.385 -31.307  1.00  0.00     0.152 C 
BRANCH  21  22
HETATM   22  C   UNL     1      -3.826   0.116 -31.966  1.00  0.00     0.011 A 
HETATM   23  C   UNL     1      -4.822  -0.195 -32.947  1.00  0.00     0.004 A 
HETATM   24  C   UNL     1      -5.847   0.540 -33.583  1.00  0.00     0.014 A 
HETATM   25  C   UNL     1      -4.665  -1.540 -33.290  1.00  0.00     0.043 A 
HETATM   26  C   UNL     1      -6.667  -0.093 -34.527  1.00  0.00     0.001 A 
HETATM   27  C   UNL     1      -6.482  -1.436 -34.843  1.00  0.00     0.002 A 
HETATM   28  C   UNL     1      -5.476  -2.187 -34.230  1.00  0.00     0.030 A 
HETATM   29  N   UNL     1      -3.617  -2.030 -32.546  1.00  0.00    -0.364 N 
HETATM   30  H   UNL     1      -3.275  -2.980 -32.586  1.00  0.00     0.165 HD
HETATM   31  C   UNL     1      -3.106  -1.045 -31.750  1.00  0.00     0.102 A 
ENDBRANCH  21  22
ENDBRANCH   1  20
TORSDOF 4
ENDMDL
MODEL 4
REMARK VINA RESULT:      -9.1      3.672     11.405
REMARK  4 active torsions:
REMARK  status: ('A' for Active; 'I' for Inactive)
REMARK    1  A    between atoms: C_8  and  C_9 
REMARK    2  A    between atoms: N_10  and  N_11 
REMARK       I    between atoms: N_11  and  C_12 
REMARK    3  A    between atoms: C_12  and  C_13 
REMARK    4  A    between atoms: C_17  and  C_18 
ROOT
HETATM    1  N   UNL     1      -4.333   3.690 -31.934  1.00  0.00    -0.242 N 
HETATM    2  C   UNL     1      -5.655   3.597 -32.345  1.00  0.00     0.292 C 
HETATM    3  O   UNL     1      -6.534   4.423 -32.113  1.00  0.00    -0.264 OA
HETATM    4  H   UNL     1      -3.708   2.933 -32.199  1.00  0.00     0.192 HD
ENDROOT
BRANCH   2   5
HETATM    5  C   UNL     1      -5.921   2.375 -33.119  1.00  0.00     0.148 A 
HETATM    6  N   UNL     1      -6.717   2.355 -34.207  1.00  0.00    -0.169 NA
HETATM    7  N   UNL     1      -6.691   1.065 -34.599  1.00  0.00    -0.277 N 
HETATM    8  H   UNL     1      -7.245   0.798 -35.406  1.00  0.00     0.189 HD
HETATM    9  C   UNL     1      -5.910   0.248 -33.822  1.00  0.00     0.063 A 
HETATM   10  C   UNL     1      -5.404   1.083 -32.848  1.00  0.00     0.071 A 
BRANCH   9  11
HETATM   11  C   UNL     1      -5.735  -1.189 -34.041  1.00  0.00    -0.005 A 
HETATM   12  C   UNL     1      -4.568  -1.851 -33.634  1.00  0.00     0.053 A 
HETATM   13  C   UNL     1      -4.477  -3.212 -33.856  1.00  0.00     0.106 A 
HETATM   14  C   UNL     1      -5.488  -3.922 -34.458  1.00  0.00     0.105 A 
HETATM   15  O   UNL     1      -3.423  -4.002 -33.516  1.00  0.00    -0.323 OA
HETATM   16  O   UNL     1      -5.199  -5.244 -34.575  1.00  0.00    -0.323 OA
HETATM   17  C   UNL     1      -6.649  -3.310 -34.873  1.00  0.00     0.040 A 
HETATM   18  C   UNL     1      -3.895  -5.292 -33.962  1.00  0.00     0.352 A 
HETATM   19  C   UNL     1      -6.769  -1.932 -34.659  1.00  0.00     0.017 A 
ENDBRANCH   9  11
ENDBRANCH   2   5
BRANCH   1  20
HETATM   20  N   UNL     1      -3.907   4.765 -31.214  1.00  0.00    -0.183 NA
HETATM   21  C   UNL     1      -2.795   5.305 -31.593  1.00  0.00     0.152 C 
BRANCH  21  22
HETATM   22  C   UNL     1      -2.293   6.453 -30.866  1.00  0.00     0.011 A 
HETATM   23  C   UNL     1      -1.180   6.511 -29.966  1.00  0.00     0.004 A 
HETATM   24  C   UNL     1      -0.243   5.568 -29.491  1.00  0.00     0.014 A 
HETATM   25  C   UNL     1      -1.079   7.828 -29.511  1.00  0.00     0.043 A 
HETATM   26  C   UNL     1       0.749   5.973 -28.589  1.00  0.00     0.001 A 
HETATM   27  C   UNL     1       0.820   7.294 -28.156  1.00  0.00     0.002 A 
HETATM   28  C   UNL     1      -0.094   8.249 -28.609  1.00  0.00     0.030 A 
HETATM   29  N   UNL     1      -2.091   8.544 -30.108  1.00  0.00    -0.364 N 
HETATM   30  H   UNL     1      -2.262   9.529 -29.964  1.00  0.00     0.165 HD
HETATM   31  C   UNL     1      -2.823   7.730 -30.923  1.00  0.00     0.102 A 
ENDBRANCH  21  22
ENDBRANCH   1  20
TORSDOF 4
ENDMDL
MODEL 5
REMARK VINA RESULT:      -8.8      3.038     11.327
REMARK  4 active torsions:
REMARK  status: ('A' for Active; 'I' for Inactive)
REMARK    1  A    between atoms: C_8  and  C_9 
REMARK    2  A    between atoms: N_10  and  N_11 
REMARK       I    between atoms: N_11  and  C_12 
REMARK    3  A    between atoms: C_12  and  C_13 
REMARK    4  A    between atoms: C_17  and  C_18 
ROOT
HETATM    1  N   UNL     1      -3.459   5.348 -30.827  1.00  0.00    -0.242 N 
HETATM    2  C   UNL     1      -2.900   4.244 -31.452  1.00  0.00     0.292 C 
HETATM    3  O   UNL     1      -1.705   4.086 -31.690  1.00  0.00    -0.264 OA
HETATM    4  H   UNL     1      -4.467   5.346 -30.688  1.00  0.00     0.192 HD
ENDROOT
BRANCH   2   5
HETATM    5  C   UNL     1      -3.905   3.231 -31.813  1.00  0.00     0.148 A 
HETATM    6  N   UNL     1      -5.213   3.353 -31.509  1.00  0.00    -0.169 NA
HETATM    7  N   UNL     1      -5.764   2.229 -32.008  1.00  0.00    -0.277 N 
HETATM    8  H   UNL     1      -6.761   2.086 -31.879  1.00  0.00     0.189 HD
HETATM    9  C   UNL     1      -4.878   1.385 -32.627  1.00  0.00     0.063 A 
HETATM   10  C   UNL     1      -3.659   2.019 -32.506  1.00  0.00     0.071 A 
BRANCH   9  11
HETATM   11  C   UNL     1      -5.237   0.102 -33.234  1.00  0.00    -0.005 A 
HETATM   12  C   UNL     1      -4.352  -0.986 -33.217  1.00  0.00     0.053 A 
HETATM   13  C   UNL     1      -4.764  -2.173 -33.792  1.00  0.00     0.106 A 
HETATM   14  C   UNL     1      -6.002  -2.312 -34.371  1.00  0.00     0.105 A 
HETATM   15  O   UNL     1      -4.034  -3.319 -33.852  1.00  0.00    -0.323 OA
HETATM   16  O   UNL     1      -6.208  -3.558 -34.870  1.00  0.00    -0.323 OA
HETATM   17  C   UNL     1      -6.900  -1.270 -34.410  1.00  0.00     0.040 A 
HETATM   18  C   UNL     1      -4.962  -4.197 -34.524  1.00  0.00     0.352 A 
HETATM   19  C   UNL     1      -6.510  -0.056 -33.833  1.00  0.00     0.017 A 
ENDBRANCH   9  11
ENDBRANCH   2   5
BRANCH   1  20
HETATM   20  N   UNL     1      -2.672   6.381 -30.414  1.00  0.00    -0.183 NA
HETATM   21  C   UNL     1      -2.935   6.870 -29.246  1.00  0.00     0.152 C 
BRANCH  21  22
HETATM   22  C   UNL     1      -2.129   7.969 -28.752  1.00  0.00     0.011 A 
HETATM   23  C   UNL     1      -0.830   7.910 -28.151  1.00  0.00     0.004 A 
HETATM   24  C   UNL     1       0.070   6.867 -27.842  1.00  0.00     0.014 A 
HETATM   25  C   UNL     1      -0.455   9.219 -27.838  1.00  0.00     0.043 A 
HETATM   26  C   UNL     1       1.297   7.169 -27.238  1.00  0.00     0.001 A 
HETATM   27  C   UNL     1       1.638   8.486 -26.939  1.00  0.00     0.002 A 
HETATM   28  C   UNL     1       0.767   9.538 -27.234  1.00  0.00     0.030 A 
HETATM   29  N   UNL     1      -1.485  10.042 -28.231  1.00  0.00    -0.364 N 
HETATM   30  H   UNL     1      -1.491  11.047 -28.127  1.00  0.00     0.165 HD
HETATM   31  C   UNL     1      -2.492   9.303 -28.781  1.00  0.00     0.102 A 
ENDBRANCH  21  22
ENDBRANCH   1  20
TORSDOF 4
ENDMDL
MODEL 6
REMARK VINA RESULT:      -8.7      8.627     12.364
REMARK  4 active torsions:
REMARK  status: ('A' for Active; 'I' for Inactive)
REMARK    1  A    between atoms: C_8  and  C_9 
REMARK    2  A    between atoms: N_10  and  N_11 
REMARK       I    between atoms: N_11  and  C_12 
REMARK    3  A    between atoms: C_12  and  C_13 
REMARK    4  A    between atoms: C_17  and  C_18 
ROOT
HETATM    1  N   UNL     1      -8.854   1.494 -32.573  1.00  0.00    -0.242 N 
HETATM    2  C   UNL     1      -9.051   2.718 -33.195  1.00  0.00     0.292 C 
HETATM    3  O   UNL     1      -8.215   3.323 -33.862  1.00  0.00    -0.264 OA
HETATM    4  H   UNL     1      -9.636   1.103 -32.053  1.00  0.00     0.192 HD
ENDROOT
BRANCH   2   5
HETATM    5  C   UNL     1     -10.407   3.248 -32.982  1.00  0.00     0.148 A 
HETATM    6  N   UNL     1     -10.665   4.562 -32.822  1.00  0.00    -0.169 NA
HETATM    7  N   UNL     1     -12.002   4.608 -32.655  1.00  0.00    -0.277 N 
HETATM    8  H   UNL     1     -12.433   5.512 -32.494  1.00  0.00     0.189 HD
HETATM    9  C   UNL     1     -12.626   3.388 -32.705  1.00  0.00     0.063 A 
HETATM   10  C   UNL     1     -11.601   2.487 -32.913  1.00  0.00     0.071 A 
BRANCH   9  11
HETATM   11  C   UNL     1     -14.065   3.183 -32.539  1.00  0.00    -0.005 A 
HETATM   12  C   UNL     1     -14.887   4.184 -32.002  1.00  0.00     0.053 A 
HETATM   13  C   UNL     1     -16.241   3.930 -31.891  1.00  0.00     0.106 A 
HETATM   14  C   UNL     1     -16.793   2.736 -32.288  1.00  0.00     0.105 A 
HETATM   15  O   UNL     1     -17.172   4.793 -31.402  1.00  0.00    -0.323 OA
HETATM   16  O   UNL     1     -18.138   2.695 -32.098  1.00  0.00    -0.323 OA
HETATM   17  C   UNL     1     -16.023   1.727 -32.819  1.00  0.00     0.040 A 
HETATM   18  C   UNL     1     -18.375   4.008 -31.551  1.00  0.00     0.352 A 
HETATM   19  C   UNL     1     -14.648   1.958 -32.945  1.00  0.00     0.017 A 
ENDBRANCH   9  11
ENDBRANCH   2   5
BRANCH   1  20
HETATM   20  N   UNL     1      -7.657   0.852 -32.675  1.00  0.00    -0.183 NA
HETATM   21  C   UNL     1      -7.600  -0.123 -33.523  1.00  0.00     0.152 C 
BRANCH  21  22
HETATM   22  C   UNL     1      -6.351  -0.842 -33.676  1.00  0.00     0.011 A 
HETATM   23  C   UNL     1      -6.159  -2.196 -34.102  1.00  0.00     0.004 A 
HETATM   24  C   UNL     1      -7.023  -3.240 -34.496  1.00  0.00     0.014 A 
HETATM   25  C   UNL     1      -4.784  -2.444 -34.096  1.00  0.00     0.043 A 
HETATM   26  C   UNL     1      -6.485  -4.480 -34.865  1.00  0.00     0.001 A 
HETATM   27  C   UNL     1      -5.109  -4.693 -34.846  1.00  0.00     0.002 A 
HETATM   28  C   UNL     1      -4.230  -3.678 -34.461  1.00  0.00     0.030 A 
HETATM   29  N   UNL     1      -4.163  -1.289 -33.680  1.00  0.00    -0.364 N 
HETATM   30  H   UNL     1      -3.164  -1.175 -33.581  1.00  0.00     0.165 HD
HETATM   31  C   UNL     1      -5.093  -0.322 -33.427  1.00  0.00     0.102 A 
ENDBRANCH  21  22
ENDBRANCH   1  20
TORSDOF 4
ENDMDL
MODEL 7
REMARK VINA RESULT:      -8.7      9.123     11.500
REMARK  4 active torsions:
REMARK  status: ('A' for Active; 'I' for Inactive)
REMARK    1  A    between atoms: C_8  and  C_9 
REMARK    2  A    between atoms: N_10  and  N_11 
REMARK       I    between atoms: N_11  and  C_12 
REMARK    3  A    between atoms: C_12  and  C_13 
REMARK    4  A    between atoms: C_17  and  C_18 
ROOT
HETATM    1  N   UNL     1      -8.656   1.316 -33.750  1.00  0.00    -0.242 N 
HETATM    2  C   UNL     1      -9.985   1.033 -33.474  1.00  0.00     0.292 C 
HETATM    3  O   UNL     1     -10.402   0.007 -32.942  1.00  0.00    -0.264 OA
HETATM    4  H   UNL     1      -8.450   2.209 -34.191  1.00  0.00     0.192 HD
ENDROOT
BRANCH   2   5
HETATM    5  C   UNL     1     -10.891   2.118 -33.884  1.00  0.00     0.148 A 
HETATM    6  N   UNL     1     -12.228   2.057 -33.724  1.00  0.00    -0.169 NA
HETATM    7  N   UNL     1     -12.664   3.230 -34.225  1.00  0.00    -0.277 N 
HETATM    8  H   UNL     1     -13.664   3.407 -34.232  1.00  0.00     0.189 HD
HETATM    9  C   UNL     1     -11.674   4.053 -34.698  1.00  0.00     0.063 A 
HETATM   10  C   UNL     1     -10.509   3.342 -34.488  1.00  0.00     0.071 A 
BRANCH   9  11
HETATM   11  C   UNL     1     -11.901   5.368 -35.298  1.00  0.00    -0.005 A 
HETATM   12  C   UNL     1     -13.165   5.742 -35.778  1.00  0.00     0.053 A 
HETATM   13  C   UNL     1     -13.313   7.006 -36.316  1.00  0.00     0.106 A 
HETATM   14  C   UNL     1     -12.266   7.893 -36.391  1.00  0.00     0.105 A 
HETATM   15  O   UNL     1     -14.466   7.525 -36.815  1.00  0.00    -0.323 OA
HETATM   16  O   UNL     1     -12.626   9.079 -36.948  1.00  0.00    -0.323 OA
HETATM   17  C   UNL     1     -11.010   7.566 -35.934  1.00  0.00     0.040 A 
HETATM   18  C   UNL     1     -14.026   8.846 -37.200  1.00  0.00     0.352 A 
HETATM   19  C   UNL     1     -10.832   6.292 -35.382  1.00  0.00     0.017 A 
ENDBRANCH   9  11
ENDBRANCH   2   5
BRANCH   1  20
HETATM   20  N   UNL     1      -7.678   0.425 -33.426  1.00  0.00    -0.183 NA
HETATM   21  C   UNL     1      -6.894   0.059 -34.388  1.00  0.00     0.152 C 
BRANCH  21  22
HETATM   22  C   UNL     1      -5.834  -0.887 -34.102  1.00  0.00     0.011 A 
HETATM   23  C   UNL     1      -5.814  -2.295 -34.360  1.00  0.00     0.004 A 
HETATM   24  C   UNL     1      -6.726  -3.208 -34.933  1.00  0.00     0.014 A 
HETATM   25  C   UNL     1      -4.583  -2.784 -33.914  1.00  0.00     0.043 A 
HETATM   26  C   UNL     1      -6.376  -4.561 -35.037  1.00  0.00     0.001 A 
HETATM   27  C   UNL     1      -5.141  -5.013 -34.582  1.00  0.00     0.002 A 
HETATM   28  C   UNL     1      -4.219  -4.133 -34.011  1.00  0.00     0.030 A 
HETATM   29  N   UNL     1      -3.882  -1.716 -33.404  1.00  0.00    -0.364 N 
HETATM   30  H   UNL     1      -2.953  -1.773 -33.009  1.00  0.00     0.165 HD
HETATM   31  C   UNL     1      -4.622  -0.574 -33.513  1.00  0.00     0.102 A 
ENDBRANCH  21  22
ENDBRANCH   1  20
TORSDOF 4
ENDMDL
MODEL 8
REMARK VINA RESULT:      -8.4      3.900     11.511
REMARK  4 active torsions:
REMARK  status: ('A' for Active; 'I' for Inactive)
REMARK    1  A    between atoms: C_8  and  C_9 
REMARK    2  A    between atoms: N_10  and  N_11 
REMARK       I    between atoms: N_11  and  C_12 
REMARK    3  A    between atoms: C_12  and  C_13 
REMARK    4  A    between atoms: C_17  and  C_18 
ROOT
HETATM    1  N   UNL     1      -4.249   3.756 -32.082  1.00  0.00    -0.242 N 
HETATM    2  C   UNL     1      -5.596   3.607 -32.373  1.00  0.00     0.292 C 
HETATM    3  O   UNL     1      -6.489   4.385 -32.043  1.00  0.00    -0.264 OA
HETATM    4  H   UNL     1      -3.615   3.037 -32.421  1.00  0.00     0.192 HD
ENDROOT
BRANCH   2   5
HETATM    5  C   UNL     1      -5.875   2.390 -33.151  1.00  0.00     0.148 A 
HETATM    6  N   UNL     1      -6.658   2.383 -34.249  1.00  0.00    -0.169 NA
HETATM    7  N   UNL     1      -6.650   1.093 -34.640  1.00  0.00    -0.277 N 
HETATM    8  H   UNL     1      -7.199   0.836 -35.454  1.00  0.00     0.189 HD
HETATM    9  C   UNL     1      -5.893   0.263 -33.853  1.00  0.00     0.063 A 
HETATM   10  C   UNL     1      -5.384   1.089 -32.873  1.00  0.00     0.071 A 
BRANCH   9  11
HETATM   11  C   UNL     1      -5.740  -1.176 -34.071  1.00  0.00    -0.005 A 
HETATM   12  C   UNL     1      -4.573  -1.853 -33.686  1.00  0.00     0.053 A 
HETATM   13  C   UNL     1      -4.504  -3.215 -33.904  1.00  0.00     0.106 A 
HETATM   14  C   UNL     1      -5.537  -3.914 -34.481  1.00  0.00     0.105 A 
HETATM   15  O   UNL     1      -3.453  -4.017 -33.583  1.00  0.00    -0.323 OA
HETATM   16  O   UNL     1      -5.267  -5.240 -34.599  1.00  0.00    -0.323 OA
HETATM   17  C   UNL     1      -6.698  -3.290 -34.875  1.00  0.00     0.040 A 
HETATM   18  C   UNL     1      -3.951  -5.302 -34.013  1.00  0.00     0.352 A 
HETATM   19  C   UNL     1      -6.796  -1.910 -34.664  1.00  0.00     0.017 A 
ENDBRANCH   9  11
ENDBRANCH   2   5
BRANCH   1  20
HETATM   20  N   UNL     1      -3.809   4.836 -31.376  1.00  0.00    -0.183 NA
HETATM   21  C   UNL     1      -2.543   5.089 -31.444  1.00  0.00     0.152 C 
BRANCH  21  22
HETATM   22  C   UNL     1      -2.018   6.226 -30.716  1.00  0.00     0.011 A 
HETATM   23  C   UNL     1      -2.576   7.541 -30.613  1.00  0.00     0.004 A 
HETATM   24  C   UNL     1      -3.732   8.168 -31.126  1.00  0.00     0.014 A 
HETATM   25  C   UNL     1      -1.719   8.296 -29.806  1.00  0.00     0.043 A 
HETATM   26  C   UNL     1      -3.985   9.511 -30.818  1.00  0.00     0.001 A 
HETATM   27  C   UNL     1      -3.109  10.233 -30.011  1.00  0.00     0.002 A 
HETATM   28  C   UNL     1      -1.957   9.639 -29.489  1.00  0.00     0.030 A 
HETATM   29  N   UNL     1      -0.681   7.473 -29.436  1.00  0.00    -0.364 N 
HETATM   30  H   UNL     1       0.093   7.752 -28.848  1.00  0.00     0.165 HD
HETATM   31  C   UNL     1      -0.850   6.231 -29.974  1.00  0.00     0.102 A 
ENDBRANCH  21  22
ENDBRANCH   1  20
TORSDOF 4
ENDMDL
MODEL 9
REMARK VINA RESULT:      -8.4      2.574      3.937
REMARK  4 active torsions:
REMARK  status: ('A' for Active; 'I' for Inactive)
REMARK    1  A    between atoms: C_8  and  C_9 
REMARK    2  A    between atoms: N_10  and  N_11 
REMARK       I    between atoms: N_11  and  C_12 
REMARK    3  A    between atoms: C_12  and  C_13 
REMARK    4  A    between atoms: C_17  and  C_18 
ROOT
HETATM    1  N   UNL     1      -5.287   2.500 -33.079  1.00  0.00    -0.242 N 
HETATM    2  C   UNL     1      -6.015   3.302 -32.213  1.00  0.00     0.292 C 
HETATM    3  O   UNL     1      -7.175   3.104 -31.859  1.00  0.00    -0.264 OA
HETATM    4  H   UNL     1      -4.332   2.780 -33.284  1.00  0.00     0.192 HD
ENDROOT
BRANCH   2   5
HETATM    5  C   UNL     1      -5.243   4.458 -31.731  1.00  0.00     0.148 A 
HETATM    6  N   UNL     1      -5.746   5.709 -31.683  1.00  0.00    -0.169 NA
HETATM    7  N   UNL     1      -4.728   6.445 -31.194  1.00  0.00    -0.277 N 
HETATM    8  H   UNL     1      -4.869   7.444 -31.086  1.00  0.00     0.189 HD
HETATM    9  C   UNL     1      -3.590   5.732 -30.916  1.00  0.00     0.063 A 
HETATM   10  C   UNL     1      -3.904   4.434 -31.265  1.00  0.00     0.071 A 
BRANCH   9  11
HETATM   11  C   UNL     1      -2.353   6.312 -30.391  1.00  0.00    -0.005 A 
HETATM   12  C   UNL     1      -2.363   7.164 -29.276  1.00  0.00     0.053 A 
HETATM   13  C   UNL     1      -1.156   7.661 -28.822  1.00  0.00     0.106 A 
HETATM   14  C   UNL     1       0.036   7.346 -29.428  1.00  0.00     0.105 A 
HETATM   15  O   UNL     1      -0.991   8.488 -27.755  1.00  0.00    -0.323 OA
HETATM   16  O   UNL     1       1.100   7.934 -28.822  1.00  0.00    -0.323 OA
HETATM   17  C   UNL     1       0.090   6.516 -30.524  1.00  0.00     0.040 A 
HETATM   18  C   UNL     1       0.444   8.644 -27.752  1.00  0.00     0.352 A 
HETATM   19  C   UNL     1      -1.117   5.996 -31.004  1.00  0.00     0.017 A 
ENDBRANCH   9  11
ENDBRANCH   2   5
BRANCH   1  20
HETATM   20  N   UNL     1      -5.845   1.377 -33.613  1.00  0.00    -0.183 NA
HETATM   21  C   UNL     1      -5.242   0.261 -33.359  1.00  0.00     0.152 C 
BRANCH  21  22
HETATM   22  C   UNL     1      -5.790  -0.966 -33.900  1.00  0.00     0.011 A 
HETATM   23  C   UNL     1      -5.192  -2.267 -33.919  1.00  0.00     0.004 A 
HETATM   24  C   UNL     1      -3.965  -2.797 -33.465  1.00  0.00     0.014 A 
HETATM   25  C   UNL     1      -6.094  -3.133 -34.542  1.00  0.00     0.043 A 
HETATM   26  C   UNL     1      -3.690  -4.159 -33.648  1.00  0.00     0.001 A 
HETATM   27  C   UNL     1      -4.612  -4.993 -34.273  1.00  0.00     0.002 A 
HETATM   28  C   UNL     1      -5.835  -4.496 -34.733  1.00  0.00     0.030 A 
HETATM   29  N   UNL     1      -7.198  -2.389 -34.890  1.00  0.00    -0.364 N 
HETATM   30  H   UNL     1      -8.015  -2.756 -35.358  1.00  0.00     0.165 HD
HETATM   31  C   UNL     1      -7.027  -1.090 -34.509  1.00  0.00     0.102 A 
ENDBRANCH  21  22
ENDBRANCH   1  20
TORSDOF 4
ENDMDL
MODEL 10
REMARK VINA RESULT:      -8.2      8.529     13.076
REMARK  4 active torsions:
REMARK  status: ('A' for Active; 'I' for Inactive)
REMARK    1  A    between atoms: C_8  and  C_9 
REMARK    2  A    between atoms: N_10  and  N_11 
REMARK       I    between atoms: N_11  and  C_12 
REMARK    3  A    between atoms: C_12  and  C_13 
REMARK    4  A    between atoms: C_17  and  C_18 
ROOT
HETATM    1  N   UNL     1     -10.651   0.266 -33.004  1.00  0.00    -0.242 N 
HETATM    2  C   UNL     1     -10.984   1.366 -33.781  1.00  0.00     0.292 C 
HETATM    3  O   UNL     1     -10.198   2.033 -34.450  1.00  0.00    -0.264 OA
HETATM    4  H   UNL     1     -11.404  -0.198 -32.503  1.00  0.00     0.192 HD
ENDROOT
BRANCH   2   5
HETATM    5  C   UNL     1     -12.422   1.673 -33.737  1.00  0.00     0.148 A 
HETATM    6  N   UNL     1     -13.294   1.239 -34.670  1.00  0.00    -0.169 NA
HETATM    7  N   UNL     1     -14.477   1.738 -34.259  1.00  0.00    -0.277 N 
HETATM    8  H   UNL     1     -15.297   1.555 -34.828  1.00  0.00     0.189 HD
HETATM    9  C   UNL     1     -14.417   2.471 -33.102  1.00  0.00     0.063 A 
HETATM   10  C   UNL     1     -13.083   2.444 -32.748  1.00  0.00     0.071 A 
BRANCH   9  11
HETATM   11  C   UNL     1     -15.565   3.122 -32.469  1.00  0.00    -0.005 A 
HETATM   12  C   UNL     1     -15.498   4.452 -32.028  1.00  0.00     0.053 A 
HETATM   13  C   UNL     1     -16.625   5.010 -31.457  1.00  0.00     0.106 A 
HETATM   14  C   UNL     1     -17.794   4.302 -31.312  1.00  0.00     0.105 A 
HETATM   15  O   UNL     1     -16.730   6.282 -30.988  1.00  0.00    -0.323 OA
HETATM   16  O   UNL     1     -18.780   5.037 -30.732  1.00  0.00    -0.323 OA
HETATM   17  C   UNL     1     -17.902   2.995 -31.728  1.00  0.00     0.040 A 
HETATM   18  C   UNL     1     -18.104   6.296 -30.544  1.00  0.00     0.352 A 
HETATM   19  C   UNL     1     -16.776   2.406 -32.313  1.00  0.00     0.017 A 
ENDBRANCH   9  11
ENDBRANCH   2   5
BRANCH   1  20
HETATM   20  N   UNL     1      -9.361  -0.167 -32.937  1.00  0.00    -0.183 NA
HETATM   21  C   UNL     1      -8.580   0.479 -32.133  1.00  0.00     0.152 C 
BRANCH  21  22
HETATM   22  C   UNL     1      -7.197   0.062 -32.019  1.00  0.00     0.011 A 
HETATM   23  C   UNL     1      -6.466  -0.819 -32.880  1.00  0.00     0.004 A 
HETATM   24  C   UNL     1      -6.781  -1.544 -34.050  1.00  0.00     0.014 A 
HETATM   25  C   UNL     1      -5.169  -0.920 -32.370  1.00  0.00     0.043 A 
HETATM   26  C   UNL     1      -5.798  -2.333 -34.660  1.00  0.00     0.001 A 
HETATM   27  C   UNL     1      -4.515  -2.411 -34.124  1.00  0.00     0.002 A 
HETATM   28  C   UNL     1      -4.175  -1.705 -32.967  1.00  0.00     0.030 A 
HETATM   29  N   UNL     1      -5.113  -0.134 -31.243  1.00  0.00    -0.364 N 
HETATM   30  H   UNL     1      -4.292  -0.014 -30.664  1.00  0.00     0.165 HD
HETATM   31  C   UNL     1      -6.322   0.460 -31.024  1.00  0.00     0.102 A 
ENDBRANCH  21  22
ENDBRANCH   1  20
TORSDOF 4
ENDMDL
