MODEL 1
REMARK VINA RESULT:      -8.7      0.000      0.000
REMARK  8 active torsions:
REMARK  status: ('A' for Active; 'I' for Inactive)
REMARK    1  A    between atoms: C_5  and  C_6 
REMARK    2  A    between atoms: C_6  and  N_7 
REMARK       I    between atoms: N_7  and  C_8 
REMARK    3  A    between atoms: C_8  and  C_9 
REMARK    4  A    between atoms: N_12  and  C_13 
REMARK    5  A    between atoms: C_13  and  C_14 
REMARK       I    between atoms: C_14  and  N_15 
REMARK    6  A    between atoms: N_15  and  C_16 
REMARK    7  A    between atoms: C_20  and  O_21 
REMARK    8  A    between atoms: C_26  and  N_27 
ROOT
HETATM    1  C   UNL     1      -3.923   4.022 -32.796  1.00  0.00     0.186 A 
HETATM    2  N   UNL     1      -2.633   3.597 -33.044  1.00  0.00    -0.150 NA
HETATM    3  N   UNL     1      -1.928   4.630 -33.478  1.00  0.00     0.007 NA
HETATM    4  N   UNL     1      -2.752   5.701 -33.500  1.00  0.00    -0.248 N 
HETATM    5  C   UNL     1      -4.020   5.372 -33.095  1.00  0.00     0.151 A 
ENDROOT
BRANCH   4   6
HETATM    6  C   UNL     1      -2.192   7.009 -33.742  1.00  0.00     0.251 C 
BRANCH   6   7
HETATM    7  C   UNL     1      -1.827   7.673 -32.429  1.00  0.00     0.241 C 
HETATM    8  N   UNL     1      -1.339   6.786 -31.478  1.00  0.00    -0.326 N 
HETATM    9  H   UNL     1      -1.316   5.803 -31.748  1.00  0.00     0.169 HD
HETATM   10  O   UNL     1      -1.935   8.888 -32.298  1.00  0.00    -0.271 OA
BRANCH   8  11
HETATM   11  C   UNL     1      -0.967   7.058 -30.147  1.00  0.00     0.036 A 
HETATM   12  C   UNL     1      -1.845   7.046 -29.066  1.00  0.00     0.056 A 
HETATM   13  C   UNL     1      -1.373   7.314 -27.774  1.00  0.00     0.069 A 
HETATM   14 CL   UNL     1      -2.515   7.272 -26.472  1.00  0.00    -0.081 Cl
HETATM   15  C   UNL     1      -0.021   7.611 -27.541  1.00  0.00     0.090 A 
HETATM   16  C   UNL     1       0.855   7.615 -28.628  1.00  0.00     0.041 A 
HETATM   17  C   UNL     1       0.385   7.340 -29.917  1.00  0.00     0.032 A 
BRANCH  15  18
HETATM   18  O   UNL     1       0.352   7.863 -26.248  1.00  0.00    -0.354 OA
HETATM   19  C   UNL     1       1.742   7.989 -25.977  1.00  0.00     0.210 C 
ENDBRANCH  15  18
ENDBRANCH   8  11
ENDBRANCH   6   7
ENDBRANCH   4   6
BRANCH   5  20
HETATM   20  N   UNL     1      -5.041   6.255 -33.009  1.00  0.00    -0.382 N 
HETATM   21  H   UNL     1      -5.139   6.951 -32.273  1.00  0.00     0.157 HD
HETATM   22  H   UNL     1      -5.935   6.015 -33.449  1.00  0.00     0.157 HD
ENDBRANCH   5  20
BRANCH   1  23
HETATM   23  C   UNL     1      -4.951   3.157 -32.235  1.00  0.00     0.275 C 
HETATM   24  N   UNL     1      -4.739   1.819 -32.480  1.00  0.00    -0.351 N 
HETATM   25  H   UNL     1      -3.884   1.561 -32.960  1.00  0.00     0.163 HD
HETATM   26  O   UNL     1      -5.892   3.583 -31.571  1.00  0.00    -0.266 OA
BRANCH  24  27
HETATM   27  C   UNL     1      -5.525   0.783 -31.858  1.00  0.00     0.161 C 
BRANCH  27  28
HETATM   28  C   UNL     1      -5.636  -0.430 -32.749  1.00  0.00    -0.041 A 
HETATM   29  C   UNL     1      -6.860  -0.772 -33.341  1.00  0.00     0.009 A 
HETATM   30  C   UNL     1      -6.962  -1.886 -34.177  1.00  0.00     0.007 A 
HETATM   31  C   UNL     1      -5.841  -2.682 -34.438  1.00  0.00    -0.062 A 
HETATM   32  C   UNL     1      -5.932  -3.858 -35.364  1.00  0.00     0.048 C 
HETATM   33  C   UNL     1      -4.614  -2.334 -33.862  1.00  0.00     0.007 A 
HETATM   34  C   UNL     1      -4.513  -1.220 -33.022  1.00  0.00     0.009 A 
ENDBRANCH  27  28
ENDBRANCH  24  27
ENDBRANCH   1  23
TORSDOF 8
ENDMDL
MODEL 2
REMARK VINA RESULT:      -8.7      1.378      1.876
REMARK  8 active torsions:
REMARK  status: ('A' for Active; 'I' for Inactive)
REMARK    1  A    between atoms: C_5  and  C_6 
REMARK    2  A    between atoms: C_6  and  N_7 
REMARK       I    between atoms: N_7  and  C_8 
REMARK    3  A    between atoms: C_8  and  C_9 
REMARK    4  A    between atoms: N_12  and  C_13 
REMARK    5  A    between atoms: C_13  and  C_14 
REMARK       I    between atoms: C_14  and  N_15 
REMARK    6  A    between atoms: N_15  and  C_16 
REMARK    7  A    between atoms: C_20  and  O_21 
REMARK    8  A    between atoms: C_26  and  N_27 
ROOT
HETATM    1  C   UNL     1      -3.541   3.715 -32.810  1.00  0.00     0.186 A 
HETATM    2  N   UNL     1      -2.521   3.508 -31.902  1.00  0.00    -0.150 NA
HETATM    3  N   UNL     1      -1.558   4.383 -32.150  1.00  0.00     0.007 NA
HETATM    4  N   UNL     1      -1.959   5.141 -33.194  1.00  0.00    -0.248 N 
HETATM    5  C   UNL     1      -3.190   4.755 -33.657  1.00  0.00     0.151 A 
ENDROOT
BRANCH   4   6
HETATM    6  C   UNL     1      -1.186   6.308 -33.547  1.00  0.00     0.251 C 
BRANCH   6   7
HETATM    7  C   UNL     1      -1.246   7.332 -32.431  1.00  0.00     0.241 C 
HETATM    8  N   UNL     1      -0.733   6.868 -31.227  1.00  0.00    -0.326 N 
HETATM    9  H   UNL     1      -0.414   5.900 -31.216  1.00  0.00     0.169 HD
HETATM   10  O   UNL     1      -1.678   8.460 -32.648  1.00  0.00    -0.271 OA
BRANCH   8  11
HETATM   11  C   UNL     1      -0.690   7.534 -29.986  1.00  0.00     0.036 A 
HETATM   12  C   UNL     1       0.469   7.736 -29.241  1.00  0.00     0.056 A 
HETATM   13  C   UNL     1       0.410   8.427 -28.024  1.00  0.00     0.069 A 
HETATM   14 CL   UNL     1       1.889   8.655 -27.151  1.00  0.00    -0.081 Cl
HETATM   15  C   UNL     1      -0.807   8.915 -27.523  1.00  0.00     0.090 A 
HETATM   16  C   UNL     1      -1.965   8.715 -28.278  1.00  0.00     0.041 A 
HETATM   17  C   UNL     1      -1.904   8.032 -29.498  1.00  0.00     0.032 A 
BRANCH  15  18
HETATM   18  O   UNL     1      -0.772   9.576 -26.325  1.00  0.00    -0.354 OA
HETATM   19  C   UNL     1      -1.382   8.944 -25.207  1.00  0.00     0.210 C 
ENDBRANCH  15  18
ENDBRANCH   8  11
ENDBRANCH   6   7
ENDBRANCH   4   6
BRANCH   5  20
HETATM   20  N   UNL     1      -3.835   5.351 -34.685  1.00  0.00    -0.382 N 
HETATM   21  H   UNL     1      -4.500   6.115 -34.581  1.00  0.00     0.157 HD
HETATM   22  H   UNL     1      -3.971   4.822 -35.551  1.00  0.00     0.157 HD
ENDBRANCH   5  20
BRANCH   1  23
HETATM   23  C   UNL     1      -4.794   2.973 -32.780  1.00  0.00     0.275 C 
HETATM   24  N   UNL     1      -4.668   1.697 -32.278  1.00  0.00    -0.351 N 
HETATM   25  H   UNL     1      -3.757   1.420 -31.930  1.00  0.00     0.163 HD
HETATM   26  O   UNL     1      -5.866   3.460 -33.130  1.00  0.00    -0.266 OA
BRANCH  24  27
HETATM   27  C   UNL     1      -5.807   0.865 -31.983  1.00  0.00     0.161 C 
BRANCH  27  28
HETATM   28  C   UNL     1      -5.830  -0.362 -32.861  1.00  0.00    -0.041 A 
HETATM   29  C   UNL     1      -4.668  -1.124 -33.055  1.00  0.00     0.009 A 
HETATM   30  C   UNL     1      -4.691  -2.268 -33.856  1.00  0.00     0.007 A 
HETATM   31  C   UNL     1      -5.875  -2.675 -34.479  1.00  0.00    -0.062 A 
HETATM   32  C   UNL     1      -5.917  -3.922 -35.310  1.00  0.00     0.048 C 
HETATM   33  C   UNL     1      -7.040  -1.927 -34.273  1.00  0.00     0.007 A 
HETATM   34  C   UNL     1      -7.017  -0.779 -33.475  1.00  0.00     0.009 A 
ENDBRANCH  27  28
ENDBRANCH  24  27
ENDBRANCH   1  23
TORSDOF 8
ENDMDL
MODEL 3
REMARK VINA RESULT:      -8.6      3.242      9.854
REMARK  8 active torsions:
REMARK  status: ('A' for Active; 'I' for Inactive)
REMARK    1  A    between atoms: C_5  and  C_6 
REMARK    2  A    between atoms: C_6  and  N_7 
REMARK       I    between atoms: N_7  and  C_8 
REMARK    3  A    between atoms: C_8  and  C_9 
REMARK    4  A    between atoms: N_12  and  C_13 
REMARK    5  A    between atoms: C_13  and  C_14 
REMARK       I    between atoms: C_14  and  N_15 
REMARK    6  A    between atoms: N_15  and  C_16 
REMARK    7  A    between atoms: C_20  and  O_21 
REMARK    8  A    between atoms: C_26  and  N_27 
ROOT
HETATM    1  C   UNL     1      -4.263   4.879 -33.759  1.00  0.00     0.186 A 
HETATM    2  N   UNL     1      -5.330   4.822 -34.633  1.00  0.00    -0.150 NA
HETATM    3  N   UNL     1      -6.302   4.126 -34.062  1.00  0.00     0.007 NA
HETATM    4  N   UNL     1      -5.864   3.750 -32.840  1.00  0.00    -0.248 N 
HETATM    5  C   UNL     1      -4.585   4.184 -32.604  1.00  0.00     0.151 A 
ENDROOT
BRANCH   4   6
HETATM    6  C   UNL     1      -6.799   3.149 -31.918  1.00  0.00     0.251 C 
BRANCH   6   7
HETATM    7  C   UNL     1      -6.734   1.638 -32.019  1.00  0.00     0.241 C 
HETATM    8  N   UNL     1      -5.941   1.188 -33.066  1.00  0.00    -0.326 N 
HETATM    9  H   UNL     1      -5.530   1.905 -33.661  1.00  0.00     0.169 HD
HETATM   10  O   UNL     1      -7.315   0.937 -31.196  1.00  0.00    -0.271 OA
BRANCH   8  11
HETATM   11  C   UNL     1      -5.715  -0.141 -33.475  1.00  0.00     0.036 A 
HETATM   12  C   UNL     1      -4.740  -0.976 -32.934  1.00  0.00     0.056 A 
HETATM   13  C   UNL     1      -4.604  -2.291 -33.398  1.00  0.00     0.069 A 
HETATM   14 CL   UNL     1      -3.379  -3.280 -32.676  1.00  0.00    -0.081 Cl
HETATM   15  C   UNL     1      -5.429  -2.790 -34.418  1.00  0.00     0.090 A 
HETATM   16  C   UNL     1      -6.409  -1.951 -34.951  1.00  0.00     0.041 A 
HETATM   17  C   UNL     1      -6.549  -0.640 -34.482  1.00  0.00     0.032 A 
BRANCH  15  18
HETATM   18  O   UNL     1      -5.224  -4.086 -34.811  1.00  0.00    -0.354 OA
HETATM   19  C   UNL     1      -6.290  -4.745 -35.483  1.00  0.00     0.210 C 
ENDBRANCH  15  18
ENDBRANCH   8  11
ENDBRANCH   6   7
ENDBRANCH   4   6
BRANCH   5  20
HETATM   20  N   UNL     1      -3.908   3.959 -31.455  1.00  0.00    -0.382 N 
HETATM   21  H   UNL     1      -3.787   4.648 -30.716  1.00  0.00     0.157 HD
HETATM   22  H   UNL     1      -3.183   3.237 -31.447  1.00  0.00     0.157 HD
ENDBRANCH   5  20
BRANCH   1  23
HETATM   23  C   UNL     1      -3.047   5.632 -34.037  1.00  0.00     0.275 C 
HETATM   24  N   UNL     1      -2.913   6.765 -33.265  1.00  0.00    -0.351 N 
HETATM   25  H   UNL     1      -3.617   6.933 -32.556  1.00  0.00     0.163 HD
HETATM   26  O   UNL     1      -2.206   5.264 -34.852  1.00  0.00    -0.266 OA
BRANCH  24  27
HETATM   27  C   UNL     1      -1.702   7.546 -33.242  1.00  0.00     0.161 C 
BRANCH  27  28
HETATM   28  C   UNL     1      -1.046   7.498 -31.883  1.00  0.00    -0.041 A 
HETATM   29  C   UNL     1      -1.649   8.113 -30.776  1.00  0.00     0.009 A 
HETATM   30  C   UNL     1      -1.051   8.058 -29.515  1.00  0.00     0.007 A 
HETATM   31  C   UNL     1       0.162   7.387 -29.335  1.00  0.00    -0.062 A 
HETATM   32  C   UNL     1       0.793   7.290 -27.978  1.00  0.00     0.048 C 
HETATM   33  C   UNL     1       0.759   6.757 -30.433  1.00  0.00     0.007 A 
HETATM   34  C   UNL     1       0.162   6.815 -31.696  1.00  0.00     0.009 A 
ENDBRANCH  27  28
ENDBRANCH  24  27
ENDBRANCH   1  23
TORSDOF 8
ENDMDL
MODEL 4
REMARK VINA RESULT:      -8.1      1.743      2.178
REMARK  8 active torsions:
REMARK  status: ('A' for Active; 'I' for Inactive)
REMARK    1  A    between atoms: C_5  and  C_6 
REMARK    2  A    between atoms: C_6  and  N_7 
REMARK       I    between atoms: N_7  and  C_8 
REMARK    3  A    between atoms: C_8  and  C_9 
REMARK    4  A    between atoms: N_12  and  C_13 
REMARK    5  A    between atoms: C_13  and  C_14 
REMARK       I    between atoms: C_14  and  N_15 
REMARK    6  A    between atoms: N_15  and  C_16 
REMARK    7  A    between atoms: C_20  and  O_21 
REMARK    8  A    between atoms: C_26  and  N_27 
ROOT
HETATM    1  C   UNL     1      -4.686   4.623 -32.093  1.00  0.00     0.186 A 
HETATM    2  N   UNL     1      -4.489   5.875 -32.640  1.00  0.00    -0.150 NA
HETATM    3  N   UNL     1      -3.192   6.138 -32.626  1.00  0.00     0.007 NA
HETATM    4  N   UNL     1      -2.568   5.068 -32.085  1.00  0.00    -0.248 N 
HETATM    5  C   UNL     1      -3.460   4.094 -31.719  1.00  0.00     0.151 A 
ENDROOT
BRANCH   4   6
HETATM    6  C   UNL     1      -1.127   5.002 -32.132  1.00  0.00     0.251 C 
BRANCH   6   7
HETATM    7  C   UNL     1      -0.545   5.299 -30.765  1.00  0.00     0.241 C 
HETATM    8  N   UNL     1      -0.960   6.514 -30.239  1.00  0.00    -0.326 N 
HETATM    9  H   UNL     1      -1.567   7.079 -30.832  1.00  0.00     0.169 HD
HETATM   10  O   UNL     1       0.184   4.480 -30.211  1.00  0.00    -0.271 OA
BRANCH   8  11
HETATM   11  C   UNL     1      -0.567   7.117 -29.027  1.00  0.00     0.036 A 
HETATM   12  C   UNL     1      -1.377   7.220 -27.900  1.00  0.00     0.056 A 
HETATM   13  C   UNL     1      -0.888   7.824 -26.734  1.00  0.00     0.069 A 
HETATM   14 CL   UNL     1      -1.943   7.909 -25.363  1.00  0.00    -0.081 Cl
HETATM   15  C   UNL     1       0.414   8.347 -26.679  1.00  0.00     0.090 A 
HETATM   16  C   UNL     1       1.224   8.235 -27.811  1.00  0.00     0.041 A 
HETATM   17  C   UNL     1       0.737   7.625 -28.972  1.00  0.00     0.032 A 
BRANCH  15  18
HETATM   18  O   UNL     1       0.809   8.922 -25.501  1.00  0.00    -0.354 OA
HETATM   19  C   UNL     1       2.174   8.787 -25.128  1.00  0.00     0.210 C 
ENDBRANCH  15  18
ENDBRANCH   8  11
ENDBRANCH   6   7
ENDBRANCH   4   6
BRANCH   5  20
HETATM   20  N   UNL     1      -3.107   2.912 -31.165  1.00  0.00    -0.382 N 
HETATM   21  H   UNL     1      -2.813   2.796 -30.198  1.00  0.00     0.157 HD
HETATM   22  H   UNL     1      -2.758   2.168 -31.777  1.00  0.00     0.157 HD
ENDBRANCH   5  20
BRANCH   1  23
HETATM   23  C   UNL     1      -5.992   3.983 -32.020  1.00  0.00     0.275 C 
HETATM   24  N   UNL     1      -6.351   3.328 -33.177  1.00  0.00    -0.351 N 
HETATM   25  H   UNL     1      -5.671   3.300 -33.928  1.00  0.00     0.163 HD
HETATM   26  O   UNL     1      -6.684   3.994 -31.005  1.00  0.00    -0.266 OA
BRANCH  24  27
HETATM   27  C   UNL     1      -7.509   2.474 -33.256  1.00  0.00     0.161 C 
BRANCH  27  28
HETATM   28  C   UNL     1      -7.122   1.061 -33.619  1.00  0.00    -0.041 A 
HETATM   29  C   UNL     1      -7.535   0.497 -34.835  1.00  0.00     0.009 A 
HETATM   30  C   UNL     1      -7.166  -0.806 -35.179  1.00  0.00     0.007 A 
HETATM   31  C   UNL     1      -6.378  -1.571 -34.315  1.00  0.00    -0.062 A 
HETATM   32  C   UNL     1      -5.946  -2.957 -34.692  1.00  0.00     0.048 C 
HETATM   33  C   UNL     1      -5.950  -1.006 -33.108  1.00  0.00     0.007 A 
HETATM   34  C   UNL     1      -6.322   0.296 -32.761  1.00  0.00     0.009 A 
ENDBRANCH  27  28
ENDBRANCH  24  27
ENDBRANCH   1  23
TORSDOF 8
ENDMDL
MODEL 5
REMARK VINA RESULT:      -8.0      4.282     10.381
REMARK  8 active torsions:
REMARK  status: ('A' for Active; 'I' for Inactive)
REMARK    1  A    between atoms: C_5  and  C_6 
REMARK    2  A    between atoms: C_6  and  N_7 
REMARK       I    between atoms: N_7  and  C_8 
REMARK    3  A    between atoms: C_8  and  C_9 
REMARK    4  A    between atoms: N_12  and  C_13 
REMARK    5  A    between atoms: C_13  and  C_14 
REMARK       I    between atoms: C_14  and  N_15 
REMARK    6  A    between atoms: N_15  and  C_16 
REMARK    7  A    between atoms: C_20  and  O_21 
REMARK    8  A    between atoms: C_26  and  N_27 
ROOT
HETATM    1  C   UNL     1      -3.846   3.312 -31.422  1.00  0.00     0.186 A 
HETATM    2  N   UNL     1      -3.703   2.399 -32.448  1.00  0.00    -0.150 NA
HETATM    3  N   UNL     1      -4.554   1.404 -32.243  1.00  0.00     0.007 NA
HETATM    4  N   UNL     1      -5.234   1.682 -31.109  1.00  0.00    -0.248 N 
HETATM    5  C   UNL     1      -4.819   2.861 -30.545  1.00  0.00     0.151 A 
ENDROOT
BRANCH   4   6
HETATM    6  C   UNL     1      -6.369   0.863 -30.758  1.00  0.00     0.251 C 
BRANCH   6   7
HETATM    7  C   UNL     1      -7.652   1.515 -31.233  1.00  0.00     0.241 C 
HETATM    8  N   UNL     1      -8.193   0.914 -32.362  1.00  0.00    -0.326 N 
HETATM    9  H   UNL     1      -7.660   0.142 -32.761  1.00  0.00     0.169 HD
HETATM   10  O   UNL     1      -8.138   2.454 -30.609  1.00  0.00    -0.271 OA
BRANCH   8  11
HETATM   11  C   UNL     1      -9.335   1.302 -33.090  1.00  0.00     0.036 A 
HETATM   12  C   UNL     1     -10.535   0.596 -33.106  1.00  0.00     0.056 A 
HETATM   13  C   UNL     1     -11.622   1.074 -33.851  1.00  0.00     0.069 A 
HETATM   14 CL   UNL     1     -13.090   0.155 -33.819  1.00  0.00    -0.081 Cl
HETATM   15  C   UNL     1     -11.524   2.256 -34.602  1.00  0.00     0.090 A 
HETATM   16  C   UNL     1     -10.321   2.963 -34.576  1.00  0.00     0.041 A 
HETATM   17  C   UNL     1      -9.238   2.489 -33.827  1.00  0.00     0.032 A 
BRANCH  15  18
HETATM   18  O   UNL     1     -12.635   2.647 -35.301  1.00  0.00    -0.354 OA
HETATM   19  C   UNL     1     -12.652   3.971 -35.820  1.00  0.00     0.210 C 
ENDBRANCH  15  18
ENDBRANCH   8  11
ENDBRANCH   6   7
ENDBRANCH   4   6
BRANCH   5  20
HETATM   20  N   UNL     1      -5.340   3.384 -29.412  1.00  0.00    -0.382 N 
HETATM   21  H   UNL     1      -6.242   3.121 -29.020  1.00  0.00     0.157 HD
HETATM   22  H   UNL     1      -5.036   4.316 -29.118  1.00  0.00     0.157 HD
ENDBRANCH   5  20
BRANCH   1  23
HETATM   23  C   UNL     1      -3.113   4.570 -31.371  1.00  0.00     0.275 C 
HETATM   24  N   UNL     1      -1.784   4.448 -31.711  1.00  0.00    -0.351 N 
HETATM   25  H   UNL     1      -1.461   3.536 -32.016  1.00  0.00     0.163 HD
HETATM   26  O   UNL     1      -3.644   5.640 -31.091  1.00  0.00    -0.266 OA
BRANCH  24  27
HETATM   27  C   UNL     1      -0.928   5.590 -31.910  1.00  0.00     0.161 C 
BRANCH  27  28
HETATM   28  C   UNL     1      -0.350   6.074 -30.603  1.00  0.00    -0.041 A 
HETATM   29  C   UNL     1       0.289   5.182 -29.729  1.00  0.00     0.009 A 
HETATM   30  C   UNL     1       0.837   5.631 -28.526  1.00  0.00     0.007 A 
HETATM   31  C   UNL     1       0.758   6.982 -28.171  1.00  0.00    -0.062 A 
HETATM   32  C   UNL     1       1.376   7.479 -26.899  1.00  0.00     0.048 C 
HETATM   33  C   UNL     1       0.137   7.878 -29.048  1.00  0.00     0.007 A 
HETATM   34  C   UNL     1      -0.415   7.428 -30.251  1.00  0.00     0.009 A 
ENDBRANCH  27  28
ENDBRANCH  24  27
ENDBRANCH   1  23
TORSDOF 8
ENDMDL
MODEL 6
REMARK VINA RESULT:      -7.9      3.073     10.042
REMARK  8 active torsions:
REMARK  status: ('A' for Active; 'I' for Inactive)
REMARK    1  A    between atoms: C_5  and  C_6 
REMARK    2  A    between atoms: C_6  and  N_7 
REMARK       I    between atoms: N_7  and  C_8 
REMARK    3  A    between atoms: C_8  and  C_9 
REMARK    4  A    between atoms: N_12  and  C_13 
REMARK    5  A    between atoms: C_13  and  C_14 
REMARK       I    between atoms: C_14  and  N_15 
REMARK    6  A    between atoms: N_15  and  C_16 
REMARK    7  A    between atoms: C_20  and  O_21 
REMARK    8  A    between atoms: C_26  and  N_27 
ROOT
HETATM    1  C   UNL     1      -4.070   5.269 -31.550  1.00  0.00     0.186 A 
HETATM    2  N   UNL     1      -4.698   4.940 -30.365  1.00  0.00    -0.150 NA
HETATM    3  N   UNL     1      -5.922   4.517 -30.643  1.00  0.00     0.007 NA
HETATM    4  N   UNL     1      -6.071   4.569 -31.985  1.00  0.00    -0.248 N 
HETATM    5  C   UNL     1      -4.944   5.047 -32.602  1.00  0.00     0.151 A 
ENDROOT
BRANCH   4   6
HETATM    6  C   UNL     1      -7.243   3.973 -32.581  1.00  0.00     0.251 C 
BRANCH   6   7
HETATM    7  C   UNL     1      -7.143   2.461 -32.534  1.00  0.00     0.241 C 
HETATM    8  N   UNL     1      -6.367   1.927 -33.554  1.00  0.00    -0.326 N 
HETATM    9  H   UNL     1      -5.990   2.591 -34.229  1.00  0.00     0.169 HD
HETATM   10  O   UNL     1      -7.682   1.832 -31.629  1.00  0.00    -0.271 OA
BRANCH   8  11
HETATM   11  C   UNL     1      -6.117   0.570 -33.836  1.00  0.00     0.036 A 
HETATM   12  C   UNL     1      -5.115  -0.188 -33.235  1.00  0.00     0.056 A 
HETATM   13  C   UNL     1      -4.956  -1.538 -33.572  1.00  0.00     0.069 A 
HETATM   14 CL   UNL     1      -3.698  -2.427 -32.780  1.00  0.00    -0.081 Cl
HETATM   15  C   UNL     1      -5.787  -2.152 -34.523  1.00  0.00     0.090 A 
HETATM   16  C   UNL     1      -6.794  -1.390 -35.117  1.00  0.00     0.041 A 
HETATM   17  C   UNL     1      -6.956  -0.043 -34.775  1.00  0.00     0.032 A 
BRANCH  15  18
HETATM   18  O   UNL     1      -5.560  -3.475 -34.793  1.00  0.00    -0.354 OA
HETATM   19  C   UNL     1      -6.690  -4.335 -34.866  1.00  0.00     0.210 C 
ENDBRANCH  15  18
ENDBRANCH   8  11
ENDBRANCH   6   7
ENDBRANCH   4   6
BRANCH   5  20
HETATM   20  N   UNL     1      -4.816   5.190 -33.941  1.00  0.00    -0.382 N 
HETATM   21  H   UNL     1      -4.914   4.431 -34.612  1.00  0.00     0.157 HD
HETATM   22  H   UNL     1      -4.250   5.965 -34.299  1.00  0.00     0.157 HD
ENDBRANCH   5  20
BRANCH   1  23
HETATM   23  C   UNL     1      -2.682   5.702 -31.620  1.00  0.00     0.275 C 
HETATM   24  N   UNL     1      -1.929   5.319 -30.532  1.00  0.00    -0.351 N 
HETATM   25  H   UNL     1      -2.379   4.739 -29.833  1.00  0.00     0.163 HD
HETATM   26  O   UNL     1      -2.221   6.313 -32.580  1.00  0.00    -0.266 OA
BRANCH  24  27
HETATM   27  C   UNL     1      -0.497   5.476 -30.487  1.00  0.00     0.161 C 
BRANCH  27  28
HETATM   28  C   UNL     1      -0.084   6.409 -29.375  1.00  0.00    -0.041 A 
HETATM   29  C   UNL     1      -0.498   7.748 -29.374  1.00  0.00     0.009 A 
HETATM   30  C   UNL     1      -0.127   8.609 -28.338  1.00  0.00     0.007 A 
HETATM   31  C   UNL     1       0.664   8.148 -27.281  1.00  0.00    -0.062 A 
HETATM   32  C   UNL     1       1.036   9.055 -26.146  1.00  0.00     0.048 C 
HETATM   33  C   UNL     1       1.066   6.807 -27.270  1.00  0.00     0.007 A 
HETATM   34  C   UNL     1       0.699   5.946 -28.309  1.00  0.00     0.009 A 
ENDBRANCH  27  28
ENDBRANCH  24  27
ENDBRANCH   1  23
TORSDOF 8
ENDMDL
MODEL 7
REMARK VINA RESULT:      -7.9      5.687      8.470
REMARK  8 active torsions:
REMARK  status: ('A' for Active; 'I' for Inactive)
REMARK    1  A    between atoms: C_5  and  C_6 
REMARK    2  A    between atoms: C_6  and  N_7 
REMARK       I    between atoms: N_7  and  C_8 
REMARK    3  A    between atoms: C_8  and  C_9 
REMARK    4  A    between atoms: N_12  and  C_13 
REMARK    5  A    between atoms: C_13  and  C_14 
REMARK       I    between atoms: C_14  and  N_15 
REMARK    6  A    between atoms: N_15  and  C_16 
REMARK    7  A    between atoms: C_20  and  O_21 
REMARK    8  A    between atoms: C_26  and  N_27 
ROOT
HETATM    1  C   UNL     1      -7.929   4.356 -32.182  1.00  0.00     0.186 A 
HETATM    2  N   UNL     1      -6.695   4.680 -32.709  1.00  0.00    -0.150 NA
HETATM    3  N   UNL     1      -5.759   4.265 -31.870  1.00  0.00     0.007 NA
HETATM    4  N   UNL     1      -6.384   3.678 -30.826  1.00  0.00    -0.248 N 
HETATM    5  C   UNL     1      -7.747   3.720 -30.964  1.00  0.00     0.151 A 
ENDROOT
BRANCH   4   6
HETATM    6  C   UNL     1      -5.596   2.955 -29.857  1.00  0.00     0.251 C 
BRANCH   6   7
HETATM    7  C   UNL     1      -5.515   1.490 -30.236  1.00  0.00     0.241 C 
HETATM    8  N   UNL     1      -4.983   1.274 -31.500  1.00  0.00    -0.326 N 
HETATM    9  H   UNL     1      -4.745   2.107 -32.037  1.00  0.00     0.169 HD
HETATM   10  O   UNL     1      -5.863   0.624 -29.438  1.00  0.00    -0.271 OA
BRANCH   8  11
HETATM   11  C   UNL     1      -4.823   0.050 -32.178  1.00  0.00     0.036 A 
HETATM   12  C   UNL     1      -5.733  -0.465 -33.099  1.00  0.00     0.056 A 
HETATM   13  C   UNL     1      -5.476  -1.686 -33.734  1.00  0.00     0.069 A 
HETATM   14 CL   UNL     1      -6.642  -2.264 -34.877  1.00  0.00    -0.081 Cl
HETATM   15  C   UNL     1      -4.314  -2.421 -33.452  1.00  0.00     0.090 A 
HETATM   16  C   UNL     1      -3.402  -1.897 -32.534  1.00  0.00     0.041 A 
HETATM   17  C   UNL     1      -3.656  -0.674 -31.905  1.00  0.00     0.032 A 
BRANCH  15  18
HETATM   18  O   UNL     1      -4.144  -3.606 -34.118  1.00  0.00    -0.354 OA
HETATM   19  C   UNL     1      -3.484  -4.659 -33.428  1.00  0.00     0.210 C 
ENDBRANCH  15  18
ENDBRANCH   8  11
ENDBRANCH   6   7
ENDBRANCH   4   6
BRANCH   5  20
HETATM   20  N   UNL     1      -8.616   3.194 -30.070  1.00  0.00    -0.382 N 
HETATM   21  H   UNL     1      -8.832   3.608 -29.166  1.00  0.00     0.157 HD
HETATM   22  H   UNL     1      -8.798   2.186 -30.098  1.00  0.00     0.157 HD
ENDBRANCH   5  20
BRANCH   1  23
HETATM   23  C   UNL     1      -9.182   4.602 -32.881  1.00  0.00     0.275 C 
HETATM   24  N   UNL     1      -9.214   4.080 -34.155  1.00  0.00    -0.351 N 
HETATM   25  H   UNL     1      -8.413   3.538 -34.458  1.00  0.00     0.163 HD
HETATM   26  O   UNL     1     -10.132   5.182 -32.364  1.00  0.00    -0.266 OA
BRANCH  24  27
HETATM   27  C   UNL     1     -10.418   4.042 -34.947  1.00  0.00     0.161 C 
BRANCH  27  28
HETATM   28  C   UNL     1     -11.272   2.851 -34.586  1.00  0.00    -0.041 A 
HETATM   29  C   UNL     1     -12.620   2.796 -34.968  1.00  0.00     0.009 A 
HETATM   30  C   UNL     1     -13.408   1.688 -34.648  1.00  0.00     0.007 A 
HETATM   31  C   UNL     1     -12.864   0.612 -33.939  1.00  0.00    -0.062 A 
HETATM   32  C   UNL     1     -13.692  -0.598 -33.623  1.00  0.00     0.048 C 
HETATM   33  C   UNL     1     -11.514   0.655 -33.571  1.00  0.00     0.007 A 
HETATM   34  C   UNL     1     -10.726   1.766 -33.888  1.00  0.00     0.009 A 
ENDBRANCH  27  28
ENDBRANCH  24  27
ENDBRANCH   1  23
TORSDOF 8
ENDMDL
MODEL 8
REMARK VINA RESULT:      -7.7      5.575      8.698
REMARK  8 active torsions:
REMARK  status: ('A' for Active; 'I' for Inactive)
REMARK    1  A    between atoms: C_5  and  C_6 
REMARK    2  A    between atoms: C_6  and  N_7 
REMARK       I    between atoms: N_7  and  C_8 
REMARK    3  A    between atoms: C_8  and  C_9 
REMARK    4  A    between atoms: N_12  and  C_13 
REMARK    5  A    between atoms: C_13  and  C_14 
REMARK       I    between atoms: C_14  and  N_15 
REMARK    6  A    between atoms: N_15  and  C_16 
REMARK    7  A    between atoms: C_20  and  O_21 
REMARK    8  A    between atoms: C_26  and  N_27 
ROOT
HETATM    1  C   UNL     1      -5.501   3.447 -32.908  1.00  0.00     0.186 A 
HETATM    2  N   UNL     1      -5.766   3.924 -34.176  1.00  0.00    -0.150 NA
HETATM    3  N   UNL     1      -6.659   4.897 -34.079  1.00  0.00     0.007 NA
HETATM    4  N   UNL     1      -6.954   5.044 -32.768  1.00  0.00    -0.248 N 
HETATM    5  C   UNL     1      -6.267   4.149 -31.990  1.00  0.00     0.151 A 
ENDROOT
BRANCH   4   6
HETATM    6  C   UNL     1      -7.753   6.174 -32.355  1.00  0.00     0.251 C 
BRANCH   6   7
HETATM    7  C   UNL     1      -9.217   5.914 -32.646  1.00  0.00     0.241 C 
HETATM    8  N   UNL     1      -9.598   4.597 -32.429  1.00  0.00    -0.326 N 
HETATM    9  H   UNL     1      -8.860   3.955 -32.141  1.00  0.00     0.169 HD
HETATM   10  O   UNL     1      -9.952   6.833 -32.994  1.00  0.00    -0.271 OA
BRANCH   8  11
HETATM   11  C   UNL     1     -10.858   4.008 -32.656  1.00  0.00     0.036 A 
HETATM   12  C   UNL     1     -11.142   3.133 -33.701  1.00  0.00     0.056 A 
HETATM   13  C   UNL     1     -12.425   2.586 -33.832  1.00  0.00     0.069 A 
HETATM   14 CL   UNL     1     -12.708   1.495 -35.147  1.00  0.00    -0.081 Cl
HETATM   15  C   UNL     1     -13.450   2.914 -32.930  1.00  0.00     0.090 A 
HETATM   16  C   UNL     1     -13.157   3.787 -31.880  1.00  0.00     0.041 A 
HETATM   17  C   UNL     1     -11.874   4.326 -31.746  1.00  0.00     0.032 A 
BRANCH  15  18
HETATM   18  O   UNL     1     -14.674   2.335 -33.135  1.00  0.00    -0.354 OA
HETATM   19  C   UNL     1     -15.506   2.137 -32.000  1.00  0.00     0.210 C 
ENDBRANCH  15  18
ENDBRANCH   8  11
ENDBRANCH   6   7
ENDBRANCH   4   6
BRANCH   5  20
HETATM   20  N   UNL     1      -6.364   4.085 -30.643  1.00  0.00    -0.382 N 
HETATM   21  H   UNL     1      -6.510   4.891 -30.038  1.00  0.00     0.157 HD
HETATM   22  H   UNL     1      -5.922   3.300 -30.156  1.00  0.00     0.157 HD
ENDBRANCH   5  20
BRANCH   1  23
HETATM   23  C   UNL     1      -4.506   2.418 -32.637  1.00  0.00     0.275 C 
HETATM   24  N   UNL     1      -5.000   1.136 -32.728  1.00  0.00    -0.351 N 
HETATM   25  H   UNL     1      -5.963   1.026 -33.024  1.00  0.00     0.163 HD
HETATM   26  O   UNL     1      -3.331   2.675 -32.394  1.00  0.00    -0.266 OA
BRANCH  24  27
HETATM   27  C   UNL     1      -4.149  -0.026 -32.687  1.00  0.00     0.161 C 
BRANCH  27  28
HETATM   28  C   UNL     1      -4.777  -1.190 -33.414  1.00  0.00    -0.041 A 
HETATM   29  C   UNL     1      -4.036  -2.351 -33.680  1.00  0.00     0.009 A 
HETATM   30  C   UNL     1      -4.620  -3.434 -34.341  1.00  0.00     0.007 A 
HETATM   31  C   UNL     1      -5.956  -3.380 -34.749  1.00  0.00    -0.062 A 
HETATM   32  C   UNL     1      -6.602  -4.552 -35.425  1.00  0.00     0.048 C 
HETATM   33  C   UNL     1      -6.704  -2.230 -34.471  1.00  0.00     0.007 A 
HETATM   34  C   UNL     1      -6.119  -1.143 -33.813  1.00  0.00     0.009 A 
ENDBRANCH  27  28
ENDBRANCH  24  27
ENDBRANCH   1  23
TORSDOF 8
ENDMDL
MODEL 9
REMARK VINA RESULT:      -7.7      1.744      2.373
REMARK  8 active torsions:
REMARK  status: ('A' for Active; 'I' for Inactive)
REMARK    1  A    between atoms: C_5  and  C_6 
REMARK    2  A    between atoms: C_6  and  N_7 
REMARK       I    between atoms: N_7  and  C_8 
REMARK    3  A    between atoms: C_8  and  C_9 
REMARK    4  A    between atoms: N_12  and  C_13 
REMARK    5  A    between atoms: C_13  and  C_14 
REMARK       I    between atoms: C_14  and  N_15 
REMARK    6  A    between atoms: N_15  and  C_16 
REMARK    7  A    between atoms: C_20  and  O_21 
REMARK    8  A    between atoms: C_26  and  N_27 
ROOT
HETATM    1  C   UNL     1      -6.044   2.654 -33.185  1.00  0.00     0.186 A 
HETATM    2  N   UNL     1      -4.742   2.580 -32.730  1.00  0.00    -0.150 NA
HETATM    3  N   UNL     1      -4.225   3.799 -32.741  1.00  0.00     0.007 NA
HETATM    4  N   UNL     1      -5.184   4.640 -33.188  1.00  0.00    -0.248 N 
HETATM    5  C   UNL     1      -6.341   3.972 -33.495  1.00  0.00     0.151 A 
ENDROOT
BRANCH   4   6
HETATM    6  C   UNL     1      -4.956   6.063 -33.110  1.00  0.00     0.251 C 
BRANCH   6   7
HETATM    7  C   UNL     1      -4.250   6.409 -31.814  1.00  0.00     0.241 C 
HETATM    8  N   UNL     1      -2.866   6.428 -31.926  1.00  0.00    -0.326 N 
HETATM    9  H   UNL     1      -2.484   6.176 -32.837  1.00  0.00     0.169 HD
HETATM   10  O   UNL     1      -4.899   6.679 -30.808  1.00  0.00    -0.271 OA
BRANCH   8  11
HETATM   11  C   UNL     1      -1.915   6.651 -30.912  1.00  0.00     0.036 A 
HETATM   12  C   UNL     1      -2.224   6.803 -29.562  1.00  0.00     0.056 A 
HETATM   13  C   UNL     1      -1.203   7.007 -28.626  1.00  0.00     0.069 A 
HETATM   14 CL   UNL     1      -1.654   7.177 -26.962  1.00  0.00    -0.081 Cl
HETATM   15  C   UNL     1       0.143   7.075 -29.021  1.00  0.00     0.090 A 
HETATM   16  C   UNL     1       0.447   6.915 -30.374  1.00  0.00     0.041 A 
HETATM   17  C   UNL     1      -0.573   6.705 -31.308  1.00  0.00     0.032 A 
BRANCH  15  18
HETATM   18  O   UNL     1       1.075   7.278 -28.038  1.00  0.00    -0.354 OA
HETATM   19  C   UNL     1       1.516   8.612 -27.816  1.00  0.00     0.210 C 
ENDBRANCH  15  18
ENDBRANCH   8  11
ENDBRANCH   6   7
ENDBRANCH   4   6
BRANCH   5  20
HETATM   20  N   UNL     1      -7.464   4.571 -33.952  1.00  0.00    -0.382 N 
HETATM   21  H   UNL     1      -8.212   4.919 -33.356  1.00  0.00     0.157 HD
HETATM   22  H   UNL     1      -7.780   4.361 -34.903  1.00  0.00     0.157 HD
ENDBRANCH   5  20
BRANCH   1  23
HETATM   23  C   UNL     1      -6.936   1.503 -33.233  1.00  0.00     0.275 C 
HETATM   24  N   UNL     1      -6.750   0.709 -34.343  1.00  0.00    -0.351 N 
HETATM   25  H   UNL     1      -5.995   0.954 -34.972  1.00  0.00     0.163 HD
HETATM   26  O   UNL     1      -7.744   1.249 -32.345  1.00  0.00    -0.266 OA
BRANCH  24  27
HETATM   27  C   UNL     1      -7.389  -0.575 -34.491  1.00  0.00     0.161 C 
BRANCH  27  28
HETATM   28  C   UNL     1      -6.395  -1.701 -34.350  1.00  0.00    -0.041 A 
HETATM   29  C   UNL     1      -6.687  -2.979 -34.848  1.00  0.00     0.009 A 
HETATM   30  C   UNL     1      -5.762  -4.019 -34.730  1.00  0.00     0.007 A 
HETATM   31  C   UNL     1      -4.526  -3.803 -34.113  1.00  0.00    -0.062 A 
HETATM   32  C   UNL     1      -3.512  -4.903 -34.016  1.00  0.00     0.048 C 
HETATM   33  C   UNL     1      -4.224  -2.524 -33.630  1.00  0.00     0.007 A 
HETATM   34  C   UNL     1      -5.151  -1.484 -33.744  1.00  0.00     0.009 A 
ENDBRANCH  27  28
ENDBRANCH  24  27
ENDBRANCH   1  23
TORSDOF 8
ENDMDL
MODEL 10
REMARK VINA RESULT:      -7.6      5.211      8.872
REMARK  8 active torsions:
REMARK  status: ('A' for Active; 'I' for Inactive)
REMARK    1  A    between atoms: C_5  and  C_6 
REMARK    2  A    between atoms: C_6  and  N_7 
REMARK       I    between atoms: N_7  and  C_8 
REMARK    3  A    between atoms: C_8  and  C_9 
REMARK    4  A    between atoms: N_12  and  C_13 
REMARK    5  A    between atoms: C_13  and  C_14 
REMARK       I    between atoms: C_14  and  N_15 
REMARK    6  A    between atoms: N_15  and  C_16 
REMARK    7  A    between atoms: C_20  and  O_21 
REMARK    8  A    between atoms: C_26  and  N_27 
ROOT
HETATM    1  C   UNL     1      -7.209   4.704 -33.240  1.00  0.00     0.186 A 
HETATM    2  N   UNL     1      -6.268   4.678 -34.251  1.00  0.00    -0.150 NA
HETATM    3  N   UNL     1      -5.144   4.178 -33.762  1.00  0.00     0.007 NA
HETATM    4  N   UNL     1      -5.365   3.883 -32.462  1.00  0.00    -0.248 N 
HETATM    5  C   UNL     1      -6.640   4.206 -32.079  1.00  0.00     0.151 A 
ENDROOT
BRANCH   4   6
HETATM    6  C   UNL     1      -4.365   3.135 -31.736  1.00  0.00     0.251 C 
BRANCH   6   7
HETATM    7  C   UNL     1      -4.707   1.659 -31.746  1.00  0.00     0.241 C 
HETATM    8  N   UNL     1      -4.878   1.139 -33.022  1.00  0.00    -0.326 N 
HETATM    9  H   UNL     1      -4.795   1.801 -33.793  1.00  0.00     0.169 HD
HETATM   10  O   UNL     1      -4.768   1.030 -30.694  1.00  0.00    -0.271 OA
BRANCH   8  11
HETATM   11  C   UNL     1      -5.256  -0.169 -33.385  1.00  0.00     0.036 A 
HETATM   12  C   UNL     1      -4.386  -1.255 -33.430  1.00  0.00     0.056 A 
HETATM   13  C   UNL     1      -4.862  -2.523 -33.788  1.00  0.00     0.069 A 
HETATM   14 CL   UNL     1      -3.730  -3.834 -33.813  1.00  0.00    -0.081 Cl
HETATM   15  C   UNL     1      -6.210  -2.726 -34.119  1.00  0.00     0.090 A 
HETATM   16  C   UNL     1      -7.080  -1.634 -34.066  1.00  0.00     0.041 A 
HETATM   17  C   UNL     1      -6.605  -0.370 -33.701  1.00  0.00     0.032 A 
BRANCH  15  18
HETATM   18  O   UNL     1      -6.588  -3.997 -34.459  1.00  0.00    -0.354 OA
HETATM   19  C   UNL     1      -6.481  -4.372 -35.826  1.00  0.00     0.210 C 
ENDBRANCH  15  18
ENDBRANCH   8  11
ENDBRANCH   6   7
ENDBRANCH   4   6
BRANCH   5  20
HETATM   20  N   UNL     1      -7.132   4.004 -30.835  1.00  0.00    -0.382 N 
HETATM   21  H   UNL     1      -7.519   4.737 -30.244  1.00  0.00     0.157 HD
HETATM   22  H   UNL     1      -6.795   3.199 -30.299  1.00  0.00     0.157 HD
ENDBRANCH   5  20
BRANCH   1  23
HETATM   23  C   UNL     1      -8.587   5.128 -33.448  1.00  0.00     0.275 C 
HETATM   24  N   UNL     1      -9.185   4.540 -34.540  1.00  0.00    -0.351 N 
HETATM   25  H   UNL     1      -8.652   3.844 -35.048  1.00  0.00     0.163 HD
HETATM   26  O   UNL     1      -9.168   5.902 -32.692  1.00  0.00    -0.266 OA
BRANCH  24  27
HETATM   27  C   UNL     1     -10.595   4.671 -34.814  1.00  0.00     0.161 C 
BRANCH  27  28
HETATM   28  C   UNL     1     -11.326   3.379 -34.542  1.00  0.00    -0.041 A 
HETATM   29  C   UNL     1     -10.646   2.268 -34.024  1.00  0.00     0.009 A 
HETATM   30  C   UNL     1     -11.325   1.076 -33.758  1.00  0.00     0.007 A 
HETATM   31  C   UNL     1     -12.697   0.971 -34.005  1.00  0.00    -0.062 A 
HETATM   32  C   UNL     1     -13.441  -0.292 -33.688  1.00  0.00     0.048 C 
HETATM   33  C   UNL     1     -13.383   2.083 -34.506  1.00  0.00     0.007 A 
HETATM   34  C   UNL     1     -12.703   3.275 -34.776  1.00  0.00     0.009 A 
ENDBRANCH  27  28
ENDBRANCH  24  27
ENDBRANCH   1  23
TORSDOF 8
ENDMDL
