MODEL 1
REMARK VINA RESULT:      -5.8      0.000      0.000
REMARK  2 active torsions:
REMARK  status: ('A' for Active; 'I' for Inactive)
REMARK    1  A    between atoms: S_2  and  C_3 
REMARK    2  A    between atoms: C_7  and  N_8 
ROOT
HETATM    1  C   UNL     1      -4.349 -12.854 -38.915  1.00  0.00     0.060 A 
HETATM    2  C   UNL     1      -5.227 -13.176 -37.883  1.00  0.00     0.044 A 
HETATM    3  C   UNL     1      -6.595 -13.274 -38.155  1.00  0.00     0.033 A 
HETATM    4 BR   UNL     1      -7.748 -13.655 -36.686  1.00  0.00    -0.049 Br
HETATM    5  C   UNL     1      -7.107 -13.067 -39.459  1.00  0.00     0.028 A 
HETATM    6  C   UNL     1      -6.190 -12.750 -40.476  1.00  0.00     0.026 A 
HETATM    7  C   UNL     1      -4.820 -12.647 -40.212  1.00  0.00     0.025 A 
ENDROOT
BRANCH   5   8
HETATM    8  N   UNL     1      -8.483 -13.217 -39.723  1.00  0.00    -0.279 NA
HETATM    9  C   UNL     1      -9.206 -12.030 -40.214  1.00  0.00     0.123 C 
HETATM   10  C   UNL     1     -10.726 -12.287 -40.126  1.00  0.00     0.247 C 
HETATM   11  N   UNL     1     -11.089 -13.559 -40.863  1.00  0.00    -0.073 N 
HETATM   12  H   UNL     1     -10.932 -13.428 -41.870  1.00  0.00     0.277 HD
HETATM   13  H   UNL     1     -12.091 -13.748 -40.740  1.00  0.00     0.277 HD
HETATM   14  C   UNL     1     -10.295 -14.756 -40.384  1.00  0.00     0.247 C 
HETATM   15  C   UNL     1      -8.782 -14.465 -40.460  1.00  0.00     0.123 C 
ENDBRANCH   5   8
BRANCH   1  16
HETATM   16  S   UNL     1      -2.601 -12.798 -38.586  1.00  0.00     0.171 S 
HETATM   17  C   UNL     1      -2.429 -13.709 -37.075  1.00  0.00     0.167 C 
HETATM   18  O   UNL     1      -2.261 -11.413 -38.324  1.00  0.00    -0.223 OA
HETATM   19  O   UNL     1      -1.955 -13.538 -39.651  1.00  0.00    -0.223 OA
ENDBRANCH   1  16
TORSDOF 2
ENDMDL
MODEL 2
REMARK VINA RESULT:      -5.8     17.268     17.823
REMARK  2 active torsions:
REMARK  status: ('A' for Active; 'I' for Inactive)
REMARK    1  A    between atoms: S_2  and  C_3 
REMARK    2  A    between atoms: C_7  and  N_8 
ROOT
HETATM    1  C   UNL     1      -3.213   4.853 -33.789  1.00  0.00     0.060 A 
HETATM    2  C   UNL     1      -3.042   3.801 -32.892  1.00  0.00     0.044 A 
HETATM    3  C   UNL     1      -4.124   2.961 -32.610  1.00  0.00     0.033 A 
HETATM    4 BR   UNL     1      -3.840   1.580 -31.327  1.00  0.00    -0.049 Br
HETATM    5  C   UNL     1      -5.386   3.147 -33.225  1.00  0.00     0.028 A 
HETATM    6  C   UNL     1      -5.519   4.215 -34.128  1.00  0.00     0.026 A 
HETATM    7  C   UNL     1      -4.443   5.063 -34.414  1.00  0.00     0.025 A 
ENDROOT
BRANCH   5   8
HETATM    8  N   UNL     1      -6.450   2.262 -32.964  1.00  0.00    -0.279 NA
HETATM    9  C   UNL     1      -7.718   2.853 -32.498  1.00  0.00     0.123 C 
HETATM   10  C   UNL     1      -8.632   1.734 -31.955  1.00  0.00     0.247 C 
HETATM   11  N   UNL     1      -8.821   0.654 -33.000  1.00  0.00    -0.073 N 
HETATM   12  H   UNL     1      -9.359   1.032 -33.790  1.00  0.00     0.277 HD
HETATM   13  H   UNL     1      -9.379  -0.111 -32.601  1.00  0.00     0.277 HD
HETATM   14  C   UNL     1      -7.507   0.099 -33.507  1.00  0.00     0.247 C 
HETATM   15  C   UNL     1      -6.604   1.238 -34.022  1.00  0.00     0.123 C 
ENDBRANCH   5   8
BRANCH   1  16
HETATM   16  S   UNL     1      -1.821   5.880 -34.203  1.00  0.00     0.171 S 
HETATM   17  C   UNL     1      -0.811   5.824 -32.746  1.00  0.00     0.167 C 
HETATM   18  O   UNL     1      -2.320   7.233 -34.358  1.00  0.00    -0.223 OA
HETATM   19  O   UNL     1      -1.119   5.213 -35.281  1.00  0.00    -0.223 OA
ENDBRANCH   1  16
TORSDOF 2
ENDMDL
MODEL 3
REMARK VINA RESULT:      -5.7     15.603     16.855
REMARK  2 active torsions:
REMARK  status: ('A' for Active; 'I' for Inactive)
REMARK    1  A    between atoms: S_2  and  C_3 
REMARK    2  A    between atoms: C_7  and  N_8 
ROOT
HETATM    1  C   UNL     1     -11.189   1.470 -33.865  1.00  0.00     0.060 A 
HETATM    2  C   UNL     1     -10.168   2.405 -34.021  1.00  0.00     0.044 A 
HETATM    3  C   UNL     1      -8.885   2.099 -33.558  1.00  0.00     0.033 A 
HETATM    4 BR   UNL     1      -7.550   3.445 -33.745  1.00  0.00    -0.049 Br
HETATM    5  C   UNL     1      -8.596   0.855 -32.945  1.00  0.00     0.028 A 
HETATM    6  C   UNL     1      -9.650  -0.064 -32.810  1.00  0.00     0.026 A 
HETATM    7  C   UNL     1     -10.938   0.234 -33.268  1.00  0.00     0.025 A 
ENDROOT
BRANCH   5   8
HETATM    8  N   UNL     1      -7.287   0.547 -32.527  1.00  0.00    -0.279 NA
HETATM    9  C   UNL     1      -7.017   0.585 -31.078  1.00  0.00     0.123 C 
HETATM   10  C   UNL     1      -5.491   0.553 -30.843  1.00  0.00     0.247 C 
HETATM   11  N   UNL     1      -4.876  -0.644 -31.538  1.00  0.00    -0.073 N 
HETATM   12  H   UNL     1      -5.200  -1.508 -31.085  1.00  0.00     0.277 HD
HETATM   13  H   UNL     1      -3.855  -0.614 -31.425  1.00  0.00     0.277 HD
HETATM   14  C   UNL     1      -5.211  -0.696 -33.014  1.00  0.00     0.247 C 
HETATM   15  C   UNL     1      -6.738  -0.639 -33.222  1.00  0.00     0.123 C 
ENDBRANCH   5   8
BRANCH   1  16
HETATM   16  S   UNL     1     -12.806   1.828 -34.516  1.00  0.00     0.171 S 
HETATM   17  C   UNL     1     -13.773   0.423 -34.034  1.00  0.00     0.167 C 
HETATM   18  O   UNL     1     -12.692   1.828 -35.962  1.00  0.00    -0.223 OA
HETATM   19  O   UNL     1     -13.291   2.994 -33.804  1.00  0.00    -0.223 OA
ENDBRANCH   1  16
TORSDOF 2
ENDMDL
MODEL 4
REMARK VINA RESULT:      -5.7     14.286     15.224
REMARK  2 active torsions:
REMARK  status: ('A' for Active; 'I' for Inactive)
REMARK    1  A    between atoms: S_2  and  C_3 
REMARK    2  A    between atoms: C_7  and  N_8 
ROOT
HETATM    1  C   UNL     1      -5.563  -2.241 -33.913  1.00  0.00     0.060 A 
HETATM    2  C   UNL     1      -6.691  -1.438 -33.760  1.00  0.00     0.044 A 
HETATM    3  C   UNL     1      -6.577  -0.223 -33.078  1.00  0.00     0.033 A 
HETATM    4 BR   UNL     1      -8.169   0.798 -32.849  1.00  0.00    -0.049 Br
HETATM    5  C   UNL     1      -5.338   0.217 -32.551  1.00  0.00     0.028 A 
HETATM    6  C   UNL     1      -4.222  -0.618 -32.729  1.00  0.00     0.026 A 
HETATM    7  C   UNL     1      -4.327  -1.837 -33.408  1.00  0.00     0.025 A 
ENDROOT
BRANCH   5   8
HETATM    8  N   UNL     1      -5.233   1.466 -31.908  1.00  0.00    -0.279 NA
HETATM    9  C   UNL     1      -5.418   1.487 -30.446  1.00  0.00     0.123 C 
HETATM   10  C   UNL     1      -5.599   2.947 -29.976  1.00  0.00     0.247 C 
HETATM   11  N   UNL     1      -4.441   3.800 -30.448  1.00  0.00    -0.073 N 
HETATM   12  H   UNL     1      -3.580   3.506 -29.969  1.00  0.00     0.277 HD
HETATM   13  H   UNL     1      -4.609   4.778 -30.183  1.00  0.00     0.277 HD
HETATM   14  C   UNL     1      -4.231   3.721 -31.946  1.00  0.00     0.247 C 
HETATM   15  C   UNL     1      -4.076   2.252 -32.391  1.00  0.00     0.123 C 
ENDBRANCH   5   8
BRANCH   1  16
HETATM   16  S   UNL     1      -5.691  -3.754 -34.840  1.00  0.00     0.171 S 
HETATM   17  C   UNL     1      -4.436  -4.788 -34.132  1.00  0.00     0.167 C 
HETATM   18  O   UNL     1      -5.312  -3.450 -36.207  1.00  0.00    -0.223 OA
HETATM   19  O   UNL     1      -6.988  -4.321 -34.532  1.00  0.00    -0.223 OA
ENDBRANCH   1  16
TORSDOF 2
ENDMDL
MODEL 5
REMARK VINA RESULT:      -5.7     18.335     19.099
REMARK  2 active torsions:
REMARK  status: ('A' for Active; 'I' for Inactive)
REMARK    1  A    between atoms: S_2  and  C_3 
REMARK    2  A    between atoms: C_7  and  N_8 
ROOT
HETATM    1  C   UNL     1      -2.725   5.865 -32.648  1.00  0.00     0.060 A 
HETATM    2  C   UNL     1      -4.012   5.742 -33.166  1.00  0.00     0.044 A 
HETATM    3  C   UNL     1      -4.727   4.561 -32.948  1.00  0.00     0.033 A 
HETATM    4 BR   UNL     1      -6.457   4.433 -33.738  1.00  0.00    -0.049 Br
HETATM    5  C   UNL     1      -4.178   3.491 -32.199  1.00  0.00     0.028 A 
HETATM    6  C   UNL     1      -2.880   3.654 -31.688  1.00  0.00     0.026 A 
HETATM    7  C   UNL     1      -2.156   4.831 -31.904  1.00  0.00     0.025 A 
ENDROOT
BRANCH   5   8
HETATM    8  N   UNL     1      -4.932   2.328 -31.950  1.00  0.00    -0.279 NA
HETATM    9  C   UNL     1      -4.516   1.095 -32.643  1.00  0.00     0.123 C 
HETATM   10  C   UNL     1      -5.632   0.036 -32.514  1.00  0.00     0.247 C 
HETATM   11  N   UNL     1      -5.983  -0.184 -31.057  1.00  0.00    -0.073 N 
HETATM   12  H   UNL     1      -5.188  -0.622 -30.575  1.00  0.00     0.277 HD
HETATM   13  H   UNL     1      -6.769  -0.842 -30.993  1.00  0.00     0.277 HD
HETATM   14  C   UNL     1      -6.353   1.102 -30.348  1.00  0.00     0.247 C 
HETATM   15  C   UNL     1      -5.233   2.149 -30.512  1.00  0.00     0.123 C 
ENDBRANCH   5   8
BRANCH   1  16
HETATM   16  S   UNL     1      -1.841   7.393 -32.865  1.00  0.00     0.171 S 
HETATM   17  C   UNL     1      -0.305   7.113 -32.024  1.00  0.00     0.167 C 
HETATM   18  O   UNL     1      -2.574   8.416 -32.144  1.00  0.00    -0.223 OA
HETATM   19  O   UNL     1      -1.576   7.522 -34.284  1.00  0.00    -0.223 OA
ENDBRANCH   1  16
TORSDOF 2
ENDMDL
MODEL 6
REMARK VINA RESULT:      -5.6     14.150     14.992
REMARK  2 active torsions:
REMARK  status: ('A' for Active; 'I' for Inactive)
REMARK    1  A    between atoms: S_2  and  C_3 
REMARK    2  A    between atoms: C_7  and  N_8 
ROOT
HETATM    1  C   UNL     1      -5.664  -2.308 -34.184  1.00  0.00     0.060 A 
HETATM    2  C   UNL     1      -4.568  -2.055 -33.363  1.00  0.00     0.044 A 
HETATM    3  C   UNL     1      -4.443  -0.801 -32.757  1.00  0.00     0.033 A 
HETATM    4 BR   UNL     1      -2.889  -0.498 -31.697  1.00  0.00    -0.049 Br
HETATM    5  C   UNL     1      -5.413   0.213 -32.948  1.00  0.00     0.028 A 
HETATM    6  C   UNL     1      -6.507  -0.081 -33.779  1.00  0.00     0.026 A 
HETATM    7  C   UNL     1      -6.639  -1.332 -34.392  1.00  0.00     0.025 A 
ENDROOT
BRANCH   5   8
HETATM    8  N   UNL     1      -5.295   1.454 -32.291  1.00  0.00    -0.279 NA
HETATM    9  C   UNL     1      -5.464   2.667 -33.111  1.00  0.00     0.123 C 
HETATM   10  C   UNL     1      -4.977   3.895 -32.310  1.00  0.00     0.247 C 
HETATM   11  N   UNL     1      -5.687   3.968 -30.975  1.00  0.00    -0.073 N 
HETATM   12  H   UNL     1      -6.684   4.168 -31.127  1.00  0.00     0.277 HD
HETATM   13  H   UNL     1      -5.306   4.751 -30.431  1.00  0.00     0.277 HD
HETATM   14  C   UNL     1      -5.550   2.691 -30.172  1.00  0.00     0.247 C 
HETATM   15  C   UNL     1      -6.020   1.479 -31.001  1.00  0.00     0.123 C 
ENDBRANCH   5   8
BRANCH   1  16
HETATM   16  S   UNL     1      -5.861  -3.925 -34.900  1.00  0.00     0.171 S 
HETATM   17  C   UNL     1      -4.547  -4.868 -34.173  1.00  0.00     0.167 C 
HETATM   18  O   UNL     1      -5.597  -3.798 -36.320  1.00  0.00    -0.223 OA
HETATM   19  O   UNL     1      -7.126  -4.441 -34.417  1.00  0.00    -0.223 OA
ENDBRANCH   1  16
TORSDOF 2
ENDMDL
MODEL 7
REMARK VINA RESULT:      -5.5      3.539      4.840
REMARK  2 active torsions:
REMARK  status: ('A' for Active; 'I' for Inactive)
REMARK    1  A    between atoms: S_2  and  C_3 
REMARK    2  A    between atoms: C_7  and  N_8 
ROOT
HETATM    1  C   UNL     1       0.166 -14.656 -39.070  1.00  0.00     0.060 A 
HETATM    2  C   UNL     1      -0.738 -14.619 -38.010  1.00  0.00     0.044 A 
HETATM    3  C   UNL     1      -2.058 -14.225 -38.251  1.00  0.00     0.033 A 
HETATM    4 BR   UNL     1      -3.226 -14.136 -36.748  1.00  0.00    -0.049 Br
HETATM    5  C   UNL     1      -2.501 -13.876 -39.550  1.00  0.00     0.028 A 
HETATM    6  C   UNL     1      -1.562 -13.930 -40.594  1.00  0.00     0.026 A 
HETATM    7  C   UNL     1      -0.239 -14.320 -40.362  1.00  0.00     0.025 A 
ENDROOT
BRANCH   5   8
HETATM    8  N   UNL     1      -3.846 -13.527 -39.781  1.00  0.00    -0.279 NA
HETATM    9  C   UNL     1      -4.316 -12.250 -39.213  1.00  0.00     0.123 C 
HETATM   10  C   UNL     1      -5.858 -12.201 -39.277  1.00  0.00     0.247 C 
HETATM   11  N   UNL     1      -6.334 -12.440 -40.695  1.00  0.00    -0.073 N 
HETATM   12  H   UNL     1      -6.050 -11.650 -41.289  1.00  0.00     0.277 HD
HETATM   13  H   UNL     1      -7.361 -12.467 -40.709  1.00  0.00     0.277 HD
HETATM   14  C   UNL     1      -5.794 -13.727 -41.282  1.00  0.00     0.247 C 
HETATM   15  C   UNL     1      -4.255 -13.761 -41.184  1.00  0.00     0.123 C 
ENDBRANCH   5   8
BRANCH   1  16
HETATM   16  S   UNL     1       1.826 -15.224 -38.779  1.00  0.00     0.171 S 
HETATM   17  C   UNL     1       1.731 -16.002 -37.188  1.00  0.00     0.167 C 
HETATM   18  O   UNL     1       2.665 -14.047 -38.660  1.00  0.00    -0.223 OA
HETATM   19  O   UNL     1       2.098 -16.239 -39.777  1.00  0.00    -0.223 OA
ENDBRANCH   1  16
TORSDOF 2
ENDMDL
MODEL 8
REMARK VINA RESULT:      -5.5     22.191     23.151
REMARK  2 active torsions:
REMARK  status: ('A' for Active; 'I' for Inactive)
REMARK    1  A    between atoms: S_2  and  C_3 
REMARK    2  A    between atoms: C_7  and  N_8 
ROOT
HETATM    1  C   UNL     1      -0.278   7.830 -28.063  1.00  0.00     0.060 A 
HETATM    2  C   UNL     1      -1.638   7.626 -28.286  1.00  0.00     0.044 A 
HETATM    3  C   UNL     1      -2.065   7.171 -29.537  1.00  0.00     0.033 A 
HETATM    4 BR   UNL     1      -3.942   6.975 -29.796  1.00  0.00    -0.049 Br
HETATM    5  C   UNL     1      -1.145   6.899 -30.579  1.00  0.00     0.028 A 
HETATM    6  C   UNL     1       0.219   7.110 -30.315  1.00  0.00     0.026 A 
HETATM    7  C   UNL     1       0.655   7.568 -29.067  1.00  0.00     0.025 A 
ENDROOT
BRANCH   5   8
HETATM    8  N   UNL     1      -1.590   6.396 -31.817  1.00  0.00    -0.279 NA
HETATM    9  C   UNL     1      -1.255   7.179 -33.021  1.00  0.00     0.123 C 
HETATM   10  C   UNL     1      -2.093   6.666 -34.212  1.00  0.00     0.247 C 
HETATM   11  N   UNL     1      -1.896   5.175 -34.391  1.00  0.00    -0.073 N 
HETATM   12  H   UNL     1      -0.929   4.991 -34.688  1.00  0.00     0.277 HD
HETATM   13  H   UNL     1      -2.508   4.840 -35.145  1.00  0.00     0.277 HD
HETATM   14  C   UNL     1      -2.189   4.393 -33.128  1.00  0.00     0.247 C 
HETATM   15  C   UNL     1      -1.358   4.940 -31.950  1.00  0.00     0.123 C 
ENDBRANCH   5   8
BRANCH   1  16
HETATM   16  S   UNL     1       0.273   8.341 -26.450  1.00  0.00     0.171 S 
HETATM   17  C   UNL     1       0.864   9.992 -26.713  1.00  0.00     0.167 C 
HETATM   18  O   UNL     1       1.405   7.503 -26.101  1.00  0.00    -0.223 OA
HETATM   19  O   UNL     1      -0.904   8.398 -25.608  1.00  0.00    -0.223 OA
ENDBRANCH   1  16
TORSDOF 2
ENDMDL
MODEL 9
REMARK VINA RESULT:      -5.5     17.746     18.384
REMARK  2 active torsions:
REMARK  status: ('A' for Active; 'I' for Inactive)
REMARK    1  A    between atoms: S_2  and  C_3 
REMARK    2  A    between atoms: C_7  and  N_8 
ROOT
HETATM    1  C   UNL     1      -3.137   4.262 -32.170  1.00  0.00     0.060 A 
HETATM    2  C   UNL     1      -4.242   4.866 -32.765  1.00  0.00     0.044 A 
HETATM    3  C   UNL     1      -5.492   4.248 -32.672  1.00  0.00     0.033 A 
HETATM    4 BR   UNL     1      -6.949   5.094 -33.562  1.00  0.00    -0.049 Br
HETATM    5  C   UNL     1      -5.664   3.026 -31.976  1.00  0.00     0.028 A 
HETATM    6  C   UNL     1      -4.528   2.450 -31.384  1.00  0.00     0.026 A 
HETATM    7  C   UNL     1      -3.273   3.060 -31.474  1.00  0.00     0.025 A 
ENDROOT
BRANCH   5   8
HETATM    8  N   UNL     1      -6.940   2.443 -31.853  1.00  0.00    -0.279 NA
HETATM    9  C   UNL     1      -7.033   0.984 -32.044  1.00  0.00     0.123 C 
HETATM   10  C   UNL     1      -8.516   0.584 -32.203  1.00  0.00     0.247 C 
HETATM   11  N   UNL     1      -9.327   1.090 -31.028  1.00  0.00    -0.073 N 
HETATM   12  H   UNL     1      -9.042   0.592 -30.175  1.00  0.00     0.277 HD
HETATM   13  H   UNL     1     -10.319   0.871 -31.181  1.00  0.00     0.277 HD
HETATM   14  C   UNL     1      -9.174   2.581 -30.813  1.00  0.00     0.247 C 
HETATM   15  C   UNL     1      -7.684   2.956 -30.680  1.00  0.00     0.123 C 
ENDBRANCH   5   8
BRANCH   1  16
HETATM   16  S   UNL     1      -1.560   5.082 -32.226  1.00  0.00     0.171 S 
HETATM   17  C   UNL     1      -1.938   6.751 -31.762  1.00  0.00     0.167 C 
HETATM   18  O   UNL     1      -1.128   5.082 -33.611  1.00  0.00    -0.223 OA
HETATM   19  O   UNL     1      -0.744   4.484 -31.188  1.00  0.00    -0.223 OA
ENDBRANCH   1  16
TORSDOF 2
ENDMDL
MODEL 10
REMARK VINA RESULT:      -5.4     17.742     18.708
REMARK  2 active torsions:
REMARK  status: ('A' for Active; 'I' for Inactive)
REMARK    1  A    between atoms: S_2  and  C_3 
REMARK    2  A    between atoms: C_7  and  N_8 
ROOT
HETATM    1  C   UNL     1      -4.909   1.282 -32.059  1.00  0.00     0.060 A 
HETATM    2  C   UNL     1      -5.697   2.226 -32.714  1.00  0.00     0.044 A 
HETATM    3  C   UNL     1      -5.200   3.519 -32.903  1.00  0.00     0.033 A 
HETATM    4 BR   UNL     1      -6.353   4.779 -33.748  1.00  0.00    -0.049 Br
HETATM    5  C   UNL     1      -3.907   3.887 -32.458  1.00  0.00     0.028 A 
HETATM    6  C   UNL     1      -3.139   2.907 -31.807  1.00  0.00     0.026 A 
HETATM    7  C   UNL     1      -3.629   1.612 -31.610  1.00  0.00     0.025 A 
ENDROOT
BRANCH   5   8
HETATM    8  N   UNL     1      -3.405   5.181 -32.700  1.00  0.00    -0.279 NA
HETATM    9  C   UNL     1      -3.203   6.054 -31.529  1.00  0.00     0.123 C 
HETATM   10  C   UNL     1      -2.976   7.504 -32.008  1.00  0.00     0.247 C 
HETATM   11  N   UNL     1      -1.835   7.559 -33.002  1.00  0.00    -0.073 N 
HETATM   12  H   UNL     1      -0.954   7.330 -32.525  1.00  0.00     0.277 HD
HETATM   13  H   UNL     1      -1.740   8.518 -33.357  1.00  0.00     0.277 HD
HETATM   14  C   UNL     1      -2.034   6.614 -34.168  1.00  0.00     0.247 C 
HETATM   15  C   UNL     1      -2.281   5.178 -33.663  1.00  0.00     0.123 C 
ENDBRANCH   5   8
BRANCH   1  16
HETATM   16  S   UNL     1      -5.511  -0.382 -31.879  1.00  0.00     0.171 S 
HETATM   17  C   UNL     1      -6.404  -0.670 -33.384  1.00  0.00     0.167 C 
HETATM   18  O   UNL     1      -6.459  -0.376 -30.782  1.00  0.00    -0.223 OA
HETATM   19  O   UNL     1      -4.347  -1.245 -31.858  1.00  0.00    -0.223 OA
ENDBRANCH   1  16
TORSDOF 2
ENDMDL
