MODEL 1
REMARK VINA RESULT:      -8.3      0.000      0.000
REMARK  8 active torsions:
REMARK  status: ('A' for Active; 'I' for Inactive)
REMARK    1  A    between atoms: C_2  and  C_3 
REMARK    2  A    between atoms: C_3  and  N_4 
REMARK    3  A    between atoms: C_3  and  C_19 
REMARK       I    between atoms: C_19  and  N_20 
REMARK    4  A    between atoms: N_20  and  C_21 
REMARK    5  A    between atoms: C_21  and  C_22 
REMARK    6  A    between atoms: C_22  and  C_23 
REMARK    7  A    between atoms: C_23  and  O_24 
REMARK    8  A    between atoms: O_24  and  C_25 
ROOT
HETATM    1  N   UNL     1      -5.953   1.266 -33.731  1.00  0.00    -0.220 N 
HETATM    2  N   UNL     1      -5.009   1.595 -32.754  1.00  0.00    -0.172 NA
HETATM    3  C   UNL     1      -4.255   0.660 -32.253  1.00  0.00     0.069 A 
HETATM    4  C   UNL     1      -3.275   1.033 -31.172  1.00  0.00     0.074 C 
HETATM    5  C   UNL     1      -4.358  -0.691 -32.736  1.00  0.00     0.048 A 
HETATM    6  C   UNL     1      -5.276  -1.052 -33.691  1.00  0.00     0.064 A 
HETATM    7  C   UNL     1      -6.186  -0.040 -34.210  1.00  0.00     0.277 A 
HETATM    8  O   UNL     1      -7.071  -0.307 -35.020  1.00  0.00    -0.266 OA
HETATM    9  S   UNL     1      -3.386  -1.976 -32.230  1.00  0.00    -0.086 SA
HETATM   10  C   UNL     1      -4.153  -3.073 -33.314  1.00  0.00     0.017 A 
HETATM   11  C   UNL     1      -5.167  -2.445 -34.048  1.00  0.00    -0.002 A 
HETATM   12  C   UNL     1      -3.844  -4.436 -33.492  1.00  0.00     0.020 A 
HETATM   13  C   UNL     1      -4.566  -5.178 -34.428  1.00  0.00     0.001 A 
HETATM   14  C   UNL     1      -5.576  -4.583 -35.169  1.00  0.00     0.001 A 
HETATM   15  C   UNL     1      -5.883  -3.232 -34.987  1.00  0.00     0.014 A 
ENDROOT
BRANCH   1  16
HETATM   16  C   UNL     1      -6.851   2.338 -34.181  1.00  0.00     0.205 C 
BRANCH  16  17
HETATM   17  C   UNL     1      -6.366   3.736 -33.764  1.00  0.00     0.032 C 
HETATM   18  C   UNL     1      -7.427   4.811 -33.946  1.00  0.00     0.007 C 
ENDBRANCH  16  17
BRANCH  16  19
HETATM   19  C   UNL     1      -8.265   2.055 -33.631  1.00  0.00     0.242 C 
HETATM   20  N   UNL     1      -9.224   1.850 -34.607  1.00  0.00    -0.359 N 
HETATM   21  H   UNL     1      -8.943   1.752 -35.575  1.00  0.00     0.162 HD
HETATM   22  O   UNL     1      -8.544   2.051 -32.434  1.00  0.00    -0.271 OA
BRANCH  20  23
HETATM   23  C   UNL     1     -10.608   1.567 -34.283  1.00  0.00     0.125 C 
BRANCH  23  24
HETATM   24  C   UNL     1     -11.548   2.718 -34.638  1.00  0.00     0.046 C 
BRANCH  24  25
HETATM   25  C   UNL     1     -12.958   2.538 -34.085  1.00  0.00     0.169 C 
BRANCH  25  26
HETATM   26  O   UNL     1     -13.699   1.678 -34.947  1.00  0.00    -0.387 OA
BRANCH  26  27
HETATM   27  C   UNL     1     -14.512   0.725 -34.258  1.00  0.00     0.113 C 
HETATM   28  C   UNL     1     -13.662  -0.387 -33.649  1.00  0.00     0.039 C 
HETATM   29  C   UNL     1     -15.245   1.487 -33.159  1.00  0.00     0.039 C 
ENDBRANCH  26  27
ENDBRANCH  25  26
ENDBRANCH  24  25
ENDBRANCH  23  24
ENDBRANCH  20  23
ENDBRANCH  16  19
ENDBRANCH   1  16
TORSDOF 8
ENDMDL
MODEL 2
REMARK VINA RESULT:      -8.3      3.947      7.180
REMARK  8 active torsions:
REMARK  status: ('A' for Active; 'I' for Inactive)
REMARK    1  A    between atoms: C_2  and  C_3 
REMARK    2  A    between atoms: C_3  and  N_4 
REMARK    3  A    between atoms: C_3  and  C_19 
REMARK       I    between atoms: C_19  and  N_20 
REMARK    4  A    between atoms: N_20  and  C_21 
REMARK    5  A    between atoms: C_21  and  C_22 
REMARK    6  A    between atoms: C_22  and  C_23 
REMARK    7  A    between atoms: C_23  and  O_24 
REMARK    8  A    between atoms: O_24  and  C_25 
ROOT
HETATM    1  N   UNL     1      -4.913   1.568 -32.179  1.00  0.00    -0.220 N 
HETATM    2  N   UNL     1      -5.900   1.808 -33.140  1.00  0.00    -0.172 NA
HETATM    3  C   UNL     1      -6.229   0.861 -33.969  1.00  0.00     0.069 A 
HETATM    4  C   UNL     1      -7.265   1.157 -35.021  1.00  0.00     0.074 C 
HETATM    5  C   UNL     1      -5.618  -0.438 -33.866  1.00  0.00     0.048 A 
HETATM    6  C   UNL     1      -4.642  -0.709 -32.939  1.00  0.00     0.064 A 
HETATM    7  C   UNL     1      -4.200   0.358 -32.052  1.00  0.00     0.277 A 
HETATM    8  O   UNL     1      -3.289   0.201 -31.241  1.00  0.00    -0.266 OA
HETATM    9  S   UNL     1      -6.013  -1.771 -34.824  1.00  0.00    -0.086 SA
HETATM   10  C   UNL     1      -4.893  -2.785 -33.994  1.00  0.00     0.017 A 
HETATM   11  C   UNL     1      -4.209  -2.083 -32.995  1.00  0.00    -0.002 A 
HETATM   12  C   UNL     1      -4.655  -4.152 -34.238  1.00  0.00     0.020 A 
HETATM   13  C   UNL     1      -3.712  -4.825 -33.458  1.00  0.00     0.001 A 
HETATM   14  C   UNL     1      -3.019  -4.156 -32.461  1.00  0.00     0.001 A 
HETATM   15  C   UNL     1      -3.256  -2.798 -32.226  1.00  0.00     0.014 A 
ENDROOT
BRANCH   1  16
HETATM   16  C   UNL     1      -4.503   2.704 -31.343  1.00  0.00     0.205 C 
BRANCH  16  17
HETATM   17  C   UNL     1      -5.393   2.880 -30.101  1.00  0.00     0.032 C 
HETATM   18  C   UNL     1      -6.221   1.644 -29.785  1.00  0.00     0.007 C 
ENDBRANCH  16  17
BRANCH  16  19
HETATM   19  C   UNL     1      -4.506   3.979 -32.213  1.00  0.00     0.242 C 
HETATM   20  N   UNL     1      -3.607   3.950 -33.264  1.00  0.00    -0.359 N 
HETATM   21  H   UNL     1      -3.126   3.089 -33.491  1.00  0.00     0.162 HD
HETATM   22  O   UNL     1      -5.208   4.961 -31.982  1.00  0.00    -0.271 OA
BRANCH  20  23
HETATM   23  C   UNL     1      -3.470   5.055 -34.192  1.00  0.00     0.125 C 
BRANCH  23  24
HETATM   24  C   UNL     1      -2.014   5.357 -34.543  1.00  0.00     0.046 C 
BRANCH  24  25
HETATM   25  C   UNL     1      -1.246   6.030 -33.409  1.00  0.00     0.169 C 
BRANCH  25  26
HETATM   26  O   UNL     1      -0.928   5.060 -32.413  1.00  0.00    -0.387 OA
BRANCH  26  27
HETATM   27  C   UNL     1      -0.681   5.616 -31.119  1.00  0.00     0.113 C 
HETATM   28  C   UNL     1       0.419   6.674 -31.175  1.00  0.00     0.039 C 
HETATM   29  C   UNL     1      -1.990   6.245 -30.654  1.00  0.00     0.039 C 
ENDBRANCH  26  27
ENDBRANCH  25  26
ENDBRANCH  24  25
ENDBRANCH  23  24
ENDBRANCH  20  23
ENDBRANCH  16  19
ENDBRANCH   1  16
TORSDOF 8
ENDMDL
MODEL 3
REMARK VINA RESULT:      -8.0      2.561      5.289
REMARK  8 active torsions:
REMARK  status: ('A' for Active; 'I' for Inactive)
REMARK    1  A    between atoms: C_2  and  C_3 
REMARK    2  A    between atoms: C_3  and  N_4 
REMARK    3  A    between atoms: C_3  and  C_19 
REMARK       I    between atoms: C_19  and  N_20 
REMARK    4  A    between atoms: N_20  and  C_21 
REMARK    5  A    between atoms: C_21  and  C_22 
REMARK    6  A    between atoms: C_22  and  C_23 
REMARK    7  A    between atoms: C_23  and  O_24 
REMARK    8  A    between atoms: O_24  and  C_25 
ROOT
HETATM    1  N   UNL     1      -7.029   1.554 -32.723  1.00  0.00    -0.220 N 
HETATM    2  N   UNL     1      -5.775   1.962 -32.259  1.00  0.00    -0.172 NA
HETATM    3  C   UNL     1      -4.774   1.131 -32.305  1.00  0.00     0.069 A 
HETATM    4  C   UNL     1      -3.444   1.580 -31.761  1.00  0.00     0.074 C 
HETATM    5  C   UNL     1      -4.946  -0.179 -32.875  1.00  0.00     0.048 A 
HETATM    6  C   UNL     1      -6.163  -0.617 -33.336  1.00  0.00     0.064 A 
HETATM    7  C   UNL     1      -7.316   0.266 -33.222  1.00  0.00     0.277 A 
HETATM    8  O   UNL     1      -8.445  -0.084 -33.558  1.00  0.00    -0.266 OA
HETATM    9  S   UNL     1      -3.714  -1.318 -33.068  1.00  0.00    -0.086 SA
HETATM   10  C   UNL     1      -4.780  -2.445 -33.818  1.00  0.00     0.017 A 
HETATM   11  C   UNL     1      -6.084  -1.941 -33.899  1.00  0.00    -0.002 A 
HETATM   12  C   UNL     1      -4.445  -3.720 -34.314  1.00  0.00     0.020 A 
HETATM   13  C   UNL     1      -5.440  -4.501 -34.904  1.00  0.00     0.001 A 
HETATM   14  C   UNL     1      -6.740  -4.029 -34.998  1.00  0.00     0.001 A 
HETATM   15  C   UNL     1      -7.070  -2.765 -34.501  1.00  0.00     0.014 A 
ENDROOT
BRANCH   1  16
HETATM   16  C   UNL     1      -8.145   2.491 -32.545  1.00  0.00     0.205 C 
BRANCH  16  17
HETATM   17  C   UNL     1      -8.411   3.345 -33.796  1.00  0.00     0.032 C 
HETATM   18  C   UNL     1      -9.850   3.254 -34.282  1.00  0.00     0.007 C 
ENDBRANCH  16  17
BRANCH  16  19
HETATM   19  C   UNL     1      -7.848   3.381 -31.319  1.00  0.00     0.242 C 
HETATM   20  N   UNL     1      -7.114   4.518 -31.608  1.00  0.00    -0.359 N 
HETATM   21  H   UNL     1      -6.945   4.776 -32.573  1.00  0.00     0.162 HD
HETATM   22  O   UNL     1      -8.187   3.099 -30.172  1.00  0.00    -0.271 OA
BRANCH  20  23
HETATM   23  C   UNL     1      -6.741   5.476 -30.587  1.00  0.00     0.125 C 
BRANCH  23  24
HETATM   24  C   UNL     1      -5.286   5.333 -30.142  1.00  0.00     0.046 C 
BRANCH  24  25
HETATM   25  C   UNL     1      -4.320   5.108 -31.301  1.00  0.00     0.169 C 
BRANCH  25  26
HETATM   26  O   UNL     1      -4.652   5.989 -32.372  1.00  0.00    -0.387 OA
BRANCH  26  27
HETATM   27  C   UNL     1      -3.993   5.681 -33.603  1.00  0.00     0.113 C 
HETATM   28  C   UNL     1      -2.684   4.936 -33.355  1.00  0.00     0.039 C 
HETATM   29  C   UNL     1      -4.950   4.806 -34.406  1.00  0.00     0.039 C 
ENDBRANCH  26  27
ENDBRANCH  25  26
ENDBRANCH  24  25
ENDBRANCH  23  24
ENDBRANCH  20  23
ENDBRANCH  16  19
ENDBRANCH   1  16
TORSDOF 8
ENDMDL
MODEL 4
REMARK VINA RESULT:      -7.8      3.697      7.249
REMARK  8 active torsions:
REMARK  status: ('A' for Active; 'I' for Inactive)
REMARK    1  A    between atoms: C_2  and  C_3 
REMARK    2  A    between atoms: C_3  and  N_4 
REMARK    3  A    between atoms: C_3  and  C_19 
REMARK       I    between atoms: C_19  and  N_20 
REMARK    4  A    between atoms: N_20  and  C_21 
REMARK    5  A    between atoms: C_21  and  C_22 
REMARK    6  A    between atoms: C_22  and  C_23 
REMARK    7  A    between atoms: C_23  and  O_24 
REMARK    8  A    between atoms: O_24  and  C_25 
ROOT
HETATM    1  N   UNL     1      -6.041   2.931 -32.477  1.00  0.00    -0.220 N 
HETATM    2  N   UNL     1      -7.326   3.175 -32.972  1.00  0.00    -0.172 NA
HETATM    3  C   UNL     1      -7.921   2.261 -33.683  1.00  0.00     0.069 A 
HETATM    4  C   UNL     1      -9.287   2.563 -34.239  1.00  0.00     0.074 C 
HETATM    5  C   UNL     1      -7.282   0.993 -33.915  1.00  0.00     0.048 A 
HETATM    6  C   UNL     1      -6.019   0.720 -33.449  1.00  0.00     0.064 A 
HETATM    7  C   UNL     1      -5.301   1.756 -32.719  1.00  0.00     0.277 A 
HETATM    8  O   UNL     1      -4.146   1.601 -32.327  1.00  0.00    -0.266 OA
HETATM    9  S   UNL     1      -7.977  -0.302 -34.747  1.00  0.00    -0.086 SA
HETATM   10  C   UNL     1      -6.598  -1.302 -34.480  1.00  0.00     0.017 A 
HETATM   11  C   UNL     1      -5.604  -0.623 -33.765  1.00  0.00    -0.002 A 
HETATM   12  C   UNL     1      -6.434  -2.637 -34.896  1.00  0.00     0.020 A 
HETATM   13  C   UNL     1      -5.248  -3.304 -34.583  1.00  0.00     0.001 A 
HETATM   14  C   UNL     1      -4.245  -2.658 -33.877  1.00  0.00     0.001 A 
HETATM   15  C   UNL     1      -4.410  -1.331 -33.470  1.00  0.00     0.014 A 
ENDROOT
BRANCH   1  16
HETATM   16  C   UNL     1      -5.374   4.037 -31.777  1.00  0.00     0.205 C 
BRANCH  16  17
HETATM   17  C   UNL     1      -6.274   4.705 -30.724  1.00  0.00     0.032 C 
HETATM   18  C   UNL     1      -5.522   5.089 -29.459  1.00  0.00     0.007 C 
ENDBRANCH  16  17
BRANCH  16  19
HETATM   19  C   UNL     1      -4.894   5.062 -32.826  1.00  0.00     0.242 C 
HETATM   20  N   UNL     1      -3.954   4.568 -33.714  1.00  0.00    -0.359 N 
HETATM   21  H   UNL     1      -3.748   3.577 -33.728  1.00  0.00     0.162 HD
HETATM   22  O   UNL     1      -5.269   6.232 -32.860  1.00  0.00    -0.271 OA
BRANCH  20  23
HETATM   23  C   UNL     1      -3.389   5.382 -34.772  1.00  0.00     0.125 C 
BRANCH  23  24
HETATM   24  C   UNL     1      -1.886   5.169 -34.946  1.00  0.00     0.046 C 
BRANCH  24  25
HETATM   25  C   UNL     1      -1.043   6.001 -33.985  1.00  0.00     0.169 C 
BRANCH  25  26
HETATM   26  O   UNL     1      -1.888   6.583 -32.995  1.00  0.00    -0.387 OA
BRANCH  26  27
HETATM   27  C   UNL     1      -1.421   6.407 -31.656  1.00  0.00     0.113 C 
HETATM   28  C   UNL     1      -1.492   4.942 -31.235  1.00  0.00     0.039 C 
HETATM   29  C   UNL     1       0.025   6.891 -31.629  1.00  0.00     0.039 C 
ENDBRANCH  26  27
ENDBRANCH  25  26
ENDBRANCH  24  25
ENDBRANCH  23  24
ENDBRANCH  20  23
ENDBRANCH  16  19
ENDBRANCH   1  16
TORSDOF 8
ENDMDL
MODEL 5
REMARK VINA RESULT:      -7.6      1.791      2.299
REMARK  8 active torsions:
REMARK  status: ('A' for Active; 'I' for Inactive)
REMARK    1  A    between atoms: C_2  and  C_3 
REMARK    2  A    between atoms: C_3  and  N_4 
REMARK    3  A    between atoms: C_3  and  C_19 
REMARK       I    between atoms: C_19  and  N_20 
REMARK    4  A    between atoms: N_20  and  C_21 
REMARK    5  A    between atoms: C_21  and  C_22 
REMARK    6  A    between atoms: C_22  and  C_23 
REMARK    7  A    between atoms: C_23  and  O_24 
REMARK    8  A    between atoms: O_24  and  C_25 
ROOT
HETATM    1  N   UNL     1      -7.198   2.651 -32.437  1.00  0.00    -0.220 N 
HETATM    2  N   UNL     1      -5.964   3.079 -31.940  1.00  0.00    -0.172 NA
HETATM    3  C   UNL     1      -4.944   2.272 -31.980  1.00  0.00     0.069 A 
HETATM    4  C   UNL     1      -3.635   2.742 -31.401  1.00  0.00     0.074 C 
HETATM    5  C   UNL     1      -5.074   0.968 -32.575  1.00  0.00     0.048 A 
HETATM    6  C   UNL     1      -6.271   0.511 -33.068  1.00  0.00     0.064 A 
HETATM    7  C   UNL     1      -7.446   1.366 -32.963  1.00  0.00     0.277 A 
HETATM    8  O   UNL     1      -8.560   0.996 -33.328  1.00  0.00    -0.266 OA
HETATM    9  S   UNL     1      -3.813  -0.139 -32.761  1.00  0.00    -0.086 SA
HETATM   10  C   UNL     1      -4.838  -1.277 -33.552  1.00  0.00     0.017 A 
HETATM   11  C   UNL     1      -6.151  -0.801 -33.651  1.00  0.00    -0.002 A 
HETATM   12  C   UNL     1      -4.463  -2.536 -34.061  1.00  0.00     0.020 A 
HETATM   13  C   UNL     1      -5.428  -3.329 -34.685  1.00  0.00     0.001 A 
HETATM   14  C   UNL     1      -6.737  -2.885 -34.797  1.00  0.00     0.001 A 
HETATM   15  C   UNL     1      -7.105  -1.636 -34.287  1.00  0.00     0.014 A 
ENDROOT
BRANCH   1  16
HETATM   16  C   UNL     1      -8.340   3.560 -32.267  1.00  0.00     0.205 C 
BRANCH  16  17
HETATM   17  C   UNL     1      -9.573   2.861 -31.671  1.00  0.00     0.032 C 
HETATM   18  C   UNL     1     -10.166   3.613 -30.488  1.00  0.00     0.007 C 
ENDBRANCH  16  17
BRANCH  16  19
HETATM   19  C   UNL     1      -8.669   4.194 -33.635  1.00  0.00     0.242 C 
HETATM   20  N   UNL     1      -9.923   3.872 -34.123  1.00  0.00    -0.359 N 
HETATM   21  H   UNL     1     -10.584   3.387 -33.529  1.00  0.00     0.162 HD
HETATM   22  O   UNL     1      -7.882   4.893 -34.271  1.00  0.00    -0.271 OA
BRANCH  20  23
HETATM   23  C   UNL     1     -10.411   4.377 -35.391  1.00  0.00     0.125 C 
BRANCH  23  24
HETATM   24  C   UNL     1     -11.845   3.944 -35.689  1.00  0.00     0.046 C 
BRANCH  24  25
HETATM   25  C   UNL     1     -12.446   3.057 -34.603  1.00  0.00     0.169 C 
BRANCH  25  26
HETATM   26  O   UNL     1     -13.351   2.129 -35.197  1.00  0.00    -0.387 OA
BRANCH  26  27
HETATM   27  C   UNL     1     -13.309   0.823 -34.615  1.00  0.00     0.113 C 
HETATM   28  C   UNL     1     -12.156   0.700 -33.622  1.00  0.00     0.039 C 
HETATM   29  C   UNL     1     -14.640   0.618 -33.901  1.00  0.00     0.039 C 
ENDBRANCH  26  27
ENDBRANCH  25  26
ENDBRANCH  24  25
ENDBRANCH  23  24
ENDBRANCH  20  23
ENDBRANCH  16  19
ENDBRANCH   1  16
TORSDOF 8
ENDMDL
MODEL 6
REMARK VINA RESULT:      -7.4      5.806      9.560
REMARK  8 active torsions:
REMARK  status: ('A' for Active; 'I' for Inactive)
REMARK    1  A    between atoms: C_2  and  C_3 
REMARK    2  A    between atoms: C_3  and  N_4 
REMARK    3  A    between atoms: C_3  and  C_19 
REMARK       I    between atoms: C_19  and  N_20 
REMARK    4  A    between atoms: N_20  and  C_21 
REMARK    5  A    between atoms: C_21  and  C_22 
REMARK    6  A    between atoms: C_22  and  C_23 
REMARK    7  A    between atoms: C_23  and  O_24 
REMARK    8  A    between atoms: O_24  and  C_25 
ROOT
HETATM    1  N   UNL     1      -2.304   5.499 -31.856  1.00  0.00    -0.220 N 
HETATM    2  N   UNL     1      -3.402   6.358 -31.958  1.00  0.00    -0.172 NA
HETATM    3  C   UNL     1      -3.538   7.326 -31.099  1.00  0.00     0.069 A 
HETATM    4  C   UNL     1      -4.751   8.213 -31.206  1.00  0.00     0.074 C 
HETATM    5  C   UNL     1      -2.542   7.540 -30.084  1.00  0.00     0.048 A 
HETATM    6  C   UNL     1      -1.453   6.714 -29.949  1.00  0.00     0.064 A 
HETATM    7  C   UNL     1      -1.320   5.576 -30.849  1.00  0.00     0.277 A 
HETATM    8  O   UNL     1      -0.404   4.762 -30.745  1.00  0.00    -0.266 OA
HETATM    9  S   UNL     1      -2.558   8.804 -28.964  1.00  0.00    -0.086 SA
HETATM   10  C   UNL     1      -1.065   8.298 -28.268  1.00  0.00     0.017 A 
HETATM   11  C   UNL     1      -0.572   7.146 -28.894  1.00  0.00    -0.002 A 
HETATM   12  C   UNL     1      -0.374   8.922 -27.211  1.00  0.00     0.020 A 
HETATM   13  C   UNL     1       0.836   8.378 -26.777  1.00  0.00     0.001 A 
HETATM   14  C   UNL     1       1.349   7.238 -27.377  1.00  0.00     0.001 A 
HETATM   15  C   UNL     1       0.658   6.619 -28.424  1.00  0.00     0.014 A 
ENDROOT
BRANCH   1  16
HETATM   16  C   UNL     1      -2.259   4.359 -32.781  1.00  0.00     0.205 C 
BRANCH  16  17
HETATM   17  C   UNL     1      -2.237   4.790 -34.257  1.00  0.00     0.032 C 
HETATM   18  C   UNL     1      -1.069   5.708 -34.589  1.00  0.00     0.007 C 
ENDBRANCH  16  17
BRANCH  16  19
HETATM   19  C   UNL     1      -3.466   3.443 -32.490  1.00  0.00     0.242 C 
HETATM   20  N   UNL     1      -3.230   2.484 -31.520  1.00  0.00    -0.359 N 
HETATM   21  H   UNL     1      -2.379   2.521 -30.973  1.00  0.00     0.162 HD
HETATM   22  O   UNL     1      -4.538   3.515 -33.086  1.00  0.00    -0.271 OA
BRANCH  20  23
HETATM   23  C   UNL     1      -4.246   1.536 -31.109  1.00  0.00     0.125 C 
BRANCH  23  24
HETATM   24  C   UNL     1      -4.133   0.194 -31.832  1.00  0.00     0.046 C 
BRANCH  24  25
HETATM   25  C   UNL     1      -5.048   0.084 -33.048  1.00  0.00     0.169 C 
BRANCH  25  26
HETATM   26  O   UNL     1      -4.679  -1.059 -33.816  1.00  0.00    -0.387 OA
BRANCH  26  27
HETATM   27  C   UNL     1      -5.760  -1.958 -34.075  1.00  0.00     0.113 C 
HETATM   28  C   UNL     1      -6.953  -1.225 -34.681  1.00  0.00     0.039 C 
HETATM   29  C   UNL     1      -5.235  -3.005 -35.052  1.00  0.00     0.039 C 
ENDBRANCH  26  27
ENDBRANCH  25  26
ENDBRANCH  24  25
ENDBRANCH  23  24
ENDBRANCH  20  23
ENDBRANCH  16  19
ENDBRANCH   1  16
TORSDOF 8
ENDMDL
MODEL 7
REMARK VINA RESULT:      -7.3      3.904      7.787
REMARK  8 active torsions:
REMARK  status: ('A' for Active; 'I' for Inactive)
REMARK    1  A    between atoms: C_2  and  C_3 
REMARK    2  A    between atoms: C_3  and  N_4 
REMARK    3  A    between atoms: C_3  and  C_19 
REMARK       I    between atoms: C_19  and  N_20 
REMARK    4  A    between atoms: N_20  and  C_21 
REMARK    5  A    between atoms: C_21  and  C_22 
REMARK    6  A    between atoms: C_22  and  C_23 
REMARK    7  A    between atoms: C_23  and  O_24 
REMARK    8  A    between atoms: O_24  and  C_25 
ROOT
HETATM    1  N   UNL     1      -6.148   3.005 -31.538  1.00  0.00    -0.220 N 
HETATM    2  N   UNL     1      -6.623   3.564 -30.348  1.00  0.00    -0.172 NA
HETATM    3  C   UNL     1      -6.100   4.671 -29.907  1.00  0.00     0.069 A 
HETATM    4  C   UNL     1      -6.601   5.230 -28.602  1.00  0.00     0.074 C 
HETATM    5  C   UNL     1      -5.077   5.341 -30.665  1.00  0.00     0.048 A 
HETATM    6  C   UNL     1      -4.582   4.821 -31.836  1.00  0.00     0.064 A 
HETATM    7  C   UNL     1      -5.094   3.542 -32.308  1.00  0.00     0.277 A 
HETATM    8  O   UNL     1      -4.653   2.989 -33.314  1.00  0.00    -0.266 OA
HETATM    9  S   UNL     1      -4.377   6.820 -30.248  1.00  0.00    -0.086 SA
HETATM   10  C   UNL     1      -3.392   6.831 -31.662  1.00  0.00     0.017 A 
HETATM   11  C   UNL     1      -3.597   5.683 -32.438  1.00  0.00    -0.002 A 
HETATM   12  C   UNL     1      -2.483   7.835 -32.047  1.00  0.00     0.020 A 
HETATM   13  C   UNL     1      -1.770   7.684 -33.238  1.00  0.00     0.001 A 
HETATM   14  C   UNL     1      -1.952   6.558 -34.027  1.00  0.00     0.001 A 
HETATM   15  C   UNL     1      -2.852   5.562 -33.639  1.00  0.00     0.014 A 
ENDROOT
BRANCH   1  16
HETATM   16  C   UNL     1      -6.695   1.700 -31.930  1.00  0.00     0.205 C 
BRANCH  16  17
HETATM   17  C   UNL     1      -8.196   1.566 -31.621  1.00  0.00     0.032 C 
HETATM   18  C   UNL     1      -8.863   0.442 -32.399  1.00  0.00     0.007 C 
ENDBRANCH  16  17
BRANCH  16  19
HETATM   19  C   UNL     1      -5.883   0.595 -31.221  1.00  0.00     0.242 C 
HETATM   20  N   UNL     1      -4.719   0.236 -31.878  1.00  0.00    -0.359 N 
HETATM   21  H   UNL     1      -4.396   0.785 -32.665  1.00  0.00     0.162 HD
HETATM   22  O   UNL     1      -6.243   0.040 -30.185  1.00  0.00    -0.271 OA
BRANCH  20  23
HETATM   23  C   UNL     1      -3.824  -0.780 -31.362  1.00  0.00     0.125 C 
BRANCH  23  24
HETATM   24  C   UNL     1      -3.653  -1.960 -32.317  1.00  0.00     0.046 C 
BRANCH  24  25
HETATM   25  C   UNL     1      -4.308  -1.735 -33.677  1.00  0.00     0.169 C 
BRANCH  25  26
HETATM   26  O   UNL     1      -4.643  -2.995 -34.255  1.00  0.00    -0.387 OA
BRANCH  26  27
HETATM   27  C   UNL     1      -5.848  -2.978 -35.025  1.00  0.00     0.113 C 
HETATM   28  C   UNL     1      -6.551  -4.332 -34.978  1.00  0.00     0.039 C 
HETATM   29  C   UNL     1      -6.742  -1.901 -34.418  1.00  0.00     0.039 C 
ENDBRANCH  26  27
ENDBRANCH  25  26
ENDBRANCH  24  25
ENDBRANCH  23  24
ENDBRANCH  20  23
ENDBRANCH  16  19
ENDBRANCH   1  16
TORSDOF 8
ENDMDL
MODEL 8
REMARK VINA RESULT:      -7.2      3.443      5.738
REMARK  8 active torsions:
REMARK  status: ('A' for Active; 'I' for Inactive)
REMARK    1  A    between atoms: C_2  and  C_3 
REMARK    2  A    between atoms: C_3  and  N_4 
REMARK    3  A    between atoms: C_3  and  C_19 
REMARK       I    between atoms: C_19  and  N_20 
REMARK    4  A    between atoms: N_20  and  C_21 
REMARK    5  A    between atoms: C_21  and  C_22 
REMARK    6  A    between atoms: C_22  and  C_23 
REMARK    7  A    between atoms: C_23  and  O_24 
REMARK    8  A    between atoms: O_24  and  C_25 
ROOT
HETATM    1  N   UNL     1      -6.934   1.694 -33.082  1.00  0.00    -0.220 N 
HETATM    2  N   UNL     1      -5.697   2.109 -32.578  1.00  0.00    -0.172 NA
HETATM    3  C   UNL     1      -4.713   1.259 -32.518  1.00  0.00     0.069 A 
HETATM    4  C   UNL     1      -3.404   1.719 -31.933  1.00  0.00     0.074 C 
HETATM    5  C   UNL     1      -4.882  -0.081 -33.012  1.00  0.00     0.048 A 
HETATM    6  C   UNL     1      -6.083  -0.526 -33.510  1.00  0.00     0.064 A 
HETATM    7  C   UNL     1      -7.221   0.383 -33.513  1.00  0.00     0.277 A 
HETATM    8  O   UNL     1      -8.339   0.032 -33.887  1.00  0.00    -0.266 OA
HETATM    9  S   UNL     1      -3.666  -1.252 -33.068  1.00  0.00    -0.086 SA
HETATM   10  C   UNL     1      -4.716  -2.405 -33.802  1.00  0.00     0.017 A 
HETATM   11  C   UNL     1      -6.003  -1.885 -33.983  1.00  0.00    -0.002 A 
HETATM   12  C   UNL     1      -4.382  -3.715 -34.197  1.00  0.00     0.020 A 
HETATM   13  C   UNL     1      -5.361  -4.515 -34.790  1.00  0.00     0.001 A 
HETATM   14  C   UNL     1      -6.644  -4.027 -34.982  1.00  0.00     0.001 A 
HETATM   15  C   UNL     1      -6.973  -2.727 -34.584  1.00  0.00     0.014 A 
ENDROOT
BRANCH   1  16
HETATM   16  C   UNL     1      -8.038   2.661 -33.023  1.00  0.00     0.205 C 
BRANCH  16  17
HETATM   17  C   UNL     1      -7.705   3.988 -33.725  1.00  0.00     0.032 C 
HETATM   18  C   UNL     1      -8.945   4.772 -34.129  1.00  0.00     0.007 C 
ENDBRANCH  16  17
BRANCH  16  19
HETATM   19  C   UNL     1      -8.407   2.894 -31.543  1.00  0.00     0.242 C 
HETATM   20  N   UNL     1      -7.605   3.817 -30.896  1.00  0.00    -0.359 N 
HETATM   21  H   UNL     1      -6.949   4.374 -31.430  1.00  0.00     0.162 HD
HETATM   22  O   UNL     1      -9.305   2.290 -30.960  1.00  0.00    -0.271 OA
BRANCH  20  23
HETATM   23  C   UNL     1      -7.802   4.170 -29.504  1.00  0.00     0.125 C 
BRANCH  23  24
HETATM   24  C   UNL     1      -7.382   5.605 -29.191  1.00  0.00     0.046 C 
BRANCH  24  25
HETATM   25  C   UNL     1      -6.253   5.694 -28.168  1.00  0.00     0.169 C 
BRANCH  25  26
HETATM   26  O   UNL     1      -6.393   6.894 -27.412  1.00  0.00    -0.387 OA
BRANCH  26  27
HETATM   27  C   UNL     1      -5.196   7.672 -27.331  1.00  0.00     0.113 C 
HETATM   28  C   UNL     1      -4.058   6.869 -26.706  1.00  0.00     0.039 C 
HETATM   29  C   UNL     1      -4.834   8.072 -28.757  1.00  0.00     0.039 C 
ENDBRANCH  26  27
ENDBRANCH  25  26
ENDBRANCH  24  25
ENDBRANCH  23  24
ENDBRANCH  20  23
ENDBRANCH  16  19
ENDBRANCH   1  16
TORSDOF 8
ENDMDL
MODEL 9
REMARK VINA RESULT:      -7.2      2.987      6.101
REMARK  8 active torsions:
REMARK  status: ('A' for Active; 'I' for Inactive)
REMARK    1  A    between atoms: C_2  and  C_3 
REMARK    2  A    between atoms: C_3  and  N_4 
REMARK    3  A    between atoms: C_3  and  C_19 
REMARK       I    between atoms: C_19  and  N_20 
REMARK    4  A    between atoms: N_20  and  C_21 
REMARK    5  A    between atoms: C_21  and  C_22 
REMARK    6  A    between atoms: C_22  and  C_23 
REMARK    7  A    between atoms: C_23  and  O_24 
REMARK    8  A    between atoms: O_24  and  C_25 
ROOT
HETATM    1  N   UNL     1      -8.225   4.158 -32.375  1.00  0.00    -0.220 N 
HETATM    2  N   UNL     1      -8.018   3.418 -31.207  1.00  0.00    -0.172 NA
HETATM    3  C   UNL     1      -6.811   3.049 -30.889  1.00  0.00     0.069 A 
HETATM    4  C   UNL     1      -6.620   2.217 -29.649  1.00  0.00     0.074 C 
HETATM    5  C   UNL     1      -5.694   3.442 -31.707  1.00  0.00     0.048 A 
HETATM    6  C   UNL     1      -5.859   4.165 -32.863  1.00  0.00     0.064 A 
HETATM    7  C   UNL     1      -7.208   4.521 -33.282  1.00  0.00     0.277 A 
HETATM    8  O   UNL     1      -7.432   5.113 -34.336  1.00  0.00    -0.266 OA
HETATM    9  S   UNL     1      -4.077   3.100 -31.363  1.00  0.00    -0.086 SA
HETATM   10  C   UNL     1      -3.529   3.950 -32.758  1.00  0.00     0.017 A 
HETATM   11  C   UNL     1      -4.600   4.478 -33.490  1.00  0.00    -0.002 A 
HETATM   12  C   UNL     1      -2.192   4.132 -33.162  1.00  0.00     0.020 A 
HETATM   13  C   UNL     1      -1.928   4.861 -34.323  1.00  0.00     0.001 A 
HETATM   14  C   UNL     1      -2.968   5.395 -35.068  1.00  0.00     0.001 A 
HETATM   15  C   UNL     1      -4.294   5.209 -34.666  1.00  0.00     0.014 A 
ENDROOT
BRANCH   1  16
HETATM   16  C   UNL     1      -9.616   4.452 -32.743  1.00  0.00     0.205 C 
BRANCH  16  17
HETATM   17  C   UNL     1     -10.479   4.855 -31.535  1.00  0.00     0.032 C 
HETATM   18  C   UNL     1     -11.628   5.779 -31.910  1.00  0.00     0.007 C 
ENDBRANCH  16  17
BRANCH  16  19
HETATM   19  C   UNL     1     -10.205   3.217 -33.458  1.00  0.00     0.242 C 
HETATM   20  N   UNL     1     -10.473   2.150 -32.619  1.00  0.00    -0.359 N 
HETATM   21  H   UNL     1     -10.415   2.272 -31.615  1.00  0.00     0.162 HD
HETATM   22  O   UNL     1     -10.388   3.153 -34.671  1.00  0.00    -0.271 OA
BRANCH  20  23
HETATM   23  C   UNL     1     -11.032   0.905 -33.107  1.00  0.00     0.125 C 
BRANCH  23  24
HETATM   24  C   UNL     1     -10.093  -0.284 -32.913  1.00  0.00     0.046 C 
BRANCH  24  25
HETATM   25  C   UNL     1      -8.705  -0.061 -33.508  1.00  0.00     0.169 C 
BRANCH  25  26
HETATM   26  O   UNL     1      -7.737  -0.061 -32.461  1.00  0.00    -0.387 OA
BRANCH  26  27
HETATM   27  C   UNL     1      -6.398  -0.287 -32.910  1.00  0.00     0.113 C 
HETATM   28  C   UNL     1      -5.470  -0.599 -31.738  1.00  0.00     0.039 C 
HETATM   29  C   UNL     1      -6.450  -1.473 -33.867  1.00  0.00     0.039 C 
ENDBRANCH  26  27
ENDBRANCH  25  26
ENDBRANCH  24  25
ENDBRANCH  23  24
ENDBRANCH  20  23
ENDBRANCH  16  19
ENDBRANCH   1  16
TORSDOF 8
ENDMDL
MODEL 10
REMARK VINA RESULT:      -7.1      4.332      7.773
REMARK  8 active torsions:
REMARK  status: ('A' for Active; 'I' for Inactive)
REMARK    1  A    between atoms: C_2  and  C_3 
REMARK    2  A    between atoms: C_3  and  N_4 
REMARK    3  A    between atoms: C_3  and  C_19 
REMARK       I    between atoms: C_19  and  N_20 
REMARK    4  A    between atoms: N_20  and  C_21 
REMARK    5  A    between atoms: C_21  and  C_22 
REMARK    6  A    between atoms: C_22  and  C_23 
REMARK    7  A    between atoms: C_23  and  O_24 
REMARK    8  A    between atoms: O_24  and  C_25 
ROOT
HETATM    1  N   UNL     1      -5.674   3.137 -31.704  1.00  0.00    -0.220 N 
HETATM    2  N   UNL     1      -6.837   3.626 -32.307  1.00  0.00    -0.172 NA
HETATM    3  C   UNL     1      -7.431   2.914 -33.220  1.00  0.00     0.069 A 
HETATM    4  C   UNL     1      -8.659   3.481 -33.883  1.00  0.00     0.074 C 
HETATM    5  C   UNL     1      -6.924   1.614 -33.570  1.00  0.00     0.048 A 
HETATM    6  C   UNL     1      -5.782   1.104 -33.003  1.00  0.00     0.064 A 
HETATM    7  C   UNL     1      -5.054   1.914 -32.037  1.00  0.00     0.277 A 
HETATM    8  O   UNL     1      -3.994   1.545 -31.538  1.00  0.00    -0.266 OA
HETATM    9  S   UNL     1      -7.646   0.560 -34.675  1.00  0.00    -0.086 SA
HETATM   10  C   UNL     1      -6.450  -0.651 -34.405  1.00  0.00     0.017 A 
HETATM   11  C   UNL     1      -5.492  -0.227 -33.476  1.00  0.00    -0.002 A 
HETATM   12  C   UNL     1      -6.392  -1.924 -35.003  1.00  0.00     0.020 A 
HETATM   13  C   UNL     1      -5.351  -2.789 -34.658  1.00  0.00     0.001 A 
HETATM   14  C   UNL     1      -4.387  -2.396 -33.741  1.00  0.00     0.001 A 
HETATM   15  C   UNL     1      -4.446  -1.130 -33.153  1.00  0.00     0.014 A 
ENDROOT
BRANCH   1  16
HETATM   16  C   UNL     1      -4.983   4.028 -30.762  1.00  0.00     0.205 C 
BRANCH  16  17
HETATM   17  C   UNL     1      -5.933   5.030 -30.086  1.00  0.00     0.032 C 
HETATM   18  C   UNL     1      -5.581   5.290 -28.628  1.00  0.00     0.007 C 
ENDBRANCH  16  17
BRANCH  16  19
HETATM   19  C   UNL     1      -3.853   4.759 -31.518  1.00  0.00     0.242 C 
HETATM   20  N   UNL     1      -2.580   4.322 -31.196  1.00  0.00    -0.359 N 
HETATM   21  H   UNL     1      -2.462   3.492 -30.627  1.00  0.00     0.162 HD
HETATM   22  O   UNL     1      -4.045   5.680 -32.308  1.00  0.00    -0.271 OA
BRANCH  20  23
HETATM   23  C   UNL     1      -1.393   4.886 -31.806  1.00  0.00     0.125 C 
BRANCH  23  24
HETATM   24  C   UNL     1      -0.533   5.670 -30.816  1.00  0.00     0.046 C 
BRANCH  24  25
HETATM   25  C   UNL     1      -0.786   7.175 -30.856  1.00  0.00     0.169 C 
BRANCH  25  26
HETATM   26  O   UNL     1      -1.092   7.638 -29.543  1.00  0.00    -0.387 OA
BRANCH  26  27
HETATM   27  C   UNL     1      -2.391   7.256 -29.081  1.00  0.00     0.113 C 
HETATM   28  C   UNL     1      -2.519   7.453 -27.573  1.00  0.00     0.039 C 
HETATM   29  C   UNL     1      -3.395   8.140 -29.813  1.00  0.00     0.039 C 
ENDBRANCH  26  27
ENDBRANCH  25  26
ENDBRANCH  24  25
ENDBRANCH  23  24
ENDBRANCH  20  23
ENDBRANCH  16  19
ENDBRANCH   1  16
TORSDOF 8
ENDMDL
