MODEL 1
REMARK VINA RESULT:      -9.2      0.000      0.000
REMARK  6 active torsions:
REMARK  status: ('A' for Active; 'I' for Inactive)
REMARK    1  A    between atoms: O_2  and  C_3 
REMARK    2  A    between atoms: C_6  and  C_7 
REMARK    3  A    between atoms: C_7  and  C_8 
REMARK       I    between atoms: C_8  and  N_9 
REMARK    4  A    between atoms: N_9  and  C_10 
REMARK    5  A    between atoms: C_10  and  C_11 
REMARK       I    between atoms: C_11  and  N_12 
REMARK    6  A    between atoms: N_12  and  N_13 
ROOT
HETATM    1  C   UNL     1      -5.143   2.953 -32.995  1.00  0.00     0.255 C 
HETATM    2  N   UNL     1      -4.572   1.794 -32.505  1.00  0.00    -0.245 N 
HETATM    3  O   UNL     1      -6.004   2.995 -33.875  1.00  0.00    -0.270 OA
HETATM    4  H   UNL     1      -3.790   1.862 -31.853  1.00  0.00     0.192 HD
ENDROOT
BRANCH   1   5
HETATM    5  C   UNL     1      -4.570   4.247 -32.400  1.00  0.00     0.227 C 
BRANCH   5   6
HETATM    6  N   UNL     1      -3.174   4.562 -32.686  1.00  0.00    -0.352 N 
HETATM    7  C   UNL     1      -2.850   5.514 -33.630  1.00  0.00     0.222 C 
HETATM    8  O   UNL     1      -3.677   5.956 -34.422  1.00  0.00    -0.273 OA
HETATM    9  H   UNL     1      -2.505   4.397 -31.943  1.00  0.00     0.162 HD
BRANCH   7  10
HETATM   10  C   UNL     1      -1.401   5.968 -33.609  1.00  0.00     0.141 C 
BRANCH  10  11
HETATM   11  C   UNL     1      -0.842   6.182 -32.220  1.00  0.00    -0.049 A 
HETATM   12  C   UNL     1      -0.004   5.244 -31.603  1.00  0.00     0.010 A 
HETATM   13  C   UNL     1       0.469   5.444 -30.301  1.00  0.00     0.037 A 
HETATM   14  C   UNL     1       0.095   6.578 -29.584  1.00  0.00     0.068 A 
HETATM   15  C   UNL     1      -0.762   7.504 -30.181  1.00  0.00     0.037 A 
HETATM   16  C   UNL     1      -1.230   7.310 -31.484  1.00  0.00     0.010 A 
BRANCH  14  17
HETATM   17  O   UNL     1       0.479   6.889 -28.309  1.00  0.00    -0.356 OA
HETATM   18  C   UNL     1       1.125   8.143 -28.122  1.00  0.00     0.210 C 
ENDBRANCH  14  17
ENDBRANCH  10  11
ENDBRANCH   7  10
ENDBRANCH   5   6
ENDBRANCH   1   5
BRANCH   2  19
HETATM   19  N   UNL     1      -4.908   0.579 -33.028  1.00  0.00    -0.166 NA
HETATM   20  C   UNL     1      -4.192  -0.430 -32.652  1.00  0.00     0.157 A 
HETATM   21  C   UNL     1      -3.034  -0.467 -31.647  1.00  0.00     0.277 A 
HETATM   22  C   UNL     1      -4.355  -1.799 -33.126  1.00  0.00     0.028 A 
HETATM   23  O   UNL     1      -2.620   0.485 -31.020  1.00  0.00    -0.266 OA
HETATM   24  N   UNL     1      -2.617  -1.782 -31.616  1.00  0.00    -0.321 N 
HETATM   25  C   UNL     1      -3.385  -2.564 -32.475  1.00  0.00     0.048 A 
HETATM   26  H   UNL     1      -1.859  -2.108 -31.035  1.00  0.00     0.169 HD
HETATM   27  C   UNL     1      -3.266  -3.916 -32.709  1.00  0.00     0.032 A 
HETATM   28  C   UNL     1      -4.156  -4.490 -33.627  1.00  0.00     0.021 A 
HETATM   29  C   UNL     1      -5.130  -3.705 -34.280  1.00  0.00     0.012 A 
HETATM   30 BR   UNL     1      -6.305  -4.528 -35.513  1.00  0.00    -0.051 Br
HETATM   31  C   UNL     1      -5.242  -2.336 -34.035  1.00  0.00     0.035 A 
ENDBRANCH   2  19
TORSDOF 6
ENDMDL
MODEL 2
REMARK VINA RESULT:      -8.9      3.741      8.988
REMARK  6 active torsions:
REMARK  status: ('A' for Active; 'I' for Inactive)
REMARK    1  A    between atoms: O_2  and  C_3 
REMARK    2  A    between atoms: C_6  and  C_7 
REMARK    3  A    between atoms: C_7  and  C_8 
REMARK       I    between atoms: C_8  and  N_9 
REMARK    4  A    between atoms: N_9  and  C_10 
REMARK    5  A    between atoms: C_10  and  C_11 
REMARK       I    between atoms: C_11  and  N_12 
REMARK    6  A    between atoms: N_12  and  N_13 
ROOT
HETATM    1  C   UNL     1      -6.528   3.687 -32.923  1.00  0.00     0.255 C 
HETATM    2  N   UNL     1      -5.217   3.386 -33.244  1.00  0.00    -0.245 N 
HETATM    3  O   UNL     1      -6.874   4.424 -31.999  1.00  0.00    -0.270 OA
HETATM    4  H   UNL     1      -5.030   2.681 -33.957  1.00  0.00     0.192 HD
ENDROOT
BRANCH   1   5
HETATM    5  C   UNL     1      -7.576   2.967 -33.782  1.00  0.00     0.227 C 
BRANCH   5   6
HETATM    6  N   UNL     1      -7.164   1.743 -34.465  1.00  0.00    -0.352 N 
HETATM    7  C   UNL     1      -7.677   0.522 -34.082  1.00  0.00     0.222 C 
HETATM    8  O   UNL     1      -8.295   0.372 -33.033  1.00  0.00    -0.273 OA
HETATM    9  H   UNL     1      -6.851   1.837 -35.424  1.00  0.00     0.162 HD
BRANCH   7  10
HETATM   10  C   UNL     1      -7.418  -0.614 -35.057  1.00  0.00     0.141 C 
BRANCH  10  11
HETATM   11  C   UNL     1      -6.325  -1.564 -34.619  1.00  0.00    -0.049 A 
HETATM   12  C   UNL     1      -6.322  -2.916 -34.988  1.00  0.00     0.010 A 
HETATM   13  C   UNL     1      -5.322  -3.785 -34.539  1.00  0.00     0.037 A 
HETATM   14  C   UNL     1      -4.316  -3.322 -33.693  1.00  0.00     0.068 A 
HETATM   15  C   UNL     1      -4.328  -1.984 -33.298  1.00  0.00     0.037 A 
HETATM   16  C   UNL     1      -5.321  -1.111 -33.751  1.00  0.00     0.010 A 
BRANCH  14  17
HETATM   17  O   UNL     1      -3.290  -4.065 -33.179  1.00  0.00    -0.356 OA
HETATM   18  C   UNL     1      -2.879  -3.759 -31.852  1.00  0.00     0.210 C 
ENDBRANCH  14  17
ENDBRANCH  10  11
ENDBRANCH   7  10
ENDBRANCH   5   6
ENDBRANCH   1   5
BRANCH   2  19
HETATM   19  N   UNL     1      -4.189   3.869 -32.488  1.00  0.00    -0.166 NA
HETATM   20  C   UNL     1      -3.454   4.784 -33.030  1.00  0.00     0.157 A 
HETATM   21  C   UNL     1      -3.604   5.451 -34.404  1.00  0.00     0.277 A 
HETATM   22  C   UNL     1      -2.283   5.397 -32.413  1.00  0.00     0.028 A 
HETATM   23  O   UNL     1      -4.485   5.217 -35.203  1.00  0.00    -0.266 OA
HETATM   24  N   UNL     1      -2.560   6.349 -34.491  1.00  0.00    -0.321 N 
HETATM   25  C   UNL     1      -1.787   6.323 -33.332  1.00  0.00     0.048 A 
HETATM   26  H   UNL     1      -2.403   6.937 -35.296  1.00  0.00     0.169 HD
HETATM   27  C   UNL     1      -0.668   7.077 -33.054  1.00  0.00     0.032 A 
HETATM   28  C   UNL     1      -0.050   6.874 -31.813  1.00  0.00     0.021 A 
HETATM   29  C   UNL     1      -0.561   5.933 -30.894  1.00  0.00     0.012 A 
HETATM   30 BR   UNL     1       0.314   5.695 -29.233  1.00  0.00    -0.051 Br
HETATM   31  C   UNL     1      -1.695   5.175 -31.186  1.00  0.00     0.035 A 
ENDBRANCH   2  19
TORSDOF 6
ENDMDL
MODEL 3
REMARK VINA RESULT:      -8.9      3.925      8.436
REMARK  6 active torsions:
REMARK  status: ('A' for Active; 'I' for Inactive)
REMARK    1  A    between atoms: O_2  and  C_3 
REMARK    2  A    between atoms: C_6  and  C_7 
REMARK    3  A    between atoms: C_7  and  C_8 
REMARK       I    between atoms: C_8  and  N_9 
REMARK    4  A    between atoms: N_9  and  C_10 
REMARK    5  A    between atoms: C_10  and  C_11 
REMARK       I    between atoms: C_11  and  N_12 
REMARK    6  A    between atoms: N_12  and  N_13 
ROOT
HETATM    1  C   UNL     1      -7.710   3.631 -30.391  1.00  0.00     0.255 C 
HETATM    2  N   UNL     1      -7.000   3.950 -31.533  1.00  0.00    -0.245 N 
HETATM    3  O   UNL     1      -7.248   3.647 -29.249  1.00  0.00    -0.270 OA
HETATM    4  H   UNL     1      -7.435   3.804 -32.445  1.00  0.00     0.192 HD
ENDROOT
BRANCH   1   5
HETATM    5  C   UNL     1      -9.153   3.174 -30.643  1.00  0.00     0.227 C 
BRANCH   5   6
HETATM    6  N   UNL     1      -9.353   1.822 -31.157  1.00  0.00    -0.352 N 
HETATM    7  C   UNL     1      -9.254   1.564 -32.508  1.00  0.00     0.222 C 
HETATM    8  O   UNL     1      -9.233   2.462 -33.345  1.00  0.00    -0.273 OA
HETATM    9  H   UNL     1      -9.159   1.057 -30.522  1.00  0.00     0.162 HD
BRANCH   7  10
HETATM   10  C   UNL     1      -9.172   0.092 -32.874  1.00  0.00     0.141 C 
BRANCH  10  11
HETATM   11  C   UNL     1      -7.761  -0.415 -33.070  1.00  0.00    -0.049 A 
HETATM   12  C   UNL     1      -7.387  -1.159 -34.198  1.00  0.00     0.010 A 
HETATM   13  C   UNL     1      -6.085  -1.652 -34.340  1.00  0.00     0.037 A 
HETATM   14  C   UNL     1      -5.137  -1.428 -33.344  1.00  0.00     0.068 A 
HETATM   15  C   UNL     1      -5.508  -0.713 -32.204  1.00  0.00     0.037 A 
HETATM   16  C   UNL     1      -6.806  -0.212 -32.064  1.00  0.00     0.010 A 
BRANCH  14  17
HETATM   17  O   UNL     1      -3.839  -1.859 -33.356  1.00  0.00    -0.356 OA
HETATM   18  C   UNL     1      -3.303  -2.311 -32.117  1.00  0.00     0.210 C 
ENDBRANCH  14  17
ENDBRANCH  10  11
ENDBRANCH   7  10
ENDBRANCH   5   6
ENDBRANCH   1   5
BRANCH   2  19
HETATM   19  N   UNL     1      -5.674   4.262 -31.463  1.00  0.00    -0.166 NA
HETATM   20  C   UNL     1      -5.091   4.559 -32.578  1.00  0.00     0.157 A 
HETATM   21  C   UNL     1      -5.696   4.661 -33.983  1.00  0.00     0.277 A 
HETATM   22  C   UNL     1      -3.675   4.877 -32.727  1.00  0.00     0.028 A 
HETATM   23  O   UNL     1      -6.864   4.489 -34.257  1.00  0.00    -0.266 OA
HETATM   24  N   UNL     1      -4.645   5.001 -34.811  1.00  0.00    -0.321 N 
HETATM   25  C   UNL     1      -3.465   5.130 -34.083  1.00  0.00     0.048 A 
HETATM   26  H   UNL     1      -4.747   5.138 -35.806  1.00  0.00     0.169 HD
HETATM   27  C   UNL     1      -2.216   5.459 -34.563  1.00  0.00     0.032 A 
HETATM   28  C   UNL     1      -1.168   5.526 -33.635  1.00  0.00     0.021 A 
HETATM   29  C   UNL     1      -1.395   5.266 -32.266  1.00  0.00     0.012 A 
HETATM   30 BR   UNL     1       0.055   5.367 -31.055  1.00  0.00    -0.051 Br
HETATM   31  C   UNL     1      -2.664   4.934 -31.791  1.00  0.00     0.035 A 
ENDBRANCH   2  19
TORSDOF 6
ENDMDL
MODEL 4
REMARK VINA RESULT:      -8.3      1.710      2.767
REMARK  6 active torsions:
REMARK  status: ('A' for Active; 'I' for Inactive)
REMARK    1  A    between atoms: O_2  and  C_3 
REMARK    2  A    between atoms: C_6  and  C_7 
REMARK    3  A    between atoms: C_7  and  C_8 
REMARK       I    between atoms: C_8  and  N_9 
REMARK    4  A    between atoms: N_9  and  C_10 
REMARK    5  A    between atoms: C_10  and  C_11 
REMARK       I    between atoms: C_11  and  N_12 
REMARK    6  A    between atoms: N_12  and  N_13 
ROOT
HETATM    1  C   UNL     1      -4.031   3.399 -32.613  1.00  0.00     0.255 C 
HETATM    2  N   UNL     1      -5.036   2.455 -32.693  1.00  0.00    -0.245 N 
HETATM    3  O   UNL     1      -2.830   3.161 -32.752  1.00  0.00    -0.270 OA
HETATM    4  H   UNL     1      -5.992   2.726 -32.456  1.00  0.00     0.192 HD
ENDROOT
BRANCH   1   5
HETATM    5  C   UNL     1      -4.510   4.814 -32.260  1.00  0.00     0.227 C 
BRANCH   5   6
HETATM    6  N   UNL     1      -3.492   5.828 -32.006  1.00  0.00    -0.352 N 
HETATM    7  C   UNL     1      -2.993   6.594 -33.039  1.00  0.00     0.222 C 
HETATM    8  O   UNL     1      -3.191   6.311 -34.217  1.00  0.00    -0.273 OA
HETATM    9  H   UNL     1      -3.465   6.229 -31.076  1.00  0.00     0.162 HD
BRANCH   7  10
HETATM   10  C   UNL     1      -2.186   7.806 -32.606  1.00  0.00     0.141 C 
BRANCH  10  11
HETATM   11  C   UNL     1      -1.378   7.589 -31.346  1.00  0.00    -0.049 A 
HETATM   12  C   UNL     1      -1.708   8.212 -30.135  1.00  0.00     0.010 A 
HETATM   13  C   UNL     1      -0.924   8.028 -28.990  1.00  0.00     0.037 A 
HETATM   14  C   UNL     1       0.219   7.232 -29.042  1.00  0.00     0.068 A 
HETATM   15  C   UNL     1       0.570   6.630 -30.251  1.00  0.00     0.037 A 
HETATM   16  C   UNL     1      -0.216   6.806 -31.394  1.00  0.00     0.010 A 
BRANCH  14  17
HETATM   17  O   UNL     1       1.072   6.978 -28.004  1.00  0.00    -0.356 OA
HETATM   18  C   UNL     1       0.586   7.252 -26.695  1.00  0.00     0.210 C 
ENDBRANCH  14  17
ENDBRANCH  10  11
ENDBRANCH   7  10
ENDBRANCH   5   6
ENDBRANCH   1   5
BRANCH   2  19
HETATM   19  N   UNL     1      -4.739   1.138 -32.887  1.00  0.00    -0.166 NA
HETATM   20  C   UNL     1      -5.583   0.452 -33.587  1.00  0.00     0.157 A 
HETATM   21  C   UNL     1      -6.866   0.925 -34.282  1.00  0.00     0.277 A 
HETATM   22  C   UNL     1      -5.476  -0.974 -33.872  1.00  0.00     0.028 A 
HETATM   23  O   UNL     1      -7.278   2.065 -34.291  1.00  0.00    -0.266 OA
HETATM   24  N   UNL     1      -7.394  -0.200 -34.882  1.00  0.00    -0.321 N 
HETATM   25  C   UNL     1      -6.587  -1.310 -34.647  1.00  0.00     0.048 A 
HETATM   26  H   UNL     1      -8.250  -0.190 -35.417  1.00  0.00     0.169 HD
HETATM   27  C   UNL     1      -6.789  -2.601 -35.085  1.00  0.00     0.032 A 
HETATM   28  C   UNL     1      -5.835  -3.560 -34.718  1.00  0.00     0.021 A 
HETATM   29  C   UNL     1      -4.717  -3.207 -33.931  1.00  0.00     0.012 A 
HETATM   30 BR   UNL     1      -3.462  -4.541 -33.461  1.00  0.00    -0.051 Br
HETATM   31  C   UNL     1      -4.523  -1.897 -33.494  1.00  0.00     0.035 A 
ENDBRANCH   2  19
TORSDOF 6
ENDMDL
MODEL 5
REMARK VINA RESULT:      -8.3      4.237     10.181
REMARK  6 active torsions:
REMARK  status: ('A' for Active; 'I' for Inactive)
REMARK    1  A    between atoms: O_2  and  C_3 
REMARK    2  A    between atoms: C_6  and  C_7 
REMARK    3  A    between atoms: C_7  and  C_8 
REMARK       I    between atoms: C_8  and  N_9 
REMARK    4  A    between atoms: N_9  and  C_10 
REMARK    5  A    between atoms: C_10  and  C_11 
REMARK       I    between atoms: C_11  and  N_12 
REMARK    6  A    between atoms: N_12  and  N_13 
ROOT
HETATM    1  C   UNL     1      -3.926   4.799 -31.247  1.00  0.00     0.255 C 
HETATM    2  N   UNL     1      -2.822   5.577 -31.541  1.00  0.00    -0.245 N 
HETATM    3  O   UNL     1      -4.709   5.010 -30.319  1.00  0.00    -0.270 OA
HETATM    4  H   UNL     1      -2.171   5.262 -32.262  1.00  0.00     0.192 HD
ENDROOT
BRANCH   1   5
HETATM    5  C   UNL     1      -4.093   3.564 -32.143  1.00  0.00     0.227 C 
BRANCH   5   6
HETATM    6  N   UNL     1      -4.901   2.461 -31.630  1.00  0.00    -0.352 N 
HETATM    7  C   UNL     1      -6.046   2.066 -32.288  1.00  0.00     0.222 C 
HETATM    8  O   UNL     1      -6.561   2.747 -33.170  1.00  0.00    -0.273 OA
HETATM    9  H   UNL     1      -4.423   1.766 -31.069  1.00  0.00     0.162 HD
BRANCH   7  10
HETATM   10  C   UNL     1      -6.614   0.730 -31.839  1.00  0.00     0.141 C 
BRANCH  10  11
HETATM   11  C   UNL     1      -6.262  -0.425 -32.750  1.00  0.00    -0.049 A 
HETATM   12  C   UNL     1      -4.952  -0.909 -32.865  1.00  0.00     0.010 A 
HETATM   13  C   UNL     1      -4.642  -1.954 -33.743  1.00  0.00     0.037 A 
HETATM   14  C   UNL     1      -5.635  -2.519 -34.541  1.00  0.00     0.068 A 
HETATM   15  C   UNL     1      -6.937  -2.023 -34.453  1.00  0.00     0.037 A 
HETATM   16  C   UNL     1      -7.250  -0.986 -33.571  1.00  0.00     0.010 A 
BRANCH  14  17
HETATM   17  O   UNL     1      -5.464  -3.534 -35.441  1.00  0.00    -0.356 OA
HETATM   18  C   UNL     1      -6.421  -4.587 -35.408  1.00  0.00     0.210 C 
ENDBRANCH  14  17
ENDBRANCH  10  11
ENDBRANCH   7  10
ENDBRANCH   5   6
ENDBRANCH   1   5
BRANCH   2  19
HETATM   19  N   UNL     1      -2.492   6.640 -30.753  1.00  0.00    -0.166 NA
HETATM   20  C   UNL     1      -1.371   6.559 -30.114  1.00  0.00     0.157 A 
HETATM   21  C   UNL     1      -0.319   5.444 -30.154  1.00  0.00     0.277 A 
HETATM   22  C   UNL     1      -0.857   7.562 -29.188  1.00  0.00     0.028 A 
HETATM   23  O   UNL     1      -0.383   4.444 -30.836  1.00  0.00    -0.266 OA
HETATM   24  N   UNL     1       0.676   5.848 -29.287  1.00  0.00    -0.321 N 
HETATM   25  C   UNL     1       0.368   7.083 -28.722  1.00  0.00     0.048 A 
HETATM   26  H   UNL     1       1.507   5.304 -29.108  1.00  0.00     0.169 HD
HETATM   27  C   UNL     1       1.118   7.801 -27.816  1.00  0.00     0.032 A 
HETATM   28  C   UNL     1       0.599   9.028 -27.383  1.00  0.00     0.021 A 
HETATM   29  C   UNL     1      -0.642   9.500 -27.861  1.00  0.00     0.012 A 
HETATM   30 BR   UNL     1      -1.299  11.162 -27.241  1.00  0.00    -0.051 Br
HETATM   31  C   UNL     1      -1.393   8.765 -28.778  1.00  0.00     0.035 A 
ENDBRANCH   2  19
TORSDOF 6
ENDMDL
MODEL 6
REMARK VINA RESULT:      -8.2      3.243      4.040
REMARK  6 active torsions:
REMARK  status: ('A' for Active; 'I' for Inactive)
REMARK    1  A    between atoms: O_2  and  C_3 
REMARK    2  A    between atoms: C_6  and  C_7 
REMARK    3  A    between atoms: C_7  and  C_8 
REMARK       I    between atoms: C_8  and  N_9 
REMARK    4  A    between atoms: N_9  and  C_10 
REMARK    5  A    between atoms: C_10  and  C_11 
REMARK       I    between atoms: C_11  and  N_12 
REMARK    6  A    between atoms: N_12  and  N_13 
ROOT
HETATM    1  C   UNL     1      -3.028   5.145 -34.423  1.00  0.00     0.255 C 
HETATM    2  N   UNL     1      -3.444   4.349 -33.372  1.00  0.00    -0.245 N 
HETATM    3  O   UNL     1      -3.742   5.502 -35.360  1.00  0.00    -0.270 OA
HETATM    4  H   UNL     1      -2.754   4.015 -32.698  1.00  0.00     0.192 HD
ENDROOT
BRANCH   1   5
HETATM    5  C   UNL     1      -1.541   5.522 -34.386  1.00  0.00     0.227 C 
BRANCH   5   6
HETATM    6  N   UNL     1      -1.101   6.437 -33.337  1.00  0.00    -0.352 N 
HETATM    7  C   UNL     1      -0.550   5.953 -32.170  1.00  0.00     0.222 C 
HETATM    8  O   UNL     1      -0.617   4.767 -31.859  1.00  0.00    -0.273 OA
HETATM    9  H   UNL     1      -0.833   7.370 -33.626  1.00  0.00     0.162 HD
BRANCH   7  10
HETATM   10  C   UNL     1       0.144   6.994 -31.309  1.00  0.00     0.141 C 
BRANCH  10  11
HETATM   11  C   UNL     1      -0.266   6.961 -29.854  1.00  0.00    -0.049 A 
HETATM   12  C   UNL     1       0.523   6.343 -28.873  1.00  0.00     0.010 A 
HETATM   13  C   UNL     1       0.106   6.289 -27.538  1.00  0.00     0.037 A 
HETATM   14  C   UNL     1      -1.120   6.834 -27.163  1.00  0.00     0.068 A 
HETATM   15  C   UNL     1      -1.924   7.426 -28.138  1.00  0.00     0.037 A 
HETATM   16  C   UNL     1      -1.507   7.488 -29.471  1.00  0.00     0.010 A 
BRANCH  14  17
HETATM   17  O   UNL     1      -1.646   6.842 -25.901  1.00  0.00    -0.356 OA
HETATM   18  C   UNL     1      -2.915   7.464 -25.739  1.00  0.00     0.210 C 
ENDBRANCH  14  17
ENDBRANCH  10  11
ENDBRANCH   7  10
ENDBRANCH   5   6
ENDBRANCH   1   5
BRANCH   2  19
HETATM   19  N   UNL     1      -4.713   3.848 -33.341  1.00  0.00    -0.166 NA
HETATM   20  C   UNL     1      -4.923   2.856 -32.539  1.00  0.00     0.157 A 
HETATM   21  C   UNL     1      -3.947   2.182 -31.566  1.00  0.00     0.277 A 
HETATM   22  C   UNL     1      -6.190   2.149 -32.389  1.00  0.00     0.028 A 
HETATM   23  O   UNL     1      -2.794   2.512 -31.389  1.00  0.00    -0.266 OA
HETATM   24  N   UNL     1      -4.672   1.176 -30.959  1.00  0.00    -0.321 N 
HETATM   25  C   UNL     1      -5.981   1.154 -31.434  1.00  0.00     0.048 A 
HETATM   26  H   UNL     1      -4.282   0.558 -30.262  1.00  0.00     0.169 HD
HETATM   27  C   UNL     1      -6.992   0.296 -31.062  1.00  0.00     0.032 A 
HETATM   28  C   UNL     1      -8.237   0.463 -31.684  1.00  0.00     0.021 A 
HETATM   29  C   UNL     1      -8.434   1.473 -32.651  1.00  0.00     0.012 A 
HETATM   30 BR   UNL     1     -10.133   1.653 -33.463  1.00  0.00    -0.051 Br
HETATM   31  C   UNL     1      -7.403   2.336 -33.019  1.00  0.00     0.035 A 
ENDBRANCH   2  19
TORSDOF 6
ENDMDL
MODEL 7
REMARK VINA RESULT:      -8.2      4.895      8.670
REMARK  6 active torsions:
REMARK  status: ('A' for Active; 'I' for Inactive)
REMARK    1  A    between atoms: O_2  and  C_3 
REMARK    2  A    between atoms: C_6  and  C_7 
REMARK    3  A    between atoms: C_7  and  C_8 
REMARK       I    between atoms: C_8  and  N_9 
REMARK    4  A    between atoms: N_9  and  C_10 
REMARK    5  A    between atoms: C_10  and  C_11 
REMARK       I    between atoms: C_11  and  N_12 
REMARK    6  A    between atoms: N_12  and  N_13 
ROOT
HETATM    1  C   UNL     1      -6.598   3.676 -30.850  1.00  0.00     0.255 C 
HETATM    2  N   UNL     1      -7.290   2.817 -31.683  1.00  0.00    -0.245 N 
HETATM    3  O   UNL     1      -6.910   4.848 -30.632  1.00  0.00    -0.270 OA
HETATM    4  H   UNL     1      -6.895   1.898 -31.886  1.00  0.00     0.192 HD
ENDROOT
BRANCH   1   5
HETATM    5  C   UNL     1      -5.326   3.080 -30.233  1.00  0.00     0.227 C 
BRANCH   5   6
HETATM    6  N   UNL     1      -4.408   2.378 -31.126  1.00  0.00    -0.352 N 
HETATM    7  C   UNL     1      -4.293   1.005 -31.073  1.00  0.00     0.222 C 
HETATM    8  O   UNL     1      -4.755   0.345 -30.147  1.00  0.00    -0.273 OA
HETATM    9  H   UNL     1      -4.188   2.829 -32.005  1.00  0.00     0.162 HD
BRANCH   7  10
HETATM   10  C   UNL     1      -3.554   0.379 -32.244  1.00  0.00     0.141 C 
BRANCH  10  11
HETATM   11  C   UNL     1      -4.377  -0.621 -33.026  1.00  0.00    -0.049 A 
HETATM   12  C   UNL     1      -3.887  -1.892 -33.355  1.00  0.00     0.010 A 
HETATM   13  C   UNL     1      -4.651  -2.787 -34.113  1.00  0.00     0.037 A 
HETATM   14  C   UNL     1      -5.912  -2.417 -34.576  1.00  0.00     0.068 A 
HETATM   15  C   UNL     1      -6.396  -1.142 -34.277  1.00  0.00     0.037 A 
HETATM   16  C   UNL     1      -5.639  -0.250 -33.513  1.00  0.00     0.010 A 
BRANCH  14  17
HETATM   17  O   UNL     1      -6.753  -3.190 -35.329  1.00  0.00    -0.356 OA
HETATM   18  C   UNL     1      -6.593  -4.600 -35.222  1.00  0.00     0.210 C 
ENDBRANCH  14  17
ENDBRANCH  10  11
ENDBRANCH   7  10
ENDBRANCH   5   6
ENDBRANCH   1   5
BRANCH   2  19
HETATM   19  N   UNL     1      -8.375   3.254 -32.384  1.00  0.00    -0.166 NA
HETATM   20  C   UNL     1      -9.277   2.370 -32.662  1.00  0.00     0.157 A 
HETATM   21  C   UNL     1      -9.326   0.888 -32.268  1.00  0.00     0.277 A 
HETATM   22  C   UNL     1     -10.487   2.618 -33.438  1.00  0.00     0.028 A 
HETATM   23  O   UNL     1      -8.499   0.315 -31.592  1.00  0.00    -0.266 OA
HETATM   24  N   UNL     1     -10.492   0.400 -32.822  1.00  0.00    -0.321 N 
HETATM   25  C   UNL     1     -11.174   1.405 -33.504  1.00  0.00     0.048 A 
HETATM   26  H   UNL     1     -10.791  -0.559 -32.726  1.00  0.00     0.169 HD
HETATM   27  C   UNL     1     -12.370   1.297 -34.179  1.00  0.00     0.032 A 
HETATM   28  C   UNL     1     -12.865   2.453 -34.798  1.00  0.00     0.021 A 
HETATM   29  C   UNL     1     -12.158   3.673 -34.725  1.00  0.00     0.012 A 
HETATM   30 BR   UNL     1     -12.868   5.204 -35.581  1.00  0.00    -0.051 Br
HETATM   31  C   UNL     1     -10.948   3.771 -34.038  1.00  0.00     0.035 A 
ENDBRANCH   2  19
TORSDOF 6
ENDMDL
MODEL 8
REMARK VINA RESULT:      -8.1      4.036      9.512
REMARK  6 active torsions:
REMARK  status: ('A' for Active; 'I' for Inactive)
REMARK    1  A    between atoms: O_2  and  C_3 
REMARK    2  A    between atoms: C_6  and  C_7 
REMARK    3  A    between atoms: C_7  and  C_8 
REMARK       I    between atoms: C_8  and  N_9 
REMARK    4  A    between atoms: N_9  and  C_10 
REMARK    5  A    between atoms: C_10  and  C_11 
REMARK       I    between atoms: C_11  and  N_12 
REMARK    6  A    between atoms: N_12  and  N_13 
ROOT
HETATM    1  C   UNL     1      -5.663   5.548 -32.798  1.00  0.00     0.255 C 
HETATM    2  N   UNL     1      -4.311   5.820 -32.889  1.00  0.00    -0.245 N 
HETATM    3  O   UNL     1      -6.406   5.962 -31.907  1.00  0.00    -0.270 OA
HETATM    4  H   UNL     1      -3.755   5.345 -33.601  1.00  0.00     0.192 HD
ENDROOT
BRANCH   1   5
HETATM    5  C   UNL     1      -6.197   4.604 -33.884  1.00  0.00     0.227 C 
BRANCH   5   6
HETATM    6  N   UNL     1      -6.555   3.247 -33.483  1.00  0.00    -0.352 N 
HETATM    7  C   UNL     1      -5.640   2.444 -32.836  1.00  0.00     0.222 C 
HETATM    8  O   UNL     1      -4.446   2.726 -32.780  1.00  0.00    -0.273 OA
HETATM    9  H   UNL     1      -7.537   3.062 -33.314  1.00  0.00     0.162 HD
BRANCH   7  10
HETATM   10  C   UNL     1      -6.222   1.192 -32.202  1.00  0.00     0.141 C 
BRANCH  10  11
HETATM   11  C   UNL     1      -6.054  -0.057 -33.039  1.00  0.00    -0.049 A 
HETATM   12  C   UNL     1      -7.131  -0.655 -33.707  1.00  0.00     0.010 A 
HETATM   13  C   UNL     1      -6.960  -1.832 -34.444  1.00  0.00     0.037 A 
HETATM   14  C   UNL     1      -5.711  -2.446 -34.508  1.00  0.00     0.068 A 
HETATM   15  C   UNL     1      -4.639  -1.872 -33.823  1.00  0.00     0.037 A 
HETATM   16  C   UNL     1      -4.805  -0.692 -33.093  1.00  0.00     0.010 A 
BRANCH  14  17
HETATM   17  O   UNL     1      -5.412  -3.597 -35.184  1.00  0.00    -0.356 OA
HETATM   18  C   UNL     1      -6.466  -4.541 -35.338  1.00  0.00     0.210 C 
ENDBRANCH  14  17
ENDBRANCH  10  11
ENDBRANCH   7  10
ENDBRANCH   5   6
ENDBRANCH   1   5
BRANCH   2  19
HETATM   19  N   UNL     1      -3.684   6.553 -31.924  1.00  0.00    -0.166 NA
HETATM   20  C   UNL     1      -2.444   6.268 -31.697  1.00  0.00     0.157 A 
HETATM   21  C   UNL     1      -1.547   5.242 -32.401  1.00  0.00     0.277 A 
HETATM   22  C   UNL     1      -1.608   6.898 -30.681  1.00  0.00     0.028 A 
HETATM   23  O   UNL     1      -1.885   4.535 -33.326  1.00  0.00    -0.266 OA
HETATM   24  N   UNL     1      -0.322   5.333 -31.773  1.00  0.00    -0.321 N 
HETATM   25  C   UNL     1      -0.352   6.298 -30.770  1.00  0.00     0.048 A 
HETATM   26  H   UNL     1       0.474   4.767 -32.029  1.00  0.00     0.169 HD
HETATM   27  C   UNL     1       0.678   6.670 -29.933  1.00  0.00     0.032 A 
HETATM   28  C   UNL     1       0.411   7.671 -28.990  1.00  0.00     0.021 A 
HETATM   29  C   UNL     1      -0.866   8.268 -28.910  1.00  0.00     0.012 A 
HETATM   30 BR   UNL     1      -1.176   9.613 -27.616  1.00  0.00    -0.051 Br
HETATM   31  C   UNL     1      -1.901   7.884 -29.762  1.00  0.00     0.035 A 
ENDBRANCH   2  19
TORSDOF 6
ENDMDL
MODEL 9
REMARK VINA RESULT:      -8.0      4.483      6.675
REMARK  6 active torsions:
REMARK  status: ('A' for Active; 'I' for Inactive)
REMARK    1  A    between atoms: O_2  and  C_3 
REMARK    2  A    between atoms: C_6  and  C_7 
REMARK    3  A    between atoms: C_7  and  C_8 
REMARK       I    between atoms: C_8  and  N_9 
REMARK    4  A    between atoms: N_9  and  C_10 
REMARK    5  A    between atoms: C_10  and  C_11 
REMARK       I    between atoms: C_11  and  N_12 
REMARK    6  A    between atoms: N_12  and  N_13 
ROOT
HETATM    1  C   UNL     1     -10.888   1.832 -34.166  1.00  0.00     0.255 C 
HETATM    2  N   UNL     1      -9.568   1.779 -34.568  1.00  0.00    -0.245 N 
HETATM    3  O   UNL     1     -11.548   0.861 -33.790  1.00  0.00    -0.270 OA
HETATM    4  H   UNL     1      -9.136   2.614 -34.965  1.00  0.00     0.192 HD
ENDROOT
BRANCH   1   5
HETATM    5  C   UNL     1     -11.535   3.219 -34.279  1.00  0.00     0.227 C 
BRANCH   5   6
HETATM    6  N   UNL     1     -11.308   4.161 -33.186  1.00  0.00    -0.352 N 
HETATM    7  C   UNL     1     -12.052   4.082 -32.028  1.00  0.00     0.222 C 
HETATM    8  O   UNL     1     -13.069   3.399 -31.949  1.00  0.00    -0.273 OA
HETATM    9  H   UNL     1     -10.384   4.571 -33.119  1.00  0.00     0.162 HD
BRANCH   7  10
HETATM   10  C   UNL     1     -11.516   4.901 -30.866  1.00  0.00     0.141 C 
BRANCH  10  11
HETATM   11  C   UNL     1     -10.061   4.637 -30.547  1.00  0.00    -0.049 A 
HETATM   12  C   UNL     1      -9.547   3.337 -30.443  1.00  0.00     0.010 A 
HETATM   13  C   UNL     1      -8.206   3.115 -30.108  1.00  0.00     0.037 A 
HETATM   14  C   UNL     1      -7.359   4.191 -29.850  1.00  0.00     0.068 A 
HETATM   15  C   UNL     1      -7.870   5.488 -29.924  1.00  0.00     0.037 A 
HETATM   16  C   UNL     1      -9.207   5.712 -30.265  1.00  0.00     0.010 A 
BRANCH  14  17
HETATM   17  O   UNL     1      -6.038   4.112 -29.507  1.00  0.00    -0.356 OA
HETATM   18  C   UNL     1      -5.271   3.096 -30.142  1.00  0.00     0.210 C 
ENDBRANCH  14  17
ENDBRANCH  10  11
ENDBRANCH   7  10
ENDBRANCH   5   6
ENDBRANCH   1   5
BRANCH   2  19
HETATM   19  N   UNL     1      -8.906   0.587 -34.626  1.00  0.00    -0.166 NA
HETATM   20  C   UNL     1      -7.682   0.586 -34.210  1.00  0.00     0.157 A 
HETATM   21  C   UNL     1      -6.869   1.738 -33.606  1.00  0.00     0.277 A 
HETATM   22  C   UNL     1      -6.789  -0.567 -34.229  1.00  0.00     0.028 A 
HETATM   23  O   UNL     1      -7.285   2.859 -33.405  1.00  0.00    -0.266 OA
HETATM   24  N   UNL     1      -5.623   1.208 -33.340  1.00  0.00    -0.321 N 
HETATM   25  C   UNL     1      -5.571  -0.137 -33.700  1.00  0.00     0.048 A 
HETATM   26  H   UNL     1      -4.869   1.743 -32.934  1.00  0.00     0.169 HD
HETATM   27  C   UNL     1      -4.500  -0.995 -33.583  1.00  0.00     0.032 A 
HETATM   28  C   UNL     1      -4.683  -2.314 -34.019  1.00  0.00     0.021 A 
HETATM   29  C   UNL     1      -5.919  -2.735 -34.554  1.00  0.00     0.012 A 
HETATM   30 BR   UNL     1      -6.113  -4.527 -35.131  1.00  0.00    -0.051 Br
HETATM   31  C   UNL     1      -6.997  -1.858 -34.667  1.00  0.00     0.035 A 
ENDBRANCH   2  19
TORSDOF 6
ENDMDL
MODEL 10
REMARK VINA RESULT:      -7.9      4.955      9.285
REMARK  6 active torsions:
REMARK  status: ('A' for Active; 'I' for Inactive)
REMARK    1  A    between atoms: O_2  and  C_3 
REMARK    2  A    between atoms: C_6  and  C_7 
REMARK    3  A    between atoms: C_7  and  C_8 
REMARK       I    between atoms: C_8  and  N_9 
REMARK    4  A    between atoms: N_9  and  C_10 
REMARK    5  A    between atoms: C_10  and  C_11 
REMARK       I    between atoms: C_11  and  N_12 
REMARK    6  A    between atoms: N_12  and  N_13 
ROOT
HETATM    1  C   UNL     1      -5.631   4.684 -33.404  1.00  0.00     0.255 C 
HETATM    2  N   UNL     1      -6.910   4.182 -33.247  1.00  0.00    -0.245 N 
HETATM    3  O   UNL     1      -5.362   5.788 -33.880  1.00  0.00    -0.270 OA
HETATM    4  H   UNL     1      -7.030   3.215 -32.944  1.00  0.00     0.192 HD
ENDROOT
BRANCH   1   5
HETATM    5  C   UNL     1      -4.512   3.718 -32.991  1.00  0.00     0.227 C 
BRANCH   5   6
HETATM    6  N   UNL     1      -4.888   2.342 -32.680  1.00  0.00    -0.352 N 
HETATM    7  C   UNL     1      -4.166   1.610 -31.761  1.00  0.00     0.222 C 
HETATM    8  O   UNL     1      -3.069   1.975 -31.351  1.00  0.00    -0.273 OA
HETATM    9  H   UNL     1      -5.860   2.091 -32.815  1.00  0.00     0.162 HD
BRANCH   7  10
HETATM   10  C   UNL     1      -4.833   0.325 -31.300  1.00  0.00     0.141 C 
BRANCH  10  11
HETATM   11  C   UNL     1      -5.064  -0.680 -32.407  1.00  0.00    -0.049 A 
HETATM   12  C   UNL     1      -6.336  -0.909 -32.950  1.00  0.00     0.010 A 
HETATM   13  C   UNL     1      -6.534  -1.871 -33.947  1.00  0.00     0.037 A 
HETATM   14  C   UNL     1      -5.464  -2.639 -34.404  1.00  0.00     0.068 A 
HETATM   15  C   UNL     1      -4.200  -2.437 -33.848  1.00  0.00     0.037 A 
HETATM   16  C   UNL     1      -3.998  -1.471 -32.859  1.00  0.00     0.010 A 
BRANCH  14  17
HETATM   17  O   UNL     1      -5.523  -3.612 -35.362  1.00  0.00    -0.356 OA
HETATM   18  C   UNL     1      -6.687  -4.431 -35.374  1.00  0.00     0.210 C 
ENDBRANCH  14  17
ENDBRANCH  10  11
ENDBRANCH   7  10
ENDBRANCH   5   6
ENDBRANCH   1   5
BRANCH   2  19
HETATM   19  N   UNL     1      -7.992   4.892 -33.680  1.00  0.00    -0.166 NA
HETATM   20  C   UNL     1      -8.995   4.204 -34.118  1.00  0.00     0.157 A 
HETATM   21  C   UNL     1      -9.166   2.681 -34.177  1.00  0.00     0.277 A 
HETATM   22  C   UNL     1     -10.225   4.766 -34.666  1.00  0.00     0.028 A 
HETATM   23  O   UNL     1      -8.356   1.869 -33.784  1.00  0.00    -0.266 OA
HETATM   24  N   UNL     1     -10.411   2.473 -34.734  1.00  0.00    -0.321 N 
HETATM   25  C   UNL     1     -11.033   3.686 -35.020  1.00  0.00     0.048 A 
HETATM   26  H   UNL     1     -10.797   1.555 -34.898  1.00  0.00     0.169 HD
HETATM   27  C   UNL     1     -12.278   3.878 -35.579  1.00  0.00     0.032 A 
HETATM   28  C   UNL     1     -12.695   5.201 -35.777  1.00  0.00     0.021 A 
HETATM   29  C   UNL     1     -11.866   6.285 -35.416  1.00  0.00     0.012 A 
HETATM   30 BR   UNL     1     -12.476   8.051 -35.709  1.00  0.00    -0.051 Br
HETATM   31  C   UNL     1     -10.608   6.078 -34.851  1.00  0.00     0.035 A 
ENDBRANCH   2  19
TORSDOF 6
ENDMDL
