MODEL 1
REMARK VINA RESULT:      -9.1      0.000      0.000
REMARK  6 active torsions:
REMARK  status: ('A' for Active; 'I' for Inactive)
REMARK    1  A    between atoms: C_2  and  C_3 
REMARK    2  A    between atoms: C_2  and  C_9 
REMARK    3  A    between atoms: C_9  and  N_10 
REMARK       I    between atoms: N_10  and  C_11 
REMARK       I    between atoms: C_11  and  N_12 
REMARK    4  A    between atoms: N_12  and  C_13 
REMARK    5  A    between atoms: C_15  and  N_16 
REMARK       I    between atoms: N_16  and  C_17 
REMARK    6  A    between atoms: C_17  and  C_18 
ROOT
HETATM    1  N   UNL     1      -5.687   1.705 -32.660  1.00  0.00    -0.342 N 
HETATM    2  C   UNL     1      -4.414   2.234 -32.642  1.00  0.00     0.320 C 
HETATM    3  N   UNL     1      -4.430   3.535 -33.095  1.00  0.00    -0.309 N 
HETATM    4  O   UNL     1      -3.427   1.579 -32.335  1.00  0.00    -0.247 OA
HETATM    5  H   UNL     1      -6.466   2.342 -32.590  1.00  0.00     0.164 HD
HETATM    6  H   UNL     1      -5.248   3.779 -33.634  1.00  0.00     0.170 HD
ENDROOT
BRANCH   3   7
HETATM    7  C   UNL     1      -3.313   4.379 -33.248  1.00  0.00     0.038 A 
HETATM    8  C   UNL     1      -2.680   4.822 -32.076  1.00  0.00     0.059 A 
HETATM    9  C   UNL     1      -1.599   5.704 -32.132  1.00  0.00     0.037 A 
HETATM   10  C   UNL     1      -1.116   6.100 -33.384  1.00  0.00     0.029 A 
HETATM   11  C   UNL     1      -1.721   5.640 -34.556  1.00  0.00     0.004 A 
HETATM   12  C   UNL     1      -2.824   4.788 -34.487  1.00  0.00     0.029 A 
BRANCH   9  13
HETATM   13  N   UNL     1      -0.974   6.263 -30.993  1.00  0.00    -0.323 N 
HETATM   14  C   UNL     1      -0.023   5.671 -30.178  1.00  0.00     0.258 C 
HETATM   15  O   UNL     1       0.503   4.581 -30.378  1.00  0.00    -0.267 OA
HETATM   16  H   UNL     1      -1.303   7.178 -30.729  1.00  0.00     0.169 HD
BRANCH  14  17
HETATM   17  C   UNL     1       0.341   6.443 -28.992  1.00  0.00     0.056 A 
HETATM   18  C   UNL     1       0.381   6.043 -27.669  1.00  0.00     0.158 A 
HETATM   19  O   UNL     1       0.787   7.059 -26.863  1.00  0.00    -0.334 OA
HETATM   20  C   UNL     1       1.018   8.131 -27.661  1.00  0.00     0.142 A 
HETATM   21  C   UNL     1       0.759   7.810 -28.971  1.00  0.00     0.043 A 
ENDBRANCH  14  17
ENDBRANCH   9  13
ENDBRANCH   3   7
BRANCH   1  22
HETATM   22  C   UNL     1      -5.938   0.280 -32.523  1.00  0.00     0.138 C 
BRANCH  22  23
HETATM   23  C   UNL     1      -6.813  -0.299 -33.680  1.00  0.00    -0.004 C 
HETATM   24  C   UNL     1      -6.754   0.614 -34.929  1.00  0.00     0.021 C 
HETATM   25  C   UNL     1      -8.290  -0.323 -33.214  1.00  0.00     0.021 C 
BRANCH  23  26
HETATM   26  C   UNL     1      -6.282  -1.696 -34.060  1.00  0.00    -0.046 A 
HETATM   27  C   UNL     1      -4.922  -2.006 -33.885  1.00  0.00     0.027 A 
HETATM   28  C   UNL     1      -4.452  -3.261 -34.246  1.00  0.00     0.116 A 
HETATM   29  N   UNL     1      -5.228  -4.233 -34.764  1.00  0.00    -0.273 NA
HETATM   30  C   UNL     1      -6.530  -3.930 -34.928  1.00  0.00     0.116 A 
HETATM   31  C   UNL     1      -7.093  -2.704 -34.596  1.00  0.00     0.027 A 
ENDBRANCH  23  26
ENDBRANCH  22  23
ENDBRANCH   1  22
TORSDOF 6
ENDMDL
MODEL 2
REMARK VINA RESULT:      -8.9      1.557      2.266
REMARK  6 active torsions:
REMARK  status: ('A' for Active; 'I' for Inactive)
REMARK    1  A    between atoms: C_2  and  C_3 
REMARK    2  A    between atoms: C_2  and  C_9 
REMARK    3  A    between atoms: C_9  and  N_10 
REMARK       I    between atoms: N_10  and  C_11 
REMARK       I    between atoms: C_11  and  N_12 
REMARK    4  A    between atoms: N_12  and  C_13 
REMARK    5  A    between atoms: C_15  and  N_16 
REMARK       I    between atoms: N_16  and  C_17 
REMARK    6  A    between atoms: C_17  and  C_18 
ROOT
HETATM    1  N   UNL     1      -4.295   2.036 -32.753  1.00  0.00    -0.342 N 
HETATM    2  C   UNL     1      -3.962   3.366 -32.615  1.00  0.00     0.320 C 
HETATM    3  N   UNL     1      -2.601   3.535 -32.746  1.00  0.00    -0.309 N 
HETATM    4  O   UNL     1      -4.782   4.231 -32.337  1.00  0.00    -0.247 OA
HETATM    5  H   UNL     1      -3.680   1.446 -33.293  1.00  0.00     0.164 HD
HETATM    6  H   UNL     1      -2.061   2.692 -32.609  1.00  0.00     0.170 HD
ENDROOT
BRANCH   3   7
HETATM    7  C   UNL     1      -1.895   4.748 -32.631  1.00  0.00     0.038 A 
HETATM    8  C   UNL     1      -1.239   4.993 -31.414  1.00  0.00     0.059 A 
HETATM    9  C   UNL     1      -0.560   6.193 -31.192  1.00  0.00     0.037 A 
HETATM   10  C   UNL     1      -0.495   7.132 -32.228  1.00  0.00     0.029 A 
HETATM   11  C   UNL     1      -1.119   6.882 -33.452  1.00  0.00     0.004 A 
HETATM   12  C   UNL     1      -1.825   5.696 -33.650  1.00  0.00     0.029 A 
BRANCH   9  13
HETATM   13  N   UNL     1       0.041   6.545 -29.962  1.00  0.00    -0.323 N 
HETATM   14  C   UNL     1      -0.527   7.260 -28.920  1.00  0.00     0.258 C 
HETATM   15  O   UNL     1      -1.696   7.627 -28.866  1.00  0.00    -0.267 OA
HETATM   16  H   UNL     1       1.008   6.279 -29.866  1.00  0.00     0.169 HD
BRANCH  14  17
HETATM   17  C   UNL     1       0.386   7.589 -27.827  1.00  0.00     0.056 A 
HETATM   18  C   UNL     1       0.458   7.048 -26.557  1.00  0.00     0.158 A 
HETATM   19  O   UNL     1       1.462   7.618 -25.839  1.00  0.00    -0.334 OA
HETATM   20  C   UNL     1       2.053   8.536 -26.642  1.00  0.00     0.142 A 
HETATM   21  C   UNL     1       1.434   8.562 -27.868  1.00  0.00     0.043 A 
ENDBRANCH  14  17
ENDBRANCH   9  13
ENDBRANCH   3   7
BRANCH   1  22
HETATM   22  C   UNL     1      -5.600   1.518 -32.373  1.00  0.00     0.138 C 
BRANCH  22  23
HETATM   23  C   UNL     1      -5.529   0.092 -31.740  1.00  0.00    -0.004 C 
HETATM   24  C   UNL     1      -6.732  -0.157 -30.798  1.00  0.00     0.021 C 
HETATM   25  C   UNL     1      -4.252   0.006 -30.866  1.00  0.00     0.021 C 
BRANCH  23  26
HETATM   26  C   UNL     1      -5.554  -0.959 -32.868  1.00  0.00    -0.046 A 
HETATM   27  C   UNL     1      -6.745  -1.212 -33.570  1.00  0.00     0.027 A 
HETATM   28  C   UNL     1      -6.760  -2.173 -34.572  1.00  0.00     0.116 A 
HETATM   29  N   UNL     1      -5.684  -2.898 -34.933  1.00  0.00    -0.273 NA
HETATM   30  C   UNL     1      -4.545  -2.650 -34.257  1.00  0.00     0.116 A 
HETATM   31  C   UNL     1      -4.432  -1.709 -33.241  1.00  0.00     0.027 A 
ENDBRANCH  23  26
ENDBRANCH  22  23
ENDBRANCH   1  22
TORSDOF 6
ENDMDL
MODEL 3
REMARK VINA RESULT:      -8.2      2.640     10.279
REMARK  6 active torsions:
REMARK  status: ('A' for Active; 'I' for Inactive)
REMARK    1  A    between atoms: C_2  and  C_3 
REMARK    2  A    between atoms: C_2  and  C_9 
REMARK    3  A    between atoms: C_9  and  N_10 
REMARK       I    between atoms: N_10  and  C_11 
REMARK       I    between atoms: C_11  and  N_12 
REMARK    4  A    between atoms: N_12  and  C_13 
REMARK    5  A    between atoms: C_15  and  N_16 
REMARK       I    between atoms: N_16  and  C_17 
REMARK    6  A    between atoms: C_17  and  C_18 
ROOT
HETATM    1  N   UNL     1      -2.272   4.432 -31.026  1.00  0.00    -0.342 N 
HETATM    2  C   UNL     1      -3.294   3.816 -31.716  1.00  0.00     0.320 C 
HETATM    3  N   UNL     1      -4.014   2.996 -30.874  1.00  0.00    -0.309 N 
HETATM    4  O   UNL     1      -3.456   3.948 -32.921  1.00  0.00    -0.247 OA
HETATM    5  H   UNL     1      -2.383   4.562 -30.031  1.00  0.00     0.164 HD
HETATM    6  H   UNL     1      -3.527   2.738 -30.028  1.00  0.00     0.170 HD
ENDROOT
BRANCH   3   7
HETATM    7  C   UNL     1      -5.106   2.182 -31.234  1.00  0.00     0.038 A 
HETATM    8  C   UNL     1      -4.813   0.910 -31.750  1.00  0.00     0.059 A 
HETATM    9  C   UNL     1      -5.831   0.057 -32.182  1.00  0.00     0.037 A 
HETATM   10  C   UNL     1      -7.161   0.470 -32.040  1.00  0.00     0.029 A 
HETATM   11  C   UNL     1      -7.461   1.722 -31.500  1.00  0.00     0.004 A 
HETATM   12  C   UNL     1      -6.434   2.580 -31.106  1.00  0.00     0.029 A 
BRANCH   9  13
HETATM   13  N   UNL     1      -5.605  -1.196 -32.796  1.00  0.00    -0.323 N 
HETATM   14  C   UNL     1      -5.979  -1.589 -34.071  1.00  0.00     0.258 C 
HETATM   15  O   UNL     1      -6.494  -0.863 -34.915  1.00  0.00    -0.267 OA
HETATM   16  H   UNL     1      -5.162  -1.887 -32.211  1.00  0.00     0.169 HD
BRANCH  14  17
HETATM   17  C   UNL     1      -5.729  -2.995 -34.382  1.00  0.00     0.056 A 
HETATM   18  C   UNL     1      -6.564  -3.918 -34.981  1.00  0.00     0.158 A 
HETATM   19  O   UNL     1      -5.951  -5.124 -35.108  1.00  0.00    -0.334 OA
HETATM   20  C   UNL     1      -4.705  -4.992 -34.591  1.00  0.00     0.142 A 
HETATM   21  C   UNL     1      -4.516  -3.711 -34.131  1.00  0.00     0.043 A 
ENDBRANCH  14  17
ENDBRANCH   9  13
ENDBRANCH   3   7
BRANCH   1  22
HETATM   22  C   UNL     1      -1.180   5.114 -31.701  1.00  0.00     0.138 C 
BRANCH  22  23
HETATM   23  C   UNL     1      -0.376   6.061 -30.754  1.00  0.00    -0.004 C 
HETATM   24  C   UNL     1       0.792   6.739 -31.510  1.00  0.00     0.021 C 
HETATM   25  C   UNL     1       0.257   5.207 -29.627  1.00  0.00     0.021 C 
BRANCH  23  26
HETATM   26  C   UNL     1      -1.322   7.154 -30.218  1.00  0.00    -0.046 A 
HETATM   27  C   UNL     1      -1.666   7.185 -28.856  1.00  0.00     0.027 A 
HETATM   28  C   UNL     1      -2.533   8.163 -28.388  1.00  0.00     0.116 A 
HETATM   29  N   UNL     1      -3.081   9.115 -29.167  1.00  0.00    -0.273 NA
HETATM   30  C   UNL     1      -2.747   9.082 -30.472  1.00  0.00     0.116 A 
HETATM   31  C   UNL     1      -1.888   8.144 -31.032  1.00  0.00     0.027 A 
ENDBRANCH  23  26
ENDBRANCH  22  23
ENDBRANCH   1  22
TORSDOF 6
ENDMDL
MODEL 4
REMARK VINA RESULT:      -7.9      4.060      6.363
REMARK  6 active torsions:
REMARK  status: ('A' for Active; 'I' for Inactive)
REMARK    1  A    between atoms: C_2  and  C_3 
REMARK    2  A    between atoms: C_2  and  C_9 
REMARK    3  A    between atoms: C_9  and  N_10 
REMARK       I    between atoms: N_10  and  C_11 
REMARK       I    between atoms: C_11  and  N_12 
REMARK    4  A    between atoms: N_12  and  C_13 
REMARK    5  A    between atoms: C_15  and  N_16 
REMARK       I    between atoms: N_16  and  C_17 
REMARK    6  A    between atoms: C_17  and  C_18 
ROOT
HETATM    1  N   UNL     1      -9.712   1.005 -32.320  1.00  0.00    -0.342 N 
HETATM    2  C   UNL     1      -8.407   0.622 -32.543  1.00  0.00     0.320 C 
HETATM    3  N   UNL     1      -7.597   1.069 -31.523  1.00  0.00    -0.309 N 
HETATM    4  O   UNL     1      -8.051   0.035 -33.555  1.00  0.00    -0.247 OA
HETATM    5  H   UNL     1     -10.003   1.169 -31.368  1.00  0.00     0.164 HD
HETATM    6  H   UNL     1      -7.988   1.825 -30.979  1.00  0.00     0.170 HD
ENDROOT
BRANCH   3   7
HETATM    7  C   UNL     1      -6.202   0.897 -31.428  1.00  0.00     0.038 A 
HETATM    8  C   UNL     1      -5.422   2.056 -31.287  1.00  0.00     0.059 A 
HETATM    9  C   UNL     1      -4.029   1.984 -31.240  1.00  0.00     0.037 A 
HETATM   10  C   UNL     1      -3.417   0.725 -31.279  1.00  0.00     0.029 A 
HETATM   11  C   UNL     1      -4.187  -0.434 -31.389  1.00  0.00     0.004 A 
HETATM   12  C   UNL     1      -5.577  -0.348 -31.472  1.00  0.00     0.029 A 
BRANCH   9  13
HETATM   13  N   UNL     1      -3.180   3.113 -31.193  1.00  0.00    -0.323 N 
HETATM   14  C   UNL     1      -2.849   3.964 -32.235  1.00  0.00     0.258 C 
HETATM   15  O   UNL     1      -3.326   3.920 -33.365  1.00  0.00    -0.267 OA
HETATM   16  H   UNL     1      -2.735   3.279 -30.303  1.00  0.00     0.169 HD
BRANCH  14  17
HETATM   17  C   UNL     1      -1.838   4.969 -31.916  1.00  0.00     0.056 A 
HETATM   18  C   UNL     1      -0.989   5.038 -30.827  1.00  0.00     0.158 A 
HETATM   19  O   UNL     1      -0.179   6.126 -30.906  1.00  0.00    -0.334 OA
HETATM   20  C   UNL     1      -0.495   6.774 -32.053  1.00  0.00     0.142 A 
HETATM   21  C   UNL     1      -1.504   6.111 -32.709  1.00  0.00     0.043 A 
ENDBRANCH  14  17
ENDBRANCH   9  13
ENDBRANCH   3   7
BRANCH   1  22
HETATM   22  C   UNL     1     -10.730   0.937 -33.356  1.00  0.00     0.138 C 
BRANCH  22  23
HETATM   23  C   UNL     1     -11.533   2.268 -33.511  1.00  0.00    -0.004 C 
HETATM   24  C   UNL     1     -11.221   2.949 -34.866  1.00  0.00     0.021 C 
HETATM   25  C   UNL     1     -11.076   3.248 -32.402  1.00  0.00     0.021 C 
BRANCH  23  26
HETATM   26  C   UNL     1     -13.041   1.953 -33.448  1.00  0.00    -0.046 A 
HETATM   27  C   UNL     1     -13.598   0.990 -34.307  1.00  0.00     0.027 A 
HETATM   28  C   UNL     1     -14.960   0.728 -34.253  1.00  0.00     0.116 A 
HETATM   29  N   UNL     1     -15.810   1.344 -33.411  1.00  0.00    -0.273 NA
HETATM   30  C   UNL     1     -15.271   2.266 -32.590  1.00  0.00     0.116 A 
HETATM   31  C   UNL     1     -13.922   2.596 -32.569  1.00  0.00     0.027 A 
ENDBRANCH  23  26
ENDBRANCH  22  23
ENDBRANCH   1  22
TORSDOF 6
ENDMDL
MODEL 5
REMARK VINA RESULT:      -7.8      5.754      9.304
REMARK  6 active torsions:
REMARK  status: ('A' for Active; 'I' for Inactive)
REMARK    1  A    between atoms: C_2  and  C_3 
REMARK    2  A    between atoms: C_2  and  C_9 
REMARK    3  A    between atoms: C_9  and  N_10 
REMARK       I    between atoms: N_10  and  C_11 
REMARK       I    between atoms: C_11  and  N_12 
REMARK    4  A    between atoms: N_12  and  C_13 
REMARK    5  A    between atoms: C_15  and  N_16 
REMARK       I    between atoms: N_16  and  C_17 
REMARK    6  A    between atoms: C_17  and  C_18 
ROOT
HETATM    1  N   UNL     1      -9.772   4.696 -32.806  1.00  0.00    -0.342 N 
HETATM    2  C   UNL     1      -9.329   3.645 -32.033  1.00  0.00     0.320 C 
HETATM    3  N   UNL     1      -8.013   3.360 -32.322  1.00  0.00    -0.309 N 
HETATM    4  O   UNL     1     -10.058   3.031 -31.266  1.00  0.00    -0.247 OA
HETATM    5  H   UNL     1      -9.088   5.356 -33.145  1.00  0.00     0.164 HD
HETATM    6  H   UNL     1      -7.694   3.716 -33.212  1.00  0.00     0.170 HD
ENDROOT
BRANCH   3   7
HETATM    7  C   UNL     1      -7.238   2.329 -31.755  1.00  0.00     0.038 A 
HETATM    8  C   UNL     1      -7.088   1.153 -32.507  1.00  0.00     0.059 A 
HETATM    9  C   UNL     1      -6.382   0.060 -32.001  1.00  0.00     0.037 A 
HETATM   10  C   UNL     1      -5.773   0.175 -30.746  1.00  0.00     0.029 A 
HETATM   11  C   UNL     1      -5.891   1.352 -30.004  1.00  0.00     0.004 A 
HETATM   12  C   UNL     1      -6.630   2.424 -30.505  1.00  0.00     0.029 A 
BRANCH   9  13
HETATM   13  N   UNL     1      -6.271  -1.185 -32.662  1.00  0.00    -0.323 N 
HETATM   14  C   UNL     1      -5.327  -1.558 -33.604  1.00  0.00     0.258 C 
HETATM   15  O   UNL     1      -4.365  -0.880 -33.950  1.00  0.00    -0.267 OA
HETATM   16  H   UNL     1      -6.997  -1.851 -32.446  1.00  0.00     0.169 HD
BRANCH  14  17
HETATM   17  C   UNL     1      -5.546  -2.867 -34.214  1.00  0.00     0.056 A 
HETATM   18  C   UNL     1      -4.686  -3.945 -34.301  1.00  0.00     0.158 A 
HETATM   19  O   UNL     1      -5.276  -4.993 -34.935  1.00  0.00    -0.334 OA
HETATM   20  C   UNL     1      -6.531  -4.602 -35.264  1.00  0.00     0.142 A 
HETATM   21  C   UNL     1      -6.749  -3.310 -34.849  1.00  0.00     0.043 A 
ENDBRANCH  14  17
ENDBRANCH   9  13
ENDBRANCH   3   7
BRANCH   1  22
HETATM   22  C   UNL     1     -11.182   5.025 -32.936  1.00  0.00     0.138 C 
BRANCH  22  23
HETATM   23  C   UNL     1     -11.795   4.555 -34.294  1.00  0.00    -0.004 C 
HETATM   24  C   UNL     1     -10.688   4.091 -35.270  1.00  0.00     0.021 C 
HETATM   25  C   UNL     1     -12.499   5.764 -34.959  1.00  0.00     0.021 C 
BRANCH  23  26
HETATM   26  C   UNL     1     -12.752   3.376 -34.030  1.00  0.00    -0.046 A 
HETATM   27  C   UNL     1     -13.580   3.378 -32.893  1.00  0.00     0.027 A 
HETATM   28  C   UNL     1     -14.425   2.303 -32.657  1.00  0.00     0.116 A 
HETATM   29  N   UNL     1     -14.515   1.228 -33.463  1.00  0.00    -0.273 NA
HETATM   30  C   UNL     1     -13.720   1.231 -34.551  1.00  0.00     0.116 A 
HETATM   31  C   UNL     1     -12.844   2.260 -34.872  1.00  0.00     0.027 A 
ENDBRANCH  23  26
ENDBRANCH  22  23
ENDBRANCH   1  22
TORSDOF 6
ENDMDL
MODEL 6
REMARK VINA RESULT:      -7.7      2.393     10.256
REMARK  6 active torsions:
REMARK  status: ('A' for Active; 'I' for Inactive)
REMARK    1  A    between atoms: C_2  and  C_3 
REMARK    2  A    between atoms: C_2  and  C_9 
REMARK    3  A    between atoms: C_9  and  N_10 
REMARK       I    between atoms: N_10  and  C_11 
REMARK       I    between atoms: C_11  and  N_12 
REMARK    4  A    between atoms: N_12  and  C_13 
REMARK    5  A    between atoms: C_15  and  N_16 
REMARK       I    between atoms: N_16  and  C_17 
REMARK    6  A    between atoms: C_17  and  C_18 
ROOT
HETATM    1  N   UNL     1      -2.326   5.120 -30.713  1.00  0.00    -0.342 N 
HETATM    2  C   UNL     1      -2.950   4.542 -31.797  1.00  0.00     0.320 C 
HETATM    3  N   UNL     1      -4.271   4.283 -31.507  1.00  0.00    -0.309 N 
HETATM    4  O   UNL     1      -2.357   4.247 -32.826  1.00  0.00    -0.247 OA
HETATM    5  H   UNL     1      -2.895   5.634 -30.056  1.00  0.00     0.164 HD
HETATM    6  H   UNL     1      -4.484   4.256 -30.520  1.00  0.00     0.170 HD
ENDROOT
BRANCH   3   7
HETATM    7  C   UNL     1      -5.209   3.666 -32.358  1.00  0.00     0.038 A 
HETATM    8  C   UNL     1      -5.027   2.301 -32.627  1.00  0.00     0.059 A 
HETATM    9  C   UNL     1      -5.876   1.621 -33.502  1.00  0.00     0.037 A 
HETATM   10  C   UNL     1      -6.953   2.312 -34.070  1.00  0.00     0.029 A 
HETATM   11  C   UNL     1      -7.158   3.664 -33.784  1.00  0.00     0.004 A 
HETATM   12  C   UNL     1      -6.281   4.342 -32.936  1.00  0.00     0.029 A 
BRANCH   9  13
HETATM   13  N   UNL     1      -5.698   0.273 -33.890  1.00  0.00    -0.323 N 
HETATM   14  C   UNL     1      -6.596  -0.772 -33.743  1.00  0.00     0.258 C 
HETATM   15  O   UNL     1      -7.745  -0.667 -33.328  1.00  0.00    -0.267 OA
HETATM   16  H   UNL     1      -4.792   0.053 -34.273  1.00  0.00     0.169 HD
BRANCH  14  17
HETATM   17  C   UNL     1      -6.078  -2.087 -34.115  1.00  0.00     0.056 A 
HETATM   18  C   UNL     1      -6.750  -3.169 -34.653  1.00  0.00     0.158 A 
HETATM   19  O   UNL     1      -5.904  -4.210 -34.873  1.00  0.00    -0.334 OA
HETATM   20  C   UNL     1      -4.670  -3.809 -34.481  1.00  0.00     0.142 A 
HETATM   21  C   UNL     1      -4.719  -2.520 -34.007  1.00  0.00     0.043 A 
ENDBRANCH  14  17
ENDBRANCH   9  13
ENDBRANCH   3   7
BRANCH   1  22
HETATM   22  C   UNL     1      -0.879   5.232 -30.617  1.00  0.00     0.138 C 
BRANCH  22  23
HETATM   23  C   UNL     1      -0.389   6.710 -30.496  1.00  0.00    -0.004 C 
HETATM   24  C   UNL     1      -1.455   7.694 -31.037  1.00  0.00     0.021 C 
HETATM   25  C   UNL     1       0.871   6.884 -31.380  1.00  0.00     0.021 C 
BRANCH  23  26
HETATM   26  C   UNL     1      -0.127   7.030 -29.010  1.00  0.00    -0.046 A 
HETATM   27  C   UNL     1       0.040   8.362 -28.593  1.00  0.00     0.027 A 
HETATM   28  C   UNL     1       0.293   8.637 -27.256  1.00  0.00     0.116 A 
HETATM   29  N   UNL     1       0.389   7.692 -26.302  1.00  0.00    -0.273 NA
HETATM   30  C   UNL     1       0.228   6.417 -26.707  1.00  0.00     0.116 A 
HETATM   31  C   UNL     1      -0.029   6.044 -28.020  1.00  0.00     0.027 A 
ENDBRANCH  23  26
ENDBRANCH  22  23
ENDBRANCH   1  22
TORSDOF 6
ENDMDL
MODEL 7
REMARK VINA RESULT:      -7.7      3.204     10.288
REMARK  6 active torsions:
REMARK  status: ('A' for Active; 'I' for Inactive)
REMARK    1  A    between atoms: C_2  and  C_3 
REMARK    2  A    between atoms: C_2  and  C_9 
REMARK    3  A    between atoms: C_9  and  N_10 
REMARK       I    between atoms: N_10  and  C_11 
REMARK       I    between atoms: C_11  and  N_12 
REMARK    4  A    between atoms: N_12  and  C_13 
REMARK    5  A    between atoms: C_15  and  N_16 
REMARK       I    between atoms: N_16  and  C_17 
REMARK    6  A    between atoms: C_17  and  C_18 
ROOT
HETATM    1  N   UNL     1      -2.335   4.595 -30.854  1.00  0.00    -0.342 N 
HETATM    2  C   UNL     1      -2.982   3.588 -31.539  1.00  0.00     0.320 C 
HETATM    3  N   UNL     1      -4.064   3.136 -30.815  1.00  0.00    -0.309 N 
HETATM    4  O   UNL     1      -2.572   3.136 -32.599  1.00  0.00    -0.247 OA
HETATM    5  H   UNL     1      -2.871   5.140 -30.196  1.00  0.00     0.164 HD
HETATM    6  H   UNL     1      -4.032   3.363 -29.832  1.00  0.00     0.170 HD
ENDROOT
BRANCH   3   7
HETATM    7  C   UNL     1      -4.936   2.093 -31.182  1.00  0.00     0.038 A 
HETATM    8  C   UNL     1      -6.009   2.422 -32.024  1.00  0.00     0.059 A 
HETATM    9  C   UNL     1      -6.954   1.463 -32.395  1.00  0.00     0.037 A 
HETATM   10  C   UNL     1      -6.783   0.145 -31.956  1.00  0.00     0.029 A 
HETATM   11  C   UNL     1      -5.701  -0.198 -31.142  1.00  0.00     0.004 A 
HETATM   12  C   UNL     1      -4.784   0.777 -30.749  1.00  0.00     0.029 A 
BRANCH   9  13
HETATM   13  N   UNL     1      -8.108   1.744 -33.162  1.00  0.00    -0.323 N 
HETATM   14  C   UNL     1      -9.313   2.258 -32.713  1.00  0.00     0.258 C 
HETATM   15  O   UNL     1      -9.540   2.642 -31.571  1.00  0.00    -0.267 OA
HETATM   16  H   UNL     1      -8.046   1.494 -34.136  1.00  0.00     0.169 HD
BRANCH  14  17
HETATM   17  C   UNL     1     -10.373   2.314 -33.718  1.00  0.00     0.056 A 
HETATM   18  C   UNL     1     -10.705   3.342 -34.580  1.00  0.00     0.158 A 
HETATM   19  O   UNL     1     -11.749   2.994 -35.377  1.00  0.00    -0.334 OA
HETATM   20  C   UNL     1     -12.104   1.731 -35.038  1.00  0.00     0.142 A 
HETATM   21  C   UNL     1     -11.297   1.267 -34.028  1.00  0.00     0.043 A 
ENDBRANCH  14  17
ENDBRANCH   9  13
ENDBRANCH   3   7
BRANCH   1  22
HETATM   22  C   UNL     1      -1.007   5.057 -31.223  1.00  0.00     0.138 C 
BRANCH  22  23
HETATM   23  C   UNL     1      -0.742   6.540 -30.814  1.00  0.00    -0.004 C 
HETATM   24  C   UNL     1      -1.736   7.495 -31.519  1.00  0.00     0.021 C 
HETATM   25  C   UNL     1       0.676   6.937 -31.294  1.00  0.00     0.021 C 
BRANCH  23  26
HETATM   26  C   UNL     1      -0.918   6.678 -29.288  1.00  0.00    -0.046 A 
HETATM   27  C   UNL     1       0.047   6.147 -28.415  1.00  0.00     0.027 A 
HETATM   28  C   UNL     1      -0.130   6.263 -27.044  1.00  0.00     0.116 A 
HETATM   29  N   UNL     1      -1.189   6.866 -26.472  1.00  0.00    -0.273 NA
HETATM   30  C   UNL     1      -2.111   7.374 -27.313  1.00  0.00     0.116 A 
HETATM   31  C   UNL     1      -2.020   7.309 -28.698  1.00  0.00     0.027 A 
ENDBRANCH  23  26
ENDBRANCH  22  23
ENDBRANCH   1  22
TORSDOF 6
ENDMDL
MODEL 8
REMARK VINA RESULT:      -7.7      6.592      9.226
REMARK  6 active torsions:
REMARK  status: ('A' for Active; 'I' for Inactive)
REMARK    1  A    between atoms: C_2  and  C_3 
REMARK    2  A    between atoms: C_2  and  C_9 
REMARK    3  A    between atoms: C_9  and  N_10 
REMARK       I    between atoms: N_10  and  C_11 
REMARK       I    between atoms: C_11  and  N_12 
REMARK    4  A    between atoms: N_12  and  C_13 
REMARK    5  A    between atoms: C_15  and  N_16 
REMARK       I    between atoms: N_16  and  C_17 
REMARK    6  A    between atoms: C_17  and  C_18 
ROOT
HETATM    1  N   UNL     1      -8.365   1.387 -34.648  1.00  0.00    -0.342 N 
HETATM    2  C   UNL     1      -8.403   2.716 -34.283  1.00  0.00     0.320 C 
HETATM    3  N   UNL     1      -9.683   3.210 -34.409  1.00  0.00    -0.309 N 
HETATM    4  O   UNL     1      -7.403   3.348 -33.972  1.00  0.00    -0.247 OA
HETATM    5  H   UNL     1      -9.214   0.848 -34.565  1.00  0.00     0.164 HD
HETATM    6  H   UNL     1     -10.284   2.663 -35.009  1.00  0.00     0.170 HD
ENDROOT
BRANCH   3   7
HETATM    7  C   UNL     1     -10.095   4.534 -34.160  1.00  0.00     0.038 A 
HETATM    8  C   UNL     1     -10.099   5.418 -35.250  1.00  0.00     0.059 A 
HETATM    9  C   UNL     1     -10.441   6.762 -35.085  1.00  0.00     0.037 A 
HETATM   10  C   UNL     1     -10.838   7.205 -33.817  1.00  0.00     0.029 A 
HETATM   11  C   UNL     1     -10.866   6.324 -32.734  1.00  0.00     0.004 A 
HETATM   12  C   UNL     1     -10.486   4.992 -32.904  1.00  0.00     0.029 A 
BRANCH   9  13
HETATM   13  N   UNL     1     -10.377   7.727 -36.115  1.00  0.00    -0.323 N 
HETATM   14  C   UNL     1     -11.425   8.213 -36.881  1.00  0.00     0.258 C 
HETATM   15  O   UNL     1     -12.609   7.941 -36.717  1.00  0.00    -0.267 OA
HETATM   16  H   UNL     1      -9.451   8.055 -36.338  1.00  0.00     0.169 HD
BRANCH  14  17
HETATM   17  C   UNL     1     -11.032   9.108 -37.968  1.00  0.00     0.056 A 
HETATM   18  C   UNL     1      -9.807   9.699 -38.212  1.00  0.00     0.158 A 
HETATM   19  O   UNL     1      -9.844  10.455 -39.341  1.00  0.00    -0.334 OA
HETATM   20  C   UNL     1     -11.100  10.358 -39.842  1.00  0.00     0.142 A 
HETATM   21  C   UNL     1     -11.868   9.548 -39.041  1.00  0.00     0.043 A 
ENDBRANCH  14  17
ENDBRANCH   9  13
ENDBRANCH   3   7
BRANCH   1  22
HETATM   22  C   UNL     1      -7.116   0.686 -34.899  1.00  0.00     0.138 C 
BRANCH  22  23
HETATM   23  C   UNL     1      -6.580  -0.073 -33.644  1.00  0.00    -0.004 C 
HETATM   24  C   UNL     1      -7.675  -0.186 -32.555  1.00  0.00     0.021 C 
HETATM   25  C   UNL     1      -5.422   0.752 -33.028  1.00  0.00     0.021 C 
BRANCH  23  26
HETATM   26  C   UNL     1      -6.147  -1.492 -34.063  1.00  0.00    -0.046 A 
HETATM   27  C   UNL     1      -7.109  -2.432 -34.472  1.00  0.00     0.027 A 
HETATM   28  C   UNL     1      -6.709  -3.712 -34.832  1.00  0.00     0.116 A 
HETATM   29  N   UNL     1      -5.428  -4.129 -34.819  1.00  0.00    -0.273 NA
HETATM   30  C   UNL     1      -4.511  -3.224 -34.427  1.00  0.00     0.116 A 
HETATM   31  C   UNL     1      -4.814  -1.921 -34.051  1.00  0.00     0.027 A 
ENDBRANCH  23  26
ENDBRANCH  22  23
ENDBRANCH   1  22
TORSDOF 6
ENDMDL
MODEL 9
REMARK VINA RESULT:      -7.6      2.506      3.807
REMARK  6 active torsions:
REMARK  status: ('A' for Active; 'I' for Inactive)
REMARK    1  A    between atoms: C_2  and  C_3 
REMARK    2  A    between atoms: C_2  and  C_9 
REMARK    3  A    between atoms: C_9  and  N_10 
REMARK       I    between atoms: N_10  and  C_11 
REMARK       I    between atoms: C_11  and  N_12 
REMARK    4  A    between atoms: N_12  and  C_13 
REMARK    5  A    between atoms: C_15  and  N_16 
REMARK       I    between atoms: N_16  and  C_17 
REMARK    6  A    between atoms: C_17  and  C_18 
ROOT
HETATM    1  N   UNL     1      -6.004   2.582 -32.863  1.00  0.00    -0.342 N 
HETATM    2  C   UNL     1      -5.276   3.729 -33.090  1.00  0.00     0.320 C 
HETATM    3  N   UNL     1      -3.926   3.459 -33.029  1.00  0.00    -0.309 N 
HETATM    4  O   UNL     1      -5.795   4.826 -33.242  1.00  0.00    -0.247 OA
HETATM    5  H   UNL     1      -5.572   1.695 -33.077  1.00  0.00     0.164 HD
HETATM    6  H   UNL     1      -3.693   2.604 -32.545  1.00  0.00     0.170 HD
ENDROOT
BRANCH   3   7
HETATM    7  C   UNL     1      -2.881   4.392 -33.176  1.00  0.00     0.038 A 
HETATM    8  C   UNL     1      -2.247   4.832 -32.004  1.00  0.00     0.059 A 
HETATM    9  C   UNL     1      -1.238   5.796 -32.050  1.00  0.00     0.037 A 
HETATM   10  C   UNL     1      -0.824   6.278 -33.297  1.00  0.00     0.029 A 
HETATM   11  C   UNL     1      -1.429   5.822 -34.471  1.00  0.00     0.004 A 
HETATM   12  C   UNL     1      -2.462   4.887 -34.409  1.00  0.00     0.029 A 
BRANCH   9  13
HETATM   13  N   UNL     1      -0.622   6.353 -30.906  1.00  0.00    -0.323 N 
HETATM   14  C   UNL     1       0.138   5.694 -29.953  1.00  0.00     0.258 C 
HETATM   15  O   UNL     1       0.478   4.517 -30.006  1.00  0.00    -0.267 OA
HETATM   16  H   UNL     1      -0.805   7.332 -30.754  1.00  0.00     0.169 HD
BRANCH  14  17
HETATM   17  C   UNL     1       0.531   6.509 -28.805  1.00  0.00     0.056 A 
HETATM   18  C   UNL     1       0.747   6.125 -27.495  1.00  0.00     0.158 A 
HETATM   19  O   UNL     1       1.117   7.185 -26.729  1.00  0.00    -0.334 OA
HETATM   20  C   UNL     1       1.148   8.270 -27.541  1.00  0.00     0.142 A 
HETATM   21  C   UNL     1       0.796   7.914 -28.820  1.00  0.00     0.043 A 
ENDBRANCH  14  17
ENDBRANCH   9  13
ENDBRANCH   3   7
BRANCH   1  22
HETATM   22  C   UNL     1      -7.429   2.610 -32.573  1.00  0.00     0.138 C 
BRANCH  22  23
HETATM   23  C   UNL     1      -8.204   1.413 -33.211  1.00  0.00    -0.004 C 
HETATM   24  C   UNL     1      -8.020   0.124 -32.374  1.00  0.00     0.021 C 
HETATM   25  C   UNL     1      -7.601   1.127 -34.610  1.00  0.00     0.021 C 
BRANCH  23  26
HETATM   26  C   UNL     1      -9.705   1.760 -33.266  1.00  0.00    -0.046 A 
HETATM   27  C   UNL     1     -10.143   3.057 -32.942  1.00  0.00     0.027 A 
HETATM   28  C   UNL     1     -11.498   3.353 -32.978  1.00  0.00     0.116 A 
HETATM   29  N   UNL     1     -12.452   2.464 -33.314  1.00  0.00    -0.273 NA
HETATM   30  C   UNL     1     -12.027   1.224 -33.625  1.00  0.00     0.116 A 
HETATM   31  C   UNL     1     -10.694   0.833 -33.619  1.00  0.00     0.027 A 
ENDBRANCH  23  26
ENDBRANCH  22  23
ENDBRANCH   1  22
TORSDOF 6
ENDMDL
MODEL 10
REMARK VINA RESULT:      -7.5      4.989      8.925
REMARK  6 active torsions:
REMARK  status: ('A' for Active; 'I' for Inactive)
REMARK    1  A    between atoms: C_2  and  C_3 
REMARK    2  A    between atoms: C_2  and  C_9 
REMARK    3  A    between atoms: C_9  and  N_10 
REMARK       I    between atoms: N_10  and  C_11 
REMARK       I    between atoms: C_11  and  N_12 
REMARK    4  A    between atoms: N_12  and  C_13 
REMARK    5  A    between atoms: C_15  and  N_16 
REMARK       I    between atoms: N_16  and  C_17 
REMARK    6  A    between atoms: C_17  and  C_18 
ROOT
HETATM    1  N   UNL     1      -9.235   3.979 -31.973  1.00  0.00    -0.342 N 
HETATM    2  C   UNL     1      -8.117   3.474 -32.600  1.00  0.00     0.320 C 
HETATM    3  N   UNL     1      -7.319   2.809 -31.694  1.00  0.00    -0.309 N 
HETATM    4  O   UNL     1      -7.868   3.677 -33.781  1.00  0.00    -0.247 OA
HETATM    5  H   UNL     1      -9.556   3.520 -31.133  1.00  0.00     0.164 HD
HETATM    6  H   UNL     1      -7.493   3.051 -30.729  1.00  0.00     0.170 HD
ENDROOT
BRANCH   3   7
HETATM    7  C   UNL     1      -6.080   2.196 -31.965  1.00  0.00     0.038 A 
HETATM    8  C   UNL     1      -6.113   0.913 -32.535  1.00  0.00     0.059 A 
HETATM    9  C   UNL     1      -4.934   0.208 -32.787  1.00  0.00     0.037 A 
HETATM   10  C   UNL     1      -3.708   0.826 -32.514  1.00  0.00     0.029 A 
HETATM   11  C   UNL     1      -3.667   2.114 -31.975  1.00  0.00     0.004 A 
HETATM   12  C   UNL     1      -4.852   2.794 -31.693  1.00  0.00     0.029 A 
BRANCH   9  13
HETATM   13  N   UNL     1      -4.895  -1.120 -33.271  1.00  0.00    -0.323 N 
HETATM   14  C   UNL     1      -5.669  -1.673 -34.278  1.00  0.00     0.258 C 
HETATM   15  O   UNL     1      -6.462  -1.058 -34.982  1.00  0.00    -0.267 OA
HETATM   16  H   UNL     1      -4.259  -1.734 -32.787  1.00  0.00     0.169 HD
BRANCH  14  17
HETATM   17  C   UNL     1      -5.499  -3.112 -34.467  1.00  0.00     0.056 A 
HETATM   18  C   UNL     1      -6.365  -4.026 -35.038  1.00  0.00     0.158 A 
HETATM   19  O   UNL     1      -5.828  -5.274 -35.040  1.00  0.00    -0.334 OA
HETATM   20  C   UNL     1      -4.602  -5.180 -34.470  1.00  0.00     0.142 A 
HETATM   21  C   UNL     1      -4.351  -3.881 -34.099  1.00  0.00     0.043 A 
ENDBRANCH  14  17
ENDBRANCH   9  13
ENDBRANCH   3   7
BRANCH   1  22
HETATM   22  C   UNL     1     -10.098   4.967 -32.600  1.00  0.00     0.138 C 
BRANCH  22  23
HETATM   23  C   UNL     1     -11.613   4.599 -32.505  1.00  0.00    -0.004 C 
HETATM   24  C   UNL     1     -12.499   5.863 -32.626  1.00  0.00     0.021 C 
HETATM   25  C   UNL     1     -11.885   3.996 -31.104  1.00  0.00     0.021 C 
BRANCH  23  26
HETATM   26  C   UNL     1     -11.967   3.632 -33.653  1.00  0.00    -0.046 A 
HETATM   27  C   UNL     1     -12.034   4.101 -34.976  1.00  0.00     0.027 A 
HETATM   28  C   UNL     1     -12.370   3.225 -35.999  1.00  0.00     0.116 A 
HETATM   29  N   UNL     1     -12.641   1.920 -35.810  1.00  0.00    -0.273 NA
HETATM   30  C   UNL     1     -12.574   1.476 -34.540  1.00  0.00     0.116 A 
HETATM   31  C   UNL     1     -12.246   2.274 -33.452  1.00  0.00     0.027 A 
ENDBRANCH  23  26
ENDBRANCH  22  23
ENDBRANCH   1  22
TORSDOF 6
ENDMDL
