MODEL 1
REMARK VINA RESULT:      -8.5      0.000      0.000
REMARK  6 active torsions:
REMARK  status: ('A' for Active; 'I' for Inactive)
REMARK       I    between atoms: C_2  and  N_3 
REMARK    1  A    between atoms: N_3  and  C_4 
REMARK    2  A    between atoms: C_4  and  C_5 
REMARK    3  A    between atoms: C_4  and  C_11 
REMARK    4  A    between atoms: C_11  and  C_12 
REMARK       I    between atoms: C_12  and  N_13 
REMARK    5  A    between atoms: N_13  and  C_14 
REMARK    6  A    between atoms: C_16  and  C_17 
ROOT
HETATM    1  C   UNL     1      -9.464   0.748 -33.550  1.00  0.00     0.224 C 
HETATM    2  N   UNL     1      -8.247   0.864 -34.173  1.00  0.00    -0.327 N 
HETATM    3  O   UNL     1      -9.696   0.075 -32.545  1.00  0.00    -0.273 OA
HETATM    4  H   UNL     1      -8.172   1.558 -34.921  1.00  0.00     0.169 HD
ENDROOT
BRANCH   1   5
HETATM    5  C   UNL     1     -10.612   1.473 -34.236  1.00  0.00     0.133 C 
BRANCH   5   6
HETATM    6  C   UNL     1     -11.525   2.397 -33.406  1.00  0.00     0.126 C 
BRANCH   6   7
HETATM    7  N   UNL     1     -10.921   2.789 -32.126  1.00  0.00    -0.352 N 
HETATM    8  C   UNL     1     -10.399   4.024 -31.843  1.00  0.00     0.214 C 
HETATM    9  C   UNL     1      -9.923   4.202 -30.427  1.00  0.00     0.117 C 
HETATM   10  O   UNL     1     -10.318   4.927 -32.669  1.00  0.00    -0.274 OA
HETATM   11  H   UNL     1     -10.878   2.073 -31.411  1.00  0.00     0.163 HD
ENDBRANCH   6   7
BRANCH   6  12
HETATM   12  C   UNL     1     -13.010   2.070 -33.351  1.00  0.00    -0.035 A 
HETATM   13  C   UNL     1     -13.899   2.701 -32.467  1.00  0.00     0.009 A 
HETATM   14  C   UNL     1     -15.264   2.396 -32.471  1.00  0.00     0.001 A 
HETATM   15  C   UNL     1     -15.767   1.458 -33.366  1.00  0.00     0.000 A 
HETATM   16  C   UNL     1     -14.908   0.827 -34.259  1.00  0.00     0.001 A 
HETATM   17  C   UNL     1     -13.545   1.134 -34.257  1.00  0.00     0.009 A 
ENDBRANCH   6  12
ENDBRANCH   5   6
ENDBRANCH   1   5
BRANCH   2  18
HETATM   18  C   UNL     1      -7.063   0.154 -33.891  1.00  0.00     0.035 A 
HETATM   19  C   UNL     1      -6.881  -1.199 -34.191  1.00  0.00     0.042 A 
HETATM   20  C   UNL     1      -5.647  -1.831 -33.962  1.00  0.00    -0.021 A 
HETATM   21  C   UNL     1      -4.605  -1.090 -33.387  1.00  0.00     0.012 A 
HETATM   22  C   UNL     1      -4.783   0.258 -33.074  1.00  0.00     0.003 A 
HETATM   23  C   UNL     1      -6.002   0.879 -33.341  1.00  0.00     0.029 A 
BRANCH  20  24
HETATM   24  C   UNL     1      -5.423  -3.213 -34.357  1.00  0.00     0.010 A 
HETATM   25  C   UNL     1      -6.259  -4.124 -35.047  1.00  0.00     0.152 A 
HETATM   26  N   UNL     1      -5.700  -5.326 -35.209  1.00  0.00    -0.187 NA
HETATM   27  N   UNL     1      -4.502  -5.193 -34.618  1.00  0.00    -0.289 N 
HETATM   28  H   UNL     1      -3.879  -5.993 -34.604  1.00  0.00     0.188 HD
HETATM   29  C   UNL     1      -4.286  -3.950 -34.099  1.00  0.00     0.123 A 
ENDBRANCH  20  24
ENDBRANCH   2  18
TORSDOF 6
ENDMDL
MODEL 2
REMARK VINA RESULT:      -8.4      2.242      8.481
REMARK  6 active torsions:
REMARK  status: ('A' for Active; 'I' for Inactive)
REMARK       I    between atoms: C_2  and  N_3 
REMARK    1  A    between atoms: N_3  and  C_4 
REMARK    2  A    between atoms: C_4  and  C_5 
REMARK    3  A    between atoms: C_4  and  C_11 
REMARK    4  A    between atoms: C_11  and  C_12 
REMARK       I    between atoms: C_12  and  N_13 
REMARK    5  A    between atoms: N_13  and  C_14 
REMARK    6  A    between atoms: C_16  and  C_17 
ROOT
HETATM    1  C   UNL     1      -8.422   0.335 -34.071  1.00  0.00     0.224 C 
HETATM    2  N   UNL     1      -8.999   1.383 -34.744  1.00  0.00    -0.327 N 
HETATM    3  O   UNL     1      -8.792  -0.112 -32.985  1.00  0.00    -0.273 OA
HETATM    4  H   UNL     1      -8.668   1.564 -35.694  1.00  0.00     0.169 HD
ENDROOT
BRANCH   1   5
HETATM    5  C   UNL     1      -7.179  -0.245 -34.726  1.00  0.00     0.133 C 
BRANCH   5   6
HETATM    6  C   UNL     1      -6.112  -0.928 -33.848  1.00  0.00     0.126 C 
BRANCH   6   7
HETATM    7  N   UNL     1      -4.987  -0.038 -33.529  1.00  0.00    -0.352 N 
HETATM    8  C   UNL     1      -4.884   0.733 -32.401  1.00  0.00     0.214 C 
HETATM    9  C   UNL     1      -3.590   1.486 -32.264  1.00  0.00     0.117 C 
HETATM   10  O   UNL     1      -5.771   0.814 -31.557  1.00  0.00    -0.274 OA
HETATM   11  H   UNL     1      -4.244   0.012 -34.215  1.00  0.00     0.163 HD
ENDBRANCH   6   7
BRANCH   6  12
HETATM   12  C   UNL     1      -5.732  -2.365 -34.175  1.00  0.00    -0.035 A 
HETATM   13  C   UNL     1      -4.457  -2.895 -33.918  1.00  0.00     0.009 A 
HETATM   14  C   UNL     1      -4.158  -4.231 -34.203  1.00  0.00     0.001 A 
HETATM   15  C   UNL     1      -5.130  -5.065 -34.743  1.00  0.00     0.000 A 
HETATM   16  C   UNL     1      -6.404  -4.566 -34.997  1.00  0.00     0.001 A 
HETATM   17  C   UNL     1      -6.704  -3.232 -34.709  1.00  0.00     0.009 A 
ENDBRANCH   6  12
ENDBRANCH   5   6
ENDBRANCH   1   5
BRANCH   2  18
HETATM   18  C   UNL     1     -10.023   2.239 -34.292  1.00  0.00     0.035 A 
HETATM   19  C   UNL     1     -11.364   1.856 -34.188  1.00  0.00     0.042 A 
HETATM   20  C   UNL     1     -12.325   2.730 -33.651  1.00  0.00    -0.021 A 
HETATM   21  C   UNL     1     -11.926   4.013 -33.255  1.00  0.00     0.012 A 
HETATM   22  C   UNL     1     -10.592   4.406 -33.367  1.00  0.00     0.003 A 
HETATM   23  C   UNL     1      -9.644   3.516 -33.868  1.00  0.00     0.029 A 
BRANCH  20  24
HETATM   24  C   UNL     1     -13.703   2.305 -33.455  1.00  0.00     0.010 A 
HETATM   25  C   UNL     1     -14.650   2.665 -32.466  1.00  0.00     0.152 A 
HETATM   26  N   UNL     1     -15.821   2.040 -32.612  1.00  0.00    -0.187 NA
HETATM   27  N   UNL     1     -15.628   1.270 -33.694  1.00  0.00    -0.289 N 
HETATM   28  H   UNL     1     -16.392   0.680 -34.009  1.00  0.00     0.188 HD
HETATM   29  C   UNL     1     -14.383   1.395 -34.237  1.00  0.00     0.123 A 
ENDBRANCH  20  24
ENDBRANCH   2  18
TORSDOF 6
ENDMDL
MODEL 3
REMARK VINA RESULT:      -8.4      5.451      8.778
REMARK  6 active torsions:
REMARK  status: ('A' for Active; 'I' for Inactive)
REMARK       I    between atoms: C_2  and  N_3 
REMARK    1  A    between atoms: N_3  and  C_4 
REMARK    2  A    between atoms: C_4  and  C_5 
REMARK    3  A    between atoms: C_4  and  C_11 
REMARK    4  A    between atoms: C_11  and  C_12 
REMARK       I    between atoms: C_12  and  N_13 
REMARK    5  A    between atoms: N_13  and  C_14 
REMARK    6  A    between atoms: C_16  and  C_17 
ROOT
HETATM    1  C   UNL     1      -3.828   1.429 -31.636  1.00  0.00     0.224 C 
HETATM    2  N   UNL     1      -4.016   2.711 -32.088  1.00  0.00    -0.327 N 
HETATM    3  O   UNL     1      -2.769   0.964 -31.213  1.00  0.00    -0.273 OA
HETATM    4  H   UNL     1      -4.978   2.996 -32.289  1.00  0.00     0.169 HD
ENDROOT
BRANCH   1   5
HETATM    5  C   UNL     1      -5.041   0.519 -31.753  1.00  0.00     0.133 C 
BRANCH   5   6
HETATM    6  C   UNL     1      -5.691   0.301 -33.133  1.00  0.00     0.126 C 
BRANCH   6   7
HETATM    7  N   UNL     1      -6.989   0.977 -33.259  1.00  0.00    -0.352 N 
HETATM    8  C   UNL     1      -7.182   2.226 -33.790  1.00  0.00     0.214 C 
HETATM    9  C   UNL     1      -8.619   2.656 -33.893  1.00  0.00     0.117 C 
HETATM   10  O   UNL     1      -6.264   2.950 -34.159  1.00  0.00    -0.274 OA
HETATM   11  H   UNL     1      -7.794   0.476 -32.906  1.00  0.00     0.163 HD
ENDBRANCH   6   7
BRANCH   6  12
HETATM   12  C   UNL     1      -5.621  -1.091 -33.743  1.00  0.00    -0.035 A 
HETATM   13  C   UNL     1      -4.424  -1.815 -33.856  1.00  0.00     0.009 A 
HETATM   14  C   UNL     1      -4.407  -3.107 -34.392  1.00  0.00     0.001 A 
HETATM   15  C   UNL     1      -5.589  -3.701 -34.820  1.00  0.00     0.000 A 
HETATM   16  C   UNL     1      -6.790  -3.008 -34.708  1.00  0.00     0.001 A 
HETATM   17  C   UNL     1      -6.807  -1.719 -34.168  1.00  0.00     0.009 A 
ENDBRANCH   6  12
ENDBRANCH   5   6
ENDBRANCH   1   5
BRANCH   2  18
HETATM   18  C   UNL     1      -3.040   3.706 -32.291  1.00  0.00     0.035 A 
HETATM   19  C   UNL     1      -2.385   4.373 -31.251  1.00  0.00     0.042 A 
HETATM   20  C   UNL     1      -1.360   5.297 -31.518  1.00  0.00    -0.021 A 
HETATM   21  C   UNL     1      -1.029   5.572 -32.851  1.00  0.00     0.012 A 
HETATM   22  C   UNL     1      -1.687   4.920 -33.894  1.00  0.00     0.003 A 
HETATM   23  C   UNL     1      -2.675   3.980 -33.613  1.00  0.00     0.029 A 
BRANCH  20  24
HETATM   24  C   UNL     1      -0.612   5.925 -30.439  1.00  0.00     0.010 A 
HETATM   25  C   UNL     1      -0.565   7.274 -30.010  1.00  0.00     0.152 A 
HETATM   26  N   UNL     1       0.265   7.464 -28.981  1.00  0.00    -0.187 NA
HETATM   27  N   UNL     1       0.758   6.238 -28.748  1.00  0.00    -0.289 N 
HETATM   28  H   UNL     1       1.433   6.123 -27.999  1.00  0.00     0.188 HD
HETATM   29  C   UNL     1       0.263   5.284 -29.588  1.00  0.00     0.123 A 
ENDBRANCH  20  24
ENDBRANCH   2  18
TORSDOF 6
ENDMDL
MODEL 4
REMARK VINA RESULT:      -8.4      4.263      7.120
REMARK  6 active torsions:
REMARK  status: ('A' for Active; 'I' for Inactive)
REMARK       I    between atoms: C_2  and  N_3 
REMARK    1  A    between atoms: N_3  and  C_4 
REMARK    2  A    between atoms: C_4  and  C_5 
REMARK    3  A    between atoms: C_4  and  C_11 
REMARK    4  A    between atoms: C_11  and  C_12 
REMARK       I    between atoms: C_12  and  N_13 
REMARK    5  A    between atoms: N_13  and  C_14 
REMARK    6  A    between atoms: C_16  and  C_17 
ROOT
HETATM    1  C   UNL     1      -5.240   2.284 -31.639  1.00  0.00     0.224 C 
HETATM    2  N   UNL     1      -4.842   1.636 -32.782  1.00  0.00    -0.327 N 
HETATM    3  O   UNL     1      -6.306   2.107 -31.047  1.00  0.00    -0.273 OA
HETATM    4  H   UNL     1      -3.879   1.789 -33.091  1.00  0.00     0.169 HD
ENDROOT
BRANCH   1   5
HETATM    5  C   UNL     1      -4.283   3.354 -31.137  1.00  0.00     0.133 C 
BRANCH   5   6
HETATM    6  C   UNL     1      -4.475   4.813 -31.595  1.00  0.00     0.126 C 
BRANCH   6   7
HETATM    7  N   UNL     1      -5.818   5.065 -32.133  1.00  0.00    -0.352 N 
HETATM    8  C   UNL     1      -6.199   4.868 -33.435  1.00  0.00     0.214 C 
HETATM    9  C   UNL     1      -7.656   5.112 -33.713  1.00  0.00     0.117 C 
HETATM   10  O   UNL     1      -5.423   4.520 -34.318  1.00  0.00    -0.274 OA
HETATM   11  H   UNL     1      -6.503   5.429 -31.482  1.00  0.00     0.163 HD
ENDBRANCH   6   7
BRANCH   6  12
HETATM   12  C   UNL     1      -3.336   5.479 -32.352  1.00  0.00    -0.035 A 
HETATM   13  C   UNL     1      -3.194   6.873 -32.447  1.00  0.00     0.009 A 
HETATM   14  C   UNL     1      -2.113   7.446 -33.124  1.00  0.00     0.001 A 
HETATM   15  C   UNL     1      -1.148   6.636 -33.713  1.00  0.00     0.000 A 
HETATM   16  C   UNL     1      -1.260   5.252 -33.622  1.00  0.00     0.001 A 
HETATM   17  C   UNL     1      -2.339   4.680 -32.943  1.00  0.00     0.009 A 
ENDBRANCH   6  12
ENDBRANCH   5   6
ENDBRANCH   1   5
BRANCH   2  18
HETATM   18  C   UNL     1      -5.596   0.755 -33.581  1.00  0.00     0.035 A 
HETATM   19  C   UNL     1      -5.280  -0.596 -33.757  1.00  0.00     0.042 A 
HETATM   20  C   UNL     1      -6.120  -1.443 -34.500  1.00  0.00    -0.021 A 
HETATM   21  C   UNL     1      -7.265  -0.903 -35.100  1.00  0.00     0.012 A 
HETATM   22  C   UNL     1      -7.581   0.446 -34.939  1.00  0.00     0.003 A 
HETATM   23  C   UNL     1      -6.758   1.265 -34.169  1.00  0.00     0.029 A 
BRANCH  20  24
HETATM   24  C   UNL     1      -5.845  -2.868 -34.610  1.00  0.00     0.010 A 
HETATM   25  C   UNL     1      -6.667  -3.938 -35.042  1.00  0.00     0.152 A 
HETATM   26  N   UNL     1      -6.054  -5.123 -34.983  1.00  0.00    -0.187 NA
HETATM   27  N   UNL     1      -4.837  -4.819 -34.506  1.00  0.00    -0.289 N 
HETATM   28  H   UNL     1      -4.173  -5.573 -34.362  1.00  0.00     0.188 HD
HETATM   29  C   UNL     1      -4.660  -3.487 -34.272  1.00  0.00     0.123 A 
ENDBRANCH  20  24
ENDBRANCH   2  18
TORSDOF 6
ENDMDL
MODEL 5
REMARK VINA RESULT:      -8.1      2.652      8.213
REMARK  6 active torsions:
REMARK  status: ('A' for Active; 'I' for Inactive)
REMARK       I    between atoms: C_2  and  N_3 
REMARK    1  A    between atoms: N_3  and  C_4 
REMARK    2  A    between atoms: C_4  and  C_5 
REMARK    3  A    between atoms: C_4  and  C_11 
REMARK    4  A    between atoms: C_11  and  C_12 
REMARK       I    between atoms: C_12  and  N_13 
REMARK    5  A    between atoms: N_13  and  C_14 
REMARK    6  A    between atoms: C_16  and  C_17 
ROOT
HETATM    1  C   UNL     1      -7.876   1.094 -31.524  1.00  0.00     0.224 C 
HETATM    2  N   UNL     1      -8.806   0.631 -32.421  1.00  0.00    -0.327 N 
HETATM    3  O   UNL     1      -7.790   2.251 -31.111  1.00  0.00    -0.273 OA
HETATM    4  H   UNL     1      -8.838  -0.380 -32.577  1.00  0.00     0.169 HD
ENDROOT
BRANCH   1   5
HETATM    5  C   UNL     1      -6.838   0.073 -31.086  1.00  0.00     0.133 C 
BRANCH   5   6
HETATM    6  C   UNL     1      -5.545  -0.091 -31.908  1.00  0.00     0.126 C 
BRANCH   6   7
HETATM    7  N   UNL     1      -4.942   1.197 -32.276  1.00  0.00    -0.352 N 
HETATM    8  C   UNL     1      -3.685   1.613 -31.920  1.00  0.00     0.214 C 
HETATM    9  C   UNL     1      -3.267   2.935 -32.502  1.00  0.00     0.117 C 
HETATM   10  O   UNL     1      -2.946   0.969 -31.185  1.00  0.00    -0.274 OA
HETATM   11  H   UNL     1      -5.519   1.825 -32.822  1.00  0.00     0.163 HD
ENDBRANCH   6   7
BRANCH   6  12
HETATM   12  C   UNL     1      -5.520  -1.155 -32.995  1.00  0.00    -0.035 A 
HETATM   13  C   UNL     1      -6.620  -1.424 -33.825  1.00  0.00     0.009 A 
HETATM   14  C   UNL     1      -6.545  -2.387 -34.836  1.00  0.00     0.001 A 
HETATM   15  C   UNL     1      -5.366  -3.095 -35.041  1.00  0.00     0.000 A 
HETATM   16  C   UNL     1      -4.259  -2.839 -34.238  1.00  0.00     0.001 A 
HETATM   17  C   UNL     1      -4.333  -1.874 -33.230  1.00  0.00     0.009 A 
ENDBRANCH   6  12
ENDBRANCH   5   6
ENDBRANCH   1   5
BRANCH   2  18
HETATM   18  C   UNL     1      -9.751   1.381 -33.148  1.00  0.00     0.035 A 
HETATM   19  C   UNL     1     -11.129   1.147 -33.100  1.00  0.00     0.042 A 
HETATM   20  C   UNL     1     -12.028   1.983 -33.784  1.00  0.00    -0.021 A 
HETATM   21  C   UNL     1     -11.518   3.038 -34.552  1.00  0.00     0.012 A 
HETATM   22  C   UNL     1     -10.144   3.271 -34.614  1.00  0.00     0.003 A 
HETATM   23  C   UNL     1      -9.268   2.455 -33.902  1.00  0.00     0.029 A 
BRANCH  20  24
HETATM   24  C   UNL     1     -13.467   1.800 -33.663  1.00  0.00     0.010 A 
HETATM   25  C   UNL     1     -14.372   2.229 -32.662  1.00  0.00     0.152 A 
HETATM   26  N   UNL     1     -15.630   1.847 -32.898  1.00  0.00    -0.187 NA
HETATM   27  N   UNL     1     -15.536   1.165 -34.050  1.00  0.00    -0.289 N 
HETATM   28  H   UNL     1     -16.380   0.758 -34.441  1.00  0.00     0.188 HD
HETATM   29  C   UNL     1     -14.267   1.112 -34.550  1.00  0.00     0.123 A 
ENDBRANCH  20  24
ENDBRANCH   2  18
TORSDOF 6
ENDMDL
MODEL 6
REMARK VINA RESULT:      -8.0      4.646      8.330
REMARK  6 active torsions:
REMARK  status: ('A' for Active; 'I' for Inactive)
REMARK       I    between atoms: C_2  and  N_3 
REMARK    1  A    between atoms: N_3  and  C_4 
REMARK    2  A    between atoms: C_4  and  C_5 
REMARK    3  A    between atoms: C_4  and  C_11 
REMARK    4  A    between atoms: C_11  and  C_12 
REMARK       I    between atoms: C_12  and  N_13 
REMARK    5  A    between atoms: N_13  and  C_14 
REMARK    6  A    between atoms: C_16  and  C_17 
ROOT
HETATM    1  C   UNL     1      -4.711   0.998 -32.308  1.00  0.00     0.224 C 
HETATM    2  N   UNL     1      -5.277   2.248 -32.335  1.00  0.00    -0.327 N 
HETATM    3  O   UNL     1      -3.512   0.748 -32.442  1.00  0.00    -0.273 OA
HETATM    4  H   UNL     1      -6.265   2.316 -32.083  1.00  0.00     0.169 HD
ENDROOT
BRANCH   1   5
HETATM    5  C   UNL     1      -5.695  -0.153 -32.170  1.00  0.00     0.133 C 
BRANCH   5   6
HETATM    6  C   UNL     1      -6.431  -0.672 -33.421  1.00  0.00     0.126 C 
BRANCH   6   7
HETATM    7  N   UNL     1      -7.863  -0.344 -33.412  1.00  0.00    -0.352 N 
HETATM    8  C   UNL     1      -8.406   0.839 -33.843  1.00  0.00     0.214 C 
HETATM    9  C   UNL     1      -9.909   0.892 -33.817  1.00  0.00     0.117 C 
HETATM   10  O   UNL     1      -7.733   1.790 -34.225  1.00  0.00    -0.274 OA
HETATM   11  H   UNL     1      -8.484  -1.050 -33.038  1.00  0.00     0.163 HD
ENDBRANCH   6   7
BRANCH   6  12
HETATM   12  C   UNL     1      -6.087  -2.066 -33.925  1.00  0.00    -0.035 A 
HETATM   13  C   UNL     1      -7.035  -2.924 -34.503  1.00  0.00     0.009 A 
HETATM   14  C   UNL     1      -6.671  -4.186 -34.985  1.00  0.00     0.001 A 
HETATM   15  C   UNL     1      -5.349  -4.609 -34.904  1.00  0.00     0.000 A 
HETATM   16  C   UNL     1      -4.389  -3.772 -34.345  1.00  0.00     0.001 A 
HETATM   17  C   UNL     1      -4.753  -2.511 -33.867  1.00  0.00     0.009 A 
ENDBRANCH   6  12
ENDBRANCH   5   6
ENDBRANCH   1   5
BRANCH   2  18
HETATM   18  C   UNL     1      -4.652   3.471 -32.649  1.00  0.00     0.035 A 
HETATM   19  C   UNL     1      -3.581   4.002 -31.924  1.00  0.00     0.042 A 
HETATM   20  C   UNL     1      -2.946   5.186 -32.338  1.00  0.00    -0.021 A 
HETATM   21  C   UNL     1      -3.429   5.852 -33.472  1.00  0.00     0.012 A 
HETATM   22  C   UNL     1      -4.505   5.334 -34.193  1.00  0.00     0.003 A 
HETATM   23  C   UNL     1      -5.101   4.140 -33.792  1.00  0.00     0.029 A 
BRANCH  20  24
HETATM   24  C   UNL     1      -1.773   5.695 -31.641  1.00  0.00     0.010 A 
HETATM   25  C   UNL     1      -0.414   5.307 -31.716  1.00  0.00     0.152 A 
HETATM   26  N   UNL     1       0.374   6.009 -30.897  1.00  0.00    -0.187 NA
HETATM   27  N   UNL     1      -0.479   6.846 -30.287  1.00  0.00    -0.289 N 
HETATM   28  H   UNL     1      -0.111   7.492 -29.597  1.00  0.00     0.188 HD
HETATM   29  C   UNL     1      -1.771   6.702 -30.700  1.00  0.00     0.123 A 
ENDBRANCH  20  24
ENDBRANCH   2  18
TORSDOF 6
ENDMDL
MODEL 7
REMARK VINA RESULT:      -7.9      4.330      8.080
REMARK  6 active torsions:
REMARK  status: ('A' for Active; 'I' for Inactive)
REMARK       I    between atoms: C_2  and  N_3 
REMARK    1  A    between atoms: N_3  and  C_4 
REMARK    2  A    between atoms: C_4  and  C_5 
REMARK    3  A    between atoms: C_4  and  C_11 
REMARK    4  A    between atoms: C_11  and  C_12 
REMARK       I    between atoms: C_12  and  N_13 
REMARK    5  A    between atoms: N_13  and  C_14 
REMARK    6  A    between atoms: C_16  and  C_17 
ROOT
HETATM    1  C   UNL     1      -4.993   0.909 -31.776  1.00  0.00     0.224 C 
HETATM    2  N   UNL     1      -5.515   2.046 -31.211  1.00  0.00    -0.327 N 
HETATM    3  O   UNL     1      -3.854   0.790 -32.231  1.00  0.00    -0.273 OA
HETATM    4  H   UNL     1      -6.430   1.962 -30.761  1.00  0.00     0.169 HD
ENDROOT
BRANCH   1   5
HETATM    5  C   UNL     1      -5.962  -0.256 -31.895  1.00  0.00     0.133 C 
BRANCH   5   6
HETATM    6  C   UNL     1      -6.499  -0.654 -33.285  1.00  0.00     0.126 C 
BRANCH   6   7
HETATM    7  N   UNL     1      -7.923  -0.333 -33.453  1.00  0.00    -0.352 N 
HETATM    8  C   UNL     1      -8.434   0.925 -33.641  1.00  0.00     0.214 C 
HETATM    9  C   UNL     1      -9.917   0.976 -33.882  1.00  0.00     0.117 C 
HETATM   10  O   UNL     1      -7.748   1.941 -33.618  1.00  0.00    -0.274 OA
HETATM   11  H   UNL     1      -8.568  -1.112 -33.408  1.00  0.00     0.163 HD
ENDBRANCH   6   7
BRANCH   6  12
HETATM   12  C   UNL     1      -6.060  -1.990 -33.864  1.00  0.00    -0.035 A 
HETATM   13  C   UNL     1      -4.734  -2.447 -33.810  1.00  0.00     0.009 A 
HETATM   14  C   UNL     1      -4.377  -3.697 -34.325  1.00  0.00     0.001 A 
HETATM   15  C   UNL     1      -5.342  -4.518 -34.897  1.00  0.00     0.000 A 
HETATM   16  C   UNL     1      -6.666  -4.093 -34.952  1.00  0.00     0.001 A 
HETATM   17  C   UNL     1      -7.022  -2.844 -34.435  1.00  0.00     0.009 A 
ENDBRANCH   6  12
ENDBRANCH   5   6
ENDBRANCH   1   5
BRANCH   2  18
HETATM   18  C   UNL     1      -4.931   3.326 -31.152  1.00  0.00     0.035 A 
HETATM   19  C   UNL     1      -3.964   3.779 -32.054  1.00  0.00     0.042 A 
HETATM   20  C   UNL     1      -3.480   5.098 -31.993  1.00  0.00    -0.021 A 
HETATM   21  C   UNL     1      -3.954   5.945 -30.983  1.00  0.00     0.012 A 
HETATM   22  C   UNL     1      -4.910   5.496 -30.072  1.00  0.00     0.003 A 
HETATM   23  C   UNL     1      -5.407   4.198 -30.168  1.00  0.00     0.029 A 
BRANCH  20  24
HETATM   24  C   UNL     1      -2.543   5.603 -32.985  1.00  0.00     0.010 A 
HETATM   25  C   UNL     1      -1.993   6.896 -33.163  1.00  0.00     0.152 A 
HETATM   26  N   UNL     1      -1.171   6.972 -34.213  1.00  0.00    -0.187 NA
HETATM   27  N   UNL     1      -1.195   5.729 -34.717  1.00  0.00    -0.289 N 
HETATM   28  H   UNL     1      -0.640   5.533 -35.545  1.00  0.00     0.188 HD
HETATM   29  C   UNL     1      -1.994   4.873 -34.018  1.00  0.00     0.123 A 
ENDBRANCH  20  24
ENDBRANCH   2  18
TORSDOF 6
ENDMDL
MODEL 8
REMARK VINA RESULT:      -7.8      5.774      8.493
REMARK  6 active torsions:
REMARK  status: ('A' for Active; 'I' for Inactive)
REMARK       I    between atoms: C_2  and  N_3 
REMARK    1  A    between atoms: N_3  and  C_4 
REMARK    2  A    between atoms: C_4  and  C_5 
REMARK    3  A    between atoms: C_4  and  C_11 
REMARK    4  A    between atoms: C_11  and  C_12 
REMARK       I    between atoms: C_12  and  N_13 
REMARK    5  A    between atoms: N_13  and  C_14 
REMARK    6  A    between atoms: C_16  and  C_17 
ROOT
HETATM    1  C   UNL     1      -5.149   4.812 -33.855  1.00  0.00     0.224 C 
HETATM    2  N   UNL     1      -3.793   4.612 -33.919  1.00  0.00    -0.327 N 
HETATM    3  O   UNL     1      -5.707   5.816 -33.413  1.00  0.00    -0.273 OA
HETATM    4  H   UNL     1      -3.468   3.785 -34.427  1.00  0.00     0.169 HD
ENDROOT
BRANCH   1   5
HETATM    5  C   UNL     1      -5.997   3.636 -34.314  1.00  0.00     0.133 C 
BRANCH   5   6
HETATM    6  C   UNL     1      -6.441   2.577 -33.285  1.00  0.00     0.126 C 
BRANCH   6   7
HETATM    7  N   UNL     1      -5.976   2.881 -31.925  1.00  0.00    -0.352 N 
HETATM    8  C   UNL     1      -6.743   3.434 -30.933  1.00  0.00     0.214 C 
HETATM    9  C   UNL     1      -6.059   3.559 -29.599  1.00  0.00     0.117 C 
HETATM   10  O   UNL     1      -7.900   3.804 -31.102  1.00  0.00    -0.274 OA
HETATM   11  H   UNL     1      -5.006   2.675 -31.725  1.00  0.00     0.163 HD
ENDBRANCH   6   7
BRANCH   6  12
HETATM   12  C   UNL     1      -6.361   1.113 -33.688  1.00  0.00    -0.035 A 
HETATM   13  C   UNL     1      -5.559   0.178 -33.014  1.00  0.00     0.009 A 
HETATM   14  C   UNL     1      -5.539  -1.167 -33.395  1.00  0.00     0.001 A 
HETATM   15  C   UNL     1      -6.326  -1.605 -34.454  1.00  0.00     0.000 A 
HETATM   16  C   UNL     1      -7.138  -0.701 -35.131  1.00  0.00     0.001 A 
HETATM   17  C   UNL     1      -7.160   0.643 -34.748  1.00  0.00     0.009 A 
ENDBRANCH   6  12
ENDBRANCH   5   6
ENDBRANCH   1   5
BRANCH   2  18
HETATM   18  C   UNL     1      -2.775   5.426 -33.385  1.00  0.00     0.035 A 
HETATM   19  C   UNL     1      -2.355   5.368 -32.052  1.00  0.00     0.042 A 
HETATM   20  C   UNL     1      -1.277   6.149 -31.600  1.00  0.00    -0.021 A 
HETATM   21  C   UNL     1      -0.650   7.021 -32.500  1.00  0.00     0.012 A 
HETATM   22  C   UNL     1      -1.071   7.093 -33.828  1.00  0.00     0.003 A 
HETATM   23  C   UNL     1      -2.117   6.286 -34.270  1.00  0.00     0.029 A 
BRANCH  20  24
HETATM   24  C   UNL     1      -0.777   6.025 -30.239  1.00  0.00     0.010 A 
HETATM   25  C   UNL     1      -1.087   6.762 -29.070  1.00  0.00     0.152 A 
HETATM   26  N   UNL     1      -0.398   6.356 -28.000  1.00  0.00    -0.187 NA
HETATM   27  N   UNL     1       0.363   5.361 -28.480  1.00  0.00    -0.289 N 
HETATM   28  H   UNL     1       0.996   4.886 -27.844  1.00  0.00     0.188 HD
HETATM   29  C   UNL     1       0.171   5.121 -29.809  1.00  0.00     0.123 A 
ENDBRANCH  20  24
ENDBRANCH   2  18
TORSDOF 6
ENDMDL
MODEL 9
REMARK VINA RESULT:      -7.8     14.573     16.556
REMARK  6 active torsions:
REMARK  status: ('A' for Active; 'I' for Inactive)
REMARK       I    between atoms: C_2  and  N_3 
REMARK    1  A    between atoms: N_3  and  C_4 
REMARK    2  A    between atoms: C_4  and  C_5 
REMARK    3  A    between atoms: C_4  and  C_11 
REMARK    4  A    between atoms: C_11  and  C_12 
REMARK       I    between atoms: C_12  and  N_13 
REMARK    5  A    between atoms: N_13  and  C_14 
REMARK    6  A    between atoms: C_16  and  C_17 
ROOT
HETATM    1  C   UNL     1      -4.714 -12.418 -38.769  1.00  0.00     0.224 C 
HETATM    2  N   UNL     1      -4.438 -13.702 -38.371  1.00  0.00    -0.327 N 
HETATM    3  O   UNL     1      -3.930 -11.468 -38.726  1.00  0.00    -0.273 OA
HETATM    4  H   UNL     1      -5.141 -14.414 -38.582  1.00  0.00     0.169 HD
ENDROOT
BRANCH   1   5
HETATM    5  C   UNL     1      -6.143 -12.177 -39.228  1.00  0.00     0.133 C 
BRANCH   5   6
HETATM    6  C   UNL     1      -6.819 -13.199 -40.163  1.00  0.00     0.126 C 
BRANCH   6   7
HETATM    7  N   UNL     1      -6.130 -13.326 -41.455  1.00  0.00    -0.352 N 
HETATM    8  C   UNL     1      -5.286 -14.347 -41.804  1.00  0.00     0.214 C 
HETATM    9  C   UNL     1      -4.781 -14.295 -43.220  1.00  0.00     0.117 C 
HETATM   10  O   UNL     1      -4.957 -15.243 -41.034  1.00  0.00    -0.274 OA
HETATM   11  H   UNL     1      -6.289 -12.583 -42.124  1.00  0.00     0.163 HD
ENDBRANCH   6   7
BRANCH   6  12
HETATM   12  C   UNL     1      -8.338 -13.208 -40.233  1.00  0.00    -0.035 A 
HETATM   13  C   UNL     1      -9.114 -12.044 -40.115  1.00  0.00     0.009 A 
HETATM   14  C   UNL     1     -10.508 -12.089 -40.218  1.00  0.00     0.001 A 
HETATM   15  C   UNL     1     -11.153 -13.300 -40.449  1.00  0.00     0.000 A 
HETATM   16  C   UNL     1     -10.405 -14.465 -40.580  1.00  0.00     0.001 A 
HETATM   17  C   UNL     1      -9.012 -14.419 -40.480  1.00  0.00     0.009 A 
ENDBRANCH   6  12
ENDBRANCH   5   6
ENDBRANCH   1   5
BRANCH   2  18
HETATM   18  C   UNL     1      -3.282 -14.174 -37.719  1.00  0.00     0.035 A 
HETATM   19  C   UNL     1      -2.080 -14.450 -38.376  1.00  0.00     0.042 A 
HETATM   20  C   UNL     1      -0.936 -14.838 -37.657  1.00  0.00    -0.021 A 
HETATM   21  C   UNL     1      -1.029 -14.985 -36.267  1.00  0.00     0.012 A 
HETATM   22  C   UNL     1      -2.229 -14.723 -35.605  1.00  0.00     0.003 A 
HETATM   23  C   UNL     1      -3.344 -14.303 -36.328  1.00  0.00     0.029 A 
BRANCH  20  24
HETATM   24  C   UNL     1       0.342 -15.038 -38.325  1.00  0.00     0.010 A 
HETATM   25  C   UNL     1       1.568 -15.554 -37.840  1.00  0.00     0.152 A 
HETATM   26  N   UNL     1       2.532 -15.563 -38.764  1.00  0.00    -0.187 NA
HETATM   27  N   UNL     1       1.930 -15.045 -39.846  1.00  0.00    -0.289 N 
HETATM   28  H   UNL     1       2.473 -14.940 -40.697  1.00  0.00     0.188 HD
HETATM   29  C   UNL     1       0.621 -14.720 -39.637  1.00  0.00     0.123 A 
ENDBRANCH  20  24
ENDBRANCH   2  18
TORSDOF 6
ENDMDL
MODEL 10
REMARK VINA RESULT:      -7.7      2.763      8.328
REMARK  6 active torsions:
REMARK  status: ('A' for Active; 'I' for Inactive)
REMARK       I    between atoms: C_2  and  N_3 
REMARK    1  A    between atoms: N_3  and  C_4 
REMARK    2  A    between atoms: C_4  and  C_5 
REMARK    3  A    between atoms: C_4  and  C_11 
REMARK    4  A    between atoms: C_11  and  C_12 
REMARK       I    between atoms: C_12  and  N_13 
REMARK    5  A    between atoms: N_13  and  C_14 
REMARK    6  A    between atoms: C_16  and  C_17 
ROOT
HETATM    1  C   UNL     1      -9.026   1.228 -32.078  1.00  0.00     0.224 C 
HETATM    2  N   UNL     1      -9.803   0.948 -33.175  1.00  0.00    -0.327 N 
HETATM    3  O   UNL     1      -9.136   2.219 -31.354  1.00  0.00    -0.273 OA
HETATM    4  H   UNL     1      -9.683   0.029 -33.606  1.00  0.00     0.169 HD
ENDROOT
BRANCH   1   5
HETATM    5  C   UNL     1      -7.900   0.241 -31.816  1.00  0.00     0.133 C 
BRANCH   5   6
HETATM    6  C   UNL     1      -6.604   0.336 -32.645  1.00  0.00     0.126 C 
BRANCH   6   7
HETATM    7  N   UNL     1      -6.494   1.603 -33.380  1.00  0.00    -0.352 N 
HETATM    8  C   UNL     1      -5.738   2.679 -32.993  1.00  0.00     0.214 C 
HETATM    9  C   UNL     1      -5.720   3.824 -33.968  1.00  0.00     0.117 C 
HETATM   10  O   UNL     1      -5.116   2.721 -31.937  1.00  0.00    -0.274 OA
HETATM   11  H   UNL     1      -7.040   1.679 -34.229  1.00  0.00     0.163 HD
ENDBRANCH   6   7
BRANCH   6  12
HETATM   12  C   UNL     1      -6.153  -0.900 -33.408  1.00  0.00    -0.035 A 
HETATM   13  C   UNL     1      -4.809  -1.294 -33.498  1.00  0.00     0.009 A 
HETATM   14  C   UNL     1      -4.439  -2.457 -34.182  1.00  0.00     0.001 A 
HETATM   15  C   UNL     1      -5.408  -3.252 -34.783  1.00  0.00     0.000 A 
HETATM   16  C   UNL     1      -6.748  -2.889 -34.699  1.00  0.00     0.001 A 
HETATM   17  C   UNL     1      -7.118  -1.729 -34.012  1.00  0.00     0.009 A 
ENDBRANCH   6  12
ENDBRANCH   5   6
ENDBRANCH   1   5
BRANCH   2  18
HETATM   18  C   UNL     1     -10.776   1.771 -33.776  1.00  0.00     0.035 A 
HETATM   19  C   UNL     1     -10.562   3.114 -34.100  1.00  0.00     0.042 A 
HETATM   20  C   UNL     1     -11.544   3.860 -34.774  1.00  0.00    -0.021 A 
HETATM   21  C   UNL     1     -12.765   3.245 -35.084  1.00  0.00     0.012 A 
HETATM   22  C   UNL     1     -12.990   1.909 -34.753  1.00  0.00     0.003 A 
HETATM   23  C   UNL     1     -11.993   1.173 -34.117  1.00  0.00     0.029 A 
BRANCH  20  24
HETATM   24  C   UNL     1     -11.292   5.230 -35.196  1.00  0.00     0.010 A 
HETATM   25  C   UNL     1     -12.188   6.260 -35.573  1.00  0.00     0.152 A 
HETATM   26  N   UNL     1     -11.566   7.391 -35.918  1.00  0.00    -0.187 NA
HETATM   27  N   UNL     1     -10.267   7.088 -35.769  1.00  0.00    -0.289 N 
HETATM   28  H   UNL     1      -9.577   7.802 -35.983  1.00  0.00     0.188 HD
HETATM   29  C   UNL     1     -10.051   5.813 -35.336  1.00  0.00     0.123 A 
ENDBRANCH  20  24
ENDBRANCH   2  18
TORSDOF 6
ENDMDL
