MODEL 1
REMARK VINA RESULT:      -8.4      0.000      0.000
REMARK  2 active torsions:
REMARK  status: ('A' for Active; 'I' for Inactive)
REMARK       I    between atoms: C_2  and  N_3 
REMARK    1  A    between atoms: N_3  and  C_4 
REMARK    2  A    between atoms: C_15  and  N_16 
REMARK       I    between atoms: N_16  and  C_17 
ROOT
HETATM    1  C   UNL     1      -3.174   4.653 -31.390  1.00  0.00     0.036 A 
HETATM    2  C   UNL     1      -3.383   3.280 -31.564  1.00  0.00     0.062 A 
HETATM    3  C   UNL     1      -4.382   2.786 -32.398  1.00  0.00     0.070 A 
HETATM    4  C   UNL     1      -5.200   3.703 -33.081  1.00  0.00    -0.006 A 
HETATM    5  C   UNL     1      -5.004   5.082 -32.917  1.00  0.00     0.016 A 
HETATM    6  C   UNL     1      -3.994   5.551 -32.077  1.00  0.00     0.030 A 
HETATM    7  N   UNL     1      -4.540   1.456 -32.532  1.00  0.00    -0.247 NA
HETATM    8  C   UNL     1      -5.502   0.971 -33.337  1.00  0.00     0.070 A 
HETATM    9  C   UNL     1      -6.365   1.816 -34.057  1.00  0.00    -0.006 A 
HETATM   10  C   UNL     1      -6.200   3.197 -33.917  1.00  0.00     0.027 A 
HETATM   11  C   UNL     1      -5.658  -0.406 -33.471  1.00  0.00     0.062 A 
HETATM   12  C   UNL     1      -6.639  -0.965 -34.295  1.00  0.00     0.036 A 
HETATM   13  C   UNL     1      -7.490  -0.112 -35.003  1.00  0.00     0.030 A 
HETATM   14  C   UNL     1      -7.356   1.271 -34.887  1.00  0.00     0.016 A 
ENDROOT
BRANCH   1  15
HETATM   15  N   UNL     1      -2.173   5.206 -30.562  1.00  0.00    -0.327 N 
HETATM   16  C   UNL     1      -0.812   5.254 -30.801  1.00  0.00     0.218 C 
HETATM   17  C   UNL     1      -0.053   5.933 -29.687  1.00  0.00     0.117 C 
HETATM   18  O   UNL     1      -0.216   4.793 -31.767  1.00  0.00    -0.274 OA
HETATM   19  H   UNL     1      -2.493   5.603 -29.688  1.00  0.00     0.169 HD
ENDBRANCH   1  15
BRANCH  12  20
HETATM   20  N   UNL     1      -6.841  -2.352 -34.468  1.00  0.00    -0.327 N 
HETATM   21  C   UNL     1      -5.918  -3.291 -34.893  1.00  0.00     0.218 C 
HETATM   22  C   UNL     1      -6.487  -4.688 -34.964  1.00  0.00     0.117 C 
HETATM   23  O   UNL     1      -4.750  -3.087 -35.203  1.00  0.00    -0.274 OA
HETATM   24  H   UNL     1      -7.770  -2.691 -34.258  1.00  0.00     0.169 HD
ENDBRANCH  12  20
TORSDOF 2
ENDMDL
MODEL 2
REMARK VINA RESULT:      -8.4      0.050      7.680
REMARK  2 active torsions:
REMARK  status: ('A' for Active; 'I' for Inactive)
REMARK       I    between atoms: C_2  and  N_3 
REMARK    1  A    between atoms: N_3  and  C_4 
REMARK    2  A    between atoms: C_15  and  N_16 
REMARK       I    between atoms: N_16  and  C_17 
ROOT
HETATM    1  C   UNL     1      -6.600  -1.006 -34.297  1.00  0.00     0.036 A 
HETATM    2  C   UNL     1      -5.619  -0.433 -33.480  1.00  0.00     0.062 A 
HETATM    3  C   UNL     1      -5.479   0.946 -33.351  1.00  0.00     0.070 A 
HETATM    4  C   UNL     1      -6.357   1.779 -34.069  1.00  0.00    -0.006 A 
HETATM    5  C   UNL     1      -7.345   1.220 -34.892  1.00  0.00     0.016 A 
HETATM    6  C   UNL     1      -7.465  -0.165 -35.002  1.00  0.00     0.030 A 
HETATM    7  N   UNL     1      -4.520   1.447 -32.551  1.00  0.00    -0.247 NA
HETATM    8  C   UNL     1      -4.380   2.777 -32.420  1.00  0.00     0.070 A 
HETATM    9  C   UNL     1      -5.213   3.684 -33.101  1.00  0.00    -0.006 A 
HETATM   10  C   UNL     1      -6.209   3.162 -33.932  1.00  0.00     0.027 A 
HETATM   11  C   UNL     1      -3.387   3.287 -31.588  1.00  0.00     0.062 A 
HETATM   12  C   UNL     1      -3.197   4.662 -31.414  1.00  0.00     0.036 A 
HETATM   13  C   UNL     1      -4.032   5.549 -32.099  1.00  0.00     0.030 A 
HETATM   14  C   UNL     1      -5.035   5.065 -32.937  1.00  0.00     0.016 A 
ENDROOT
BRANCH   1  15
HETATM   15  N   UNL     1      -6.788  -2.396 -34.458  1.00  0.00    -0.327 N 
HETATM   16  C   UNL     1      -5.855  -3.332 -34.867  1.00  0.00     0.218 C 
HETATM   17  C   UNL     1      -6.422  -4.730 -34.915  1.00  0.00     0.117 C 
HETATM   18  O   UNL     1      -4.695  -3.120 -35.200  1.00  0.00    -0.274 OA
HETATM   19  H   UNL     1      -7.718  -2.742 -34.258  1.00  0.00     0.169 HD
ENDBRANCH   1  15
BRANCH  12  20
HETATM   20  N   UNL     1      -2.207   5.231 -30.584  1.00  0.00    -0.327 N 
HETATM   21  C   UNL     1      -0.842   5.270 -30.806  1.00  0.00     0.218 C 
HETATM   22  C   UNL     1      -0.084   5.961 -29.698  1.00  0.00     0.117 C 
HETATM   23  O   UNL     1      -0.240   4.810 -31.769  1.00  0.00    -0.274 OA
HETATM   24  H   UNL     1      -2.540   5.655 -29.729  1.00  0.00     0.169 HD
ENDBRANCH  12  20
TORSDOF 2
ENDMDL
MODEL 3
REMARK VINA RESULT:      -7.6      2.043      7.836
REMARK  2 active torsions:
REMARK  status: ('A' for Active; 'I' for Inactive)
REMARK       I    between atoms: C_2  and  N_3 
REMARK    1  A    between atoms: N_3  and  C_4 
REMARK    2  A    between atoms: C_15  and  N_16 
REMARK       I    between atoms: N_16  and  C_17 
ROOT
HETATM    1  C   UNL     1      -4.580  -1.361 -33.177  1.00  0.00     0.036 A 
HETATM    2  C   UNL     1      -3.622  -0.366 -32.953  1.00  0.00     0.062 A 
HETATM    3  C   UNL     1      -3.965   0.896 -32.477  1.00  0.00     0.070 A 
HETATM    4  C   UNL     1      -5.320   1.168 -32.217  1.00  0.00    -0.006 A 
HETATM    5  C   UNL     1      -6.293   0.182 -32.437  1.00  0.00     0.016 A 
HETATM    6  C   UNL     1      -5.922  -1.075 -32.913  1.00  0.00     0.030 A 
HETATM    7  N   UNL     1      -3.004   1.816 -32.277  1.00  0.00    -0.247 NA
HETATM    8  C   UNL     1      -3.328   3.036 -31.815  1.00  0.00     0.070 A 
HETATM    9  C   UNL     1      -4.657   3.396 -31.529  1.00  0.00    -0.006 A 
HETATM   10  C   UNL     1      -5.655   2.438 -31.738  1.00  0.00     0.027 A 
HETATM   11  C   UNL     1      -2.327   3.983 -31.609  1.00  0.00     0.062 A 
HETATM   12  C   UNL     1      -2.607   5.266 -31.129  1.00  0.00     0.036 A 
HETATM   13  C   UNL     1      -3.933   5.607 -30.851  1.00  0.00     0.030 A 
HETATM   14  C   UNL     1      -4.954   4.679 -31.049  1.00  0.00     0.016 A 
ENDROOT
BRANCH   1  15
HETATM   15  N   UNL     1      -4.285  -2.657 -33.653  1.00  0.00    -0.327 N 
HETATM   16  C   UNL     1      -3.582  -3.655 -33.003  1.00  0.00     0.218 C 
HETATM   17  C   UNL     1      -3.473  -4.915 -33.827  1.00  0.00     0.117 C 
HETATM   18  O   UNL     1      -3.053  -3.585 -31.900  1.00  0.00    -0.274 OA
HETATM   19  H   UNL     1      -4.622  -2.873 -34.583  1.00  0.00     0.169 HD
ENDBRANCH   1  15
BRANCH  12  20
HETATM   20  N   UNL     1      -1.632   6.262 -30.902  1.00  0.00    -0.327 N 
HETATM   21  C   UNL     1      -0.440   6.134 -30.212  1.00  0.00     0.218 C 
HETATM   22  C   UNL     1       0.357   7.415 -30.165  1.00  0.00     0.117 C 
HETATM   23  O   UNL     1      -0.013   5.124 -29.664  1.00  0.00    -0.274 OA
HETATM   24  H   UNL     1      -1.836   7.174 -31.289  1.00  0.00     0.169 HD
ENDBRANCH  12  20
TORSDOF 2
ENDMDL
MODEL 4
REMARK VINA RESULT:      -7.6      4.358      7.168
REMARK  2 active torsions:
REMARK  status: ('A' for Active; 'I' for Inactive)
REMARK       I    between atoms: C_2  and  N_3 
REMARK    1  A    between atoms: N_3  and  C_4 
REMARK    2  A    between atoms: C_15  and  N_16 
REMARK       I    between atoms: N_16  and  C_17 
ROOT
HETATM    1  C   UNL     1      -4.619  -1.341 -33.067  1.00  0.00     0.036 A 
HETATM    2  C   UNL     1      -5.930  -0.982 -32.737  1.00  0.00     0.062 A 
HETATM    3  C   UNL     1      -6.242   0.266 -32.205  1.00  0.00     0.070 A 
HETATM    4  C   UNL     1      -5.199   1.185 -31.997  1.00  0.00    -0.006 A 
HETATM    5  C   UNL     1      -3.879   0.841 -32.322  1.00  0.00     0.016 A 
HETATM    6  C   UNL     1      -3.594  -0.416 -32.856  1.00  0.00     0.030 A 
HETATM    7  N   UNL     1      -7.520   0.562 -31.906  1.00  0.00    -0.247 NA
HETATM    8  C   UNL     1      -7.829   1.765 -31.393  1.00  0.00     0.070 A 
HETATM    9  C   UNL     1      -6.850   2.745 -31.151  1.00  0.00    -0.006 A 
HETATM   10  C   UNL     1      -5.522   2.436 -31.462  1.00  0.00     0.027 A 
HETATM   11  C   UNL     1      -9.155   2.065 -31.088  1.00  0.00     0.062 A 
HETATM   12  C   UNL     1      -9.533   3.301 -30.554  1.00  0.00     0.036 A 
HETATM   13  C   UNL     1      -8.547   4.263 -30.319  1.00  0.00     0.030 A 
HETATM   14  C   UNL     1      -7.212   3.989 -30.616  1.00  0.00     0.016 A 
ENDROOT
BRANCH   1  15
HETATM   15  N   UNL     1      -4.250  -2.589 -33.615  1.00  0.00    -0.327 N 
HETATM   16  C   UNL     1      -3.566  -3.616 -32.989  1.00  0.00     0.218 C 
HETATM   17  C   UNL     1      -3.358  -4.806 -33.893  1.00  0.00     0.117 C 
HETATM   18  O   UNL     1      -3.123  -3.618 -31.847  1.00  0.00    -0.274 OA
HETATM   19  H   UNL     1      -4.510  -2.742 -34.581  1.00  0.00     0.169 HD
ENDBRANCH   1  15
BRANCH  12  20
HETATM   20  N   UNL     1     -10.860   3.656 -30.227  1.00  0.00    -0.327 N 
HETATM   21  C   UNL     1     -11.858   4.070 -31.090  1.00  0.00     0.218 C 
HETATM   22  C   UNL     1     -13.160   4.371 -30.386  1.00  0.00     0.117 C 
HETATM   23  O   UNL     1     -11.770   4.209 -32.305  1.00  0.00    -0.274 OA
HETATM   24  H   UNL     1     -11.101   3.601 -29.247  1.00  0.00     0.169 HD
ENDBRANCH  12  20
TORSDOF 2
ENDMDL
MODEL 5
REMARK VINA RESULT:      -7.6      4.356      5.860
REMARK  2 active torsions:
REMARK  status: ('A' for Active; 'I' for Inactive)
REMARK       I    between atoms: C_2  and  N_3 
REMARK    1  A    between atoms: N_3  and  C_4 
REMARK    2  A    between atoms: C_15  and  N_16 
REMARK       I    between atoms: N_16  and  C_17 
ROOT
HETATM    1  C   UNL     1      -9.526   3.340 -30.570  1.00  0.00     0.036 A 
HETATM    2  C   UNL     1      -9.154   2.097 -31.094  1.00  0.00     0.062 A 
HETATM    3  C   UNL     1      -7.834   1.800 -31.422  1.00  0.00     0.070 A 
HETATM    4  C   UNL     1      -6.854   2.786 -31.215  1.00  0.00    -0.006 A 
HETATM    5  C   UNL     1      -7.210   4.036 -30.690  1.00  0.00     0.016 A 
HETATM    6  C   UNL     1      -8.540   4.308 -30.368  1.00  0.00     0.030 A 
HETATM    7  N   UNL     1      -7.529   0.588 -31.922  1.00  0.00    -0.247 NA
HETATM    8  C   UNL     1      -6.257   0.293 -32.239  1.00  0.00     0.070 A 
HETATM    9  C   UNL     1      -5.212   1.219 -32.065  1.00  0.00    -0.006 A 
HETATM   10  C   UNL     1      -5.531   2.477 -31.545  1.00  0.00     0.027 A 
HETATM   11  C   UNL     1      -5.949  -0.964 -32.754  1.00  0.00     0.062 A 
HETATM   12  C   UNL     1      -4.643  -1.325 -33.099  1.00  0.00     0.036 A 
HETATM   13  C   UNL     1      -3.617  -0.393 -32.922  1.00  0.00     0.030 A 
HETATM   14  C   UNL     1      -3.897   0.872 -32.407  1.00  0.00     0.016 A 
ENDROOT
BRANCH   1  15
HETATM   15  N   UNL     1     -10.847   3.690 -30.216  1.00  0.00    -0.327 N 
HETATM   16  C   UNL     1     -11.869   4.090 -31.059  1.00  0.00     0.218 C 
HETATM   17  C   UNL     1     -13.151   4.377 -30.317  1.00  0.00     0.117 C 
HETATM   18  O   UNL     1     -11.805   4.245 -32.272  1.00  0.00    -0.274 OA
HETATM   19  H   UNL     1     -11.064   3.653 -29.228  1.00  0.00     0.169 HD
ENDBRANCH   1  15
BRANCH  12  20
HETATM   20  N   UNL     1      -4.276  -2.584 -33.625  1.00  0.00    -0.327 N 
HETATM   21  C   UNL     1      -3.572  -3.590 -32.988  1.00  0.00     0.218 C 
HETATM   22  C   UNL     1      -3.357  -4.803 -33.861  1.00  0.00     0.117 C 
HETATM   23  O   UNL     1      -3.131  -3.570 -31.845  1.00  0.00    -0.274 OA
HETATM   24  H   UNL     1      -4.562  -2.762 -34.578  1.00  0.00     0.169 HD
ENDBRANCH  12  20
TORSDOF 2
ENDMDL
MODEL 6
REMARK VINA RESULT:      -7.5      4.389      6.965
REMARK  2 active torsions:
REMARK  status: ('A' for Active; 'I' for Inactive)
REMARK       I    between atoms: C_2  and  N_3 
REMARK    1  A    between atoms: N_3  and  C_4 
REMARK    2  A    between atoms: C_15  and  N_16 
REMARK       I    between atoms: N_16  and  C_17 
ROOT
HETATM    1  C   UNL     1      -4.905  -1.492 -33.318  1.00  0.00     0.036 A 
HETATM    2  C   UNL     1      -6.303  -1.538 -33.336  1.00  0.00     0.062 A 
HETATM    3  C   UNL     1      -7.080  -0.387 -33.235  1.00  0.00     0.070 A 
HETATM    4  C   UNL     1      -6.429   0.853 -33.110  1.00  0.00    -0.006 A 
HETATM    5  C   UNL     1      -5.028   0.915 -33.090  1.00  0.00     0.016 A 
HETATM    6  C   UNL     1      -4.273  -0.253 -33.195  1.00  0.00     0.030 A 
HETATM    7  N   UNL     1      -8.422  -0.486 -33.260  1.00  0.00    -0.247 NA
HETATM    8  C   UNL     1      -9.179   0.621 -33.164  1.00  0.00     0.070 A 
HETATM    9  C   UNL     1      -8.613   1.902 -33.035  1.00  0.00    -0.006 A 
HETATM   10  C   UNL     1      -7.218   2.003 -33.010  1.00  0.00     0.027 A 
HETATM   11  C   UNL     1     -10.567   0.511 -33.192  1.00  0.00     0.062 A 
HETATM   12  C   UNL     1     -11.403   1.629 -33.098  1.00  0.00     0.036 A 
HETATM   13  C   UNL     1     -10.824   2.893 -32.970  1.00  0.00     0.030 A 
HETATM   14  C   UNL     1      -9.437   3.032 -32.939  1.00  0.00     0.016 A 
ENDROOT
BRANCH   1  15
HETATM   15  N   UNL     1      -4.071  -2.627 -33.423  1.00  0.00    -0.327 N 
HETATM   16  C   UNL     1      -4.350  -3.823 -34.060  1.00  0.00     0.218 C 
HETATM   17  C   UNL     1      -3.208  -4.805 -33.969  1.00  0.00     0.117 C 
HETATM   18  O   UNL     1      -5.392  -4.132 -34.625  1.00  0.00    -0.274 OA
HETATM   19  H   UNL     1      -3.169  -2.555 -32.970  1.00  0.00     0.169 HD
ENDBRANCH   1  15
BRANCH  12  20
HETATM   20  N   UNL     1     -12.814   1.573 -33.122  1.00  0.00    -0.327 N 
HETATM   21  C   UNL     1     -13.630   1.348 -34.215  1.00  0.00     0.218 C 
HETATM   22  C   UNL     1     -15.099   1.361 -33.868  1.00  0.00     0.117 C 
HETATM   23  O   UNL     1     -13.274   1.157 -35.372  1.00  0.00    -0.274 OA
HETATM   24  H   UNL     1     -13.275   1.720 -32.234  1.00  0.00     0.169 HD
ENDBRANCH  12  20
TORSDOF 2
ENDMDL
MODEL 7
REMARK VINA RESULT:      -7.5      3.745      8.341
REMARK  2 active torsions:
REMARK  status: ('A' for Active; 'I' for Inactive)
REMARK       I    between atoms: C_2  and  N_3 
REMARK    1  A    between atoms: N_3  and  C_4 
REMARK    2  A    between atoms: C_15  and  N_16 
REMARK       I    between atoms: N_16  and  C_17 
ROOT
HETATM    1  C   UNL     1     -10.645   1.231 -33.149  1.00  0.00     0.036 A 
HETATM    2  C   UNL     1      -9.798   2.345 -33.146  1.00  0.00     0.062 A 
HETATM    3  C   UNL     1      -8.421   2.225 -32.985  1.00  0.00     0.070 A 
HETATM    4  C   UNL     1      -7.875   0.940 -32.821  1.00  0.00    -0.006 A 
HETATM    5  C   UNL     1      -8.709  -0.187 -32.821  1.00  0.00     0.016 A 
HETATM    6  C   UNL     1     -10.086  -0.039 -32.986  1.00  0.00     0.030 A 
HETATM    7  N   UNL     1      -7.651   3.329 -32.992  1.00  0.00    -0.247 NA
HETATM    8  C   UNL     1      -6.320   3.221 -32.839  1.00  0.00     0.070 A 
HETATM    9  C   UNL     1      -5.689   1.975 -32.668  1.00  0.00    -0.006 A 
HETATM   10  C   UNL     1      -6.490   0.829 -32.661  1.00  0.00     0.027 A 
HETATM   11  C   UNL     1      -5.530   4.367 -32.849  1.00  0.00     0.062 A 
HETATM   12  C   UNL     1      -4.141   4.314 -32.696  1.00  0.00     0.036 A 
HETATM   13  C   UNL     1      -3.530   3.069 -32.526  1.00  0.00     0.030 A 
HETATM   14  C   UNL     1      -4.297   1.905 -32.512  1.00  0.00     0.016 A 
ENDROOT
BRANCH   1  15
HETATM   15  N   UNL     1     -12.045   1.296 -33.314  1.00  0.00    -0.327 N 
HETATM   16  C   UNL     1     -12.753   1.361 -34.500  1.00  0.00     0.218 C 
HETATM   17  C   UNL     1     -14.245   1.412 -34.280  1.00  0.00     0.117 C 
HETATM   18  O   UNL     1     -12.290   1.406 -35.634  1.00  0.00    -0.274 OA
HETATM   19  H   UNL     1     -12.590   1.307 -32.461  1.00  0.00     0.169 HD
ENDBRANCH   1  15
BRANCH  12  20
HETATM   20  N   UNL     1      -3.294   5.444 -32.699  1.00  0.00    -0.327 N 
HETATM   21  C   UNL     1      -2.908   6.205 -33.787  1.00  0.00     0.218 C 
HETATM   22  C   UNL     1      -1.987   7.342 -33.415  1.00  0.00     0.117 C 
HETATM   23  O   UNL     1      -3.230   6.032 -34.957  1.00  0.00    -0.274 OA
HETATM   24  H   UNL     1      -2.928   5.722 -31.798  1.00  0.00     0.169 HD
ENDBRANCH  12  20
TORSDOF 2
ENDMDL
MODEL 8
REMARK VINA RESULT:      -7.4      3.624      4.552
REMARK  2 active torsions:
REMARK  status: ('A' for Active; 'I' for Inactive)
REMARK       I    between atoms: C_2  and  N_3 
REMARK    1  A    between atoms: N_3  and  C_4 
REMARK    2  A    between atoms: C_15  and  N_16 
REMARK       I    between atoms: N_16  and  C_17 
ROOT
HETATM    1  C   UNL     1      -3.757   4.238 -32.599  1.00  0.00     0.036 A 
HETATM    2  C   UNL     1      -5.144   4.330 -32.756  1.00  0.00     0.062 A 
HETATM    3  C   UNL     1      -5.964   3.205 -32.745  1.00  0.00     0.070 A 
HETATM    4  C   UNL     1      -5.369   1.943 -32.570  1.00  0.00    -0.006 A 
HETATM    5  C   UNL     1      -3.980   1.834 -32.411  1.00  0.00     0.016 A 
HETATM    6  C   UNL     1      -3.181   2.978 -32.424  1.00  0.00     0.030 A 
HETATM    7  N   UNL     1      -7.294   3.349 -32.899  1.00  0.00    -0.247 NA
HETATM    8  C   UNL     1      -8.092   2.267 -32.887  1.00  0.00     0.070 A 
HETATM    9  C   UNL     1      -7.582   0.967 -32.719  1.00  0.00    -0.006 A 
HETATM   10  C   UNL     1      -6.201   0.820 -32.559  1.00  0.00     0.027 A 
HETATM   11  C   UNL     1      -9.467   2.424 -33.045  1.00  0.00     0.062 A 
HETATM   12  C   UNL     1     -10.344   1.335 -33.040  1.00  0.00     0.036 A 
HETATM   13  C   UNL     1      -9.821   0.050 -32.872  1.00  0.00     0.030 A 
HETATM   14  C   UNL     1      -8.448  -0.136 -32.712  1.00  0.00     0.016 A 
ENDROOT
BRANCH   1  15
HETATM   15  N   UNL     1      -2.882   5.346 -32.596  1.00  0.00    -0.327 N 
HETATM   16  C   UNL     1      -2.659   6.248 -33.621  1.00  0.00     0.218 C 
HETATM   17  C   UNL     1      -1.654   7.310 -33.248  1.00  0.00     0.117 C 
HETATM   18  O   UNL     1      -3.160   6.232 -34.739  1.00  0.00    -0.274 OA
HETATM   19  H   UNL     1      -2.351   5.487 -31.747  1.00  0.00     0.169 HD
ENDBRANCH   1  15
BRANCH  12  20
HETATM   20  N   UNL     1     -11.744   1.438 -33.195  1.00  0.00    -0.327 N 
HETATM   21  C   UNL     1     -12.455   1.533 -34.377  1.00  0.00     0.218 C 
HETATM   22  C   UNL     1     -13.947   1.631 -34.162  1.00  0.00     0.117 C 
HETATM   23  O   UNL     1     -11.996   1.549 -35.513  1.00  0.00    -0.274 OA
HETATM   24  H   UNL     1     -12.282   1.445 -32.339  1.00  0.00     0.169 HD
ENDBRANCH  12  20
TORSDOF 2
ENDMDL
MODEL 9
REMARK VINA RESULT:      -7.1     16.177     19.318
REMARK  2 active torsions:
REMARK  status: ('A' for Active; 'I' for Inactive)
REMARK       I    between atoms: C_2  and  N_3 
REMARK    1  A    between atoms: N_3  and  C_4 
REMARK    2  A    between atoms: C_15  and  N_16 
REMARK       I    between atoms: N_16  and  C_17 
ROOT
HETATM    1  C   UNL     1     -10.945 -14.778 -41.172  1.00  0.00     0.036 A 
HETATM    2  C   UNL     1      -9.596 -15.149 -41.193  1.00  0.00     0.062 A 
HETATM    3  C   UNL     1      -8.604 -14.360 -40.617  1.00  0.00     0.070 A 
HETATM    4  C   UNL     1      -8.981 -13.154 -39.999  1.00  0.00    -0.006 A 
HETATM    5  C   UNL     1     -10.329 -12.768 -39.970  1.00  0.00     0.016 A 
HETATM    6  C   UNL     1     -11.303 -13.578 -40.553  1.00  0.00     0.030 A 
HETATM    7  N   UNL     1      -7.322 -14.764 -40.663  1.00  0.00    -0.247 NA
HETATM    8  C   UNL     1      -6.358 -14.008 -40.108  1.00  0.00     0.070 A 
HETATM    9  C   UNL     1      -6.645 -12.788 -39.470  1.00  0.00    -0.006 A 
HETATM   10  C   UNL     1      -7.978 -12.369 -39.423  1.00  0.00     0.027 A 
HETATM   11  C   UNL     1      -5.034 -14.434 -40.158  1.00  0.00     0.062 A 
HETATM   12  C   UNL     1      -3.992 -13.689 -39.596  1.00  0.00     0.036 A 
HETATM   13  C   UNL     1      -4.294 -12.478 -38.967  1.00  0.00     0.030 A 
HETATM   14  C   UNL     1      -5.612 -12.028 -38.903  1.00  0.00     0.016 A 
ENDROOT
BRANCH   1  15
HETATM   15  N   UNL     1     -11.989 -15.543 -41.735  1.00  0.00    -0.327 N 
HETATM   16  C   UNL     1     -12.039 -16.103 -42.998  1.00  0.00     0.218 C 
HETATM   17  C   UNL     1     -13.320 -16.862 -43.244  1.00  0.00     0.117 C 
HETATM   18  O   UNL     1     -11.193 -16.010 -43.880  1.00  0.00    -0.274 OA
HETATM   19  H   UNL     1     -12.798 -15.688 -41.144  1.00  0.00     0.169 HD
ENDBRANCH   1  15
BRANCH  12  20
HETATM   20  N   UNL     1      -2.634 -14.074 -39.619  1.00  0.00    -0.327 N 
HETATM   21  C   UNL     1      -1.819 -14.225 -40.726  1.00  0.00     0.218 C 
HETATM   22  C   UNL     1      -0.415 -14.654 -40.371  1.00  0.00     0.117 C 
HETATM   23  O   UNL     1      -2.132 -14.055 -41.898  1.00  0.00    -0.274 OA
HETATM   24  H   UNL     1      -2.215 -14.263 -38.718  1.00  0.00     0.169 HD
ENDBRANCH  12  20
TORSDOF 2
ENDMDL
MODEL 10
REMARK VINA RESULT:      -6.9      4.963      6.750
REMARK  2 active torsions:
REMARK  status: ('A' for Active; 'I' for Inactive)
REMARK       I    between atoms: C_2  and  N_3 
REMARK    1  A    between atoms: N_3  and  C_4 
REMARK    2  A    between atoms: C_15  and  N_16 
REMARK       I    between atoms: N_16  and  C_17 
ROOT
HETATM    1  C   UNL     1     -11.146   3.830 -31.932  1.00  0.00     0.036 A 
HETATM    2  C   UNL     1     -10.707   2.805 -32.776  1.00  0.00     0.062 A 
HETATM    3  C   UNL     1      -9.557   2.068 -32.507  1.00  0.00     0.070 A 
HETATM    4  C   UNL     1      -8.822   2.373 -31.349  1.00  0.00    -0.006 A 
HETATM    5  C   UNL     1      -9.248   3.398 -30.492  1.00  0.00     0.016 A 
HETATM    6  C   UNL     1     -10.405   4.120 -30.783  1.00  0.00     0.030 A 
HETATM    7  N   UNL     1      -9.179   1.091 -33.352  1.00  0.00    -0.247 NA
HETATM    8  C   UNL     1      -8.071   0.374 -33.098  1.00  0.00     0.070 A 
HETATM    9  C   UNL     1      -7.275   0.612 -31.963  1.00  0.00    -0.006 A 
HETATM   10  C   UNL     1      -7.668   1.628 -31.087  1.00  0.00     0.027 A 
HETATM   11  C   UNL     1      -7.687  -0.637 -33.976  1.00  0.00     0.062 A 
HETATM   12  C   UNL     1      -6.545  -1.414 -33.760  1.00  0.00     0.036 A 
HETATM   13  C   UNL     1      -5.765  -1.164 -32.629  1.00  0.00     0.030 A 
HETATM   14  C   UNL     1      -6.125  -0.158 -31.733  1.00  0.00     0.016 A 
ENDROOT
BRANCH   1  15
HETATM   15  N   UNL     1     -12.307   4.602 -32.155  1.00  0.00    -0.327 N 
HETATM   16  C   UNL     1     -13.567   4.407 -31.617  1.00  0.00     0.218 C 
HETATM   17  C   UNL     1     -14.560   5.443 -32.083  1.00  0.00     0.117 C 
HETATM   18  O   UNL     1     -13.917   3.501 -30.870  1.00  0.00    -0.274 OA
HETATM   19  H   UNL     1     -12.202   5.383 -32.790  1.00  0.00     0.169 HD
ENDBRANCH   1  15
BRANCH  12  20
HETATM   20  N   UNL     1      -6.112  -2.449 -34.617  1.00  0.00    -0.327 N 
HETATM   21  C   UNL     1      -6.616  -3.734 -34.707  1.00  0.00     0.218 C 
HETATM   22  C   UNL     1      -5.902  -4.577 -35.737  1.00  0.00     0.117 C 
HETATM   23  O   UNL     1      -7.534  -4.212 -34.052  1.00  0.00    -0.274 OA
HETATM   24  H   UNL     1      -5.342  -2.219 -35.231  1.00  0.00     0.169 HD
ENDBRANCH  12  20
TORSDOF 2
ENDMDL
