MODEL 1
REMARK VINA RESULT:      -8.4      0.000      0.000
REMARK  3 active torsions:
REMARK  status: ('A' for Active; 'I' for Inactive)
REMARK    1  A    between atoms: C_3  and  N_4 
REMARK       I    between atoms: N_4  and  C_5 
REMARK       I    between atoms: C_5  and  N_6 
REMARK    2  A    between atoms: N_6  and  C_7 
REMARK    3  A    between atoms: C_7  and  C_8 
ROOT
HETATM    1  C   UNL     1      -4.411  -0.513 -33.176  1.00  0.00    -0.036 A 
HETATM    2  C   UNL     1      -5.614  -0.394 -33.888  1.00  0.00     0.011 A 
HETATM    3  C   UNL     1      -6.185  -1.505 -34.520  1.00  0.00     0.023 A 
HETATM    4  C   UNL     1      -5.560  -2.753 -34.455  1.00  0.00     0.044 A 
HETATM    5  C   UNL     1      -6.149  -3.891 -35.096  1.00  0.00     0.099 C 
HETATM    6  N   UNL     1      -6.629  -4.814 -35.612  1.00  0.00    -0.191 NA
HETATM    7  C   UNL     1      -4.356  -2.885 -33.762  1.00  0.00     0.023 A 
HETATM    8  C   UNL     1      -3.787  -1.775 -33.131  1.00  0.00     0.011 A 
ENDROOT
BRANCH   1   9
HETATM    9  C   UNL     1      -3.745   0.645 -32.454  1.00  0.00     0.115 C 
HETATM   10  C   UNL     1      -3.473   0.435 -30.961  1.00  0.00     0.037 C 
BRANCH   9  11
HETATM   11  N   UNL     1      -4.546   1.853 -32.635  1.00  0.00    -0.335 N 
HETATM   12  C   UNL     1      -4.130   3.141 -32.452  1.00  0.00     0.321 C 
HETATM   13  N   UNL     1      -2.823   3.374 -32.777  1.00  0.00    -0.307 N 
HETATM   14  O   UNL     1      -4.940   3.970 -32.056  1.00  0.00    -0.247 OA
HETATM   15  H   UNL     1      -2.432   2.721 -33.434  1.00  0.00     0.170 HD
HETATM   16  H   UNL     1      -5.531   1.758 -32.415  1.00  0.00     0.165 HD
BRANCH  13  17
HETATM   17  C   UNL     1      -2.088   4.558 -32.546  1.00  0.00     0.059 A 
HETATM   18  C   UNL     1      -1.872   5.457 -33.607  1.00  0.00    -0.032 A 
HETATM   19  C   UNL     1      -2.438   5.238 -34.983  1.00  0.00     0.050 C 
HETATM   20  C   UNL     1      -1.123   6.618 -33.366  1.00  0.00     0.028 A 
HETATM   21  C   UNL     1      -0.608   6.836 -32.099  1.00  0.00     0.117 A 
HETATM   22  N   UNL     1      -0.784   5.992 -31.067  1.00  0.00    -0.271 NA
HETATM   23  C   UNL     1      -1.520   4.877 -31.310  1.00  0.00     0.146 A 
ENDBRANCH  13  17
ENDBRANCH   9  11
ENDBRANCH   1   9
TORSDOF 3
ENDMDL
MODEL 2
REMARK VINA RESULT:      -8.1      1.999      8.050
REMARK  3 active torsions:
REMARK  status: ('A' for Active; 'I' for Inactive)
REMARK    1  A    between atoms: C_3  and  N_4 
REMARK       I    between atoms: N_4  and  C_5 
REMARK       I    between atoms: C_5  and  N_6 
REMARK    2  A    between atoms: N_6  and  C_7 
REMARK    3  A    between atoms: C_7  and  C_8 
ROOT
HETATM    1  C   UNL     1      -4.310   3.177 -32.749  1.00  0.00    -0.036 A 
HETATM    2  C   UNL     1      -4.935   4.217 -33.452  1.00  0.00     0.011 A 
HETATM    3  C   UNL     1      -4.232   5.381 -33.783  1.00  0.00     0.023 A 
HETATM    4  C   UNL     1      -2.893   5.527 -33.412  1.00  0.00     0.044 A 
HETATM    5  C   UNL     1      -2.173   6.717 -33.757  1.00  0.00     0.099 C 
HETATM    6  N   UNL     1      -1.588   7.678 -34.042  1.00  0.00    -0.191 NA
HETATM    7  C   UNL     1      -2.261   4.507 -32.700  1.00  0.00     0.023 A 
HETATM    8  C   UNL     1      -2.964   3.345 -32.370  1.00  0.00     0.011 A 
ENDROOT
BRANCH   1   9
HETATM    9  C   UNL     1      -5.008   1.881 -32.371  1.00  0.00     0.115 C 
HETATM   10  C   UNL     1      -6.016   1.974 -31.221  1.00  0.00     0.037 C 
BRANCH   9  11
HETATM   11  N   UNL     1      -4.005   0.867 -32.056  1.00  0.00    -0.335 N 
HETATM   12  C   UNL     1      -4.079  -0.467 -32.340  1.00  0.00     0.321 C 
HETATM   13  N   UNL     1      -4.725  -0.770 -33.507  1.00  0.00    -0.307 N 
HETATM   14  O   UNL     1      -3.550  -1.262 -31.573  1.00  0.00    -0.247 OA
HETATM   15  H   UNL     1      -4.739  -0.026 -34.183  1.00  0.00     0.170 HD
HETATM   16  H   UNL     1      -3.481   1.025 -31.203  1.00  0.00     0.165 HD
BRANCH  13  17
HETATM   17  C   UNL     1      -5.082  -2.057 -33.970  1.00  0.00     0.059 A 
HETATM   18  C   UNL     1      -6.405  -2.301 -34.382  1.00  0.00    -0.032 A 
HETATM   19  C   UNL     1      -7.460  -1.229 -34.400  1.00  0.00     0.050 C 
HETATM   20  C   UNL     1      -6.748  -3.588 -34.820  1.00  0.00     0.028 A 
HETATM   21  C   UNL     1      -5.782  -4.580 -34.820  1.00  0.00     0.117 A 
HETATM   22  N   UNL     1      -4.512  -4.383 -34.421  1.00  0.00    -0.271 NA
HETATM   23  C   UNL     1      -4.190  -3.130 -34.010  1.00  0.00     0.146 A 
ENDBRANCH  13  17
ENDBRANCH   9  11
ENDBRANCH   1   9
TORSDOF 3
ENDMDL
MODEL 3
REMARK VINA RESULT:      -8.0      1.701      1.806
REMARK  3 active torsions:
REMARK  status: ('A' for Active; 'I' for Inactive)
REMARK    1  A    between atoms: C_3  and  N_4 
REMARK       I    between atoms: N_4  and  C_5 
REMARK       I    between atoms: C_5  and  N_6 
REMARK    2  A    between atoms: N_6  and  C_7 
REMARK    3  A    between atoms: C_7  and  C_8 
ROOT
HETATM    1  C   UNL     1      -5.753   0.233 -33.443  1.00  0.00    -0.036 A 
HETATM    2  C   UNL     1      -6.965  -0.189 -34.009  1.00  0.00     0.011 A 
HETATM    3  C   UNL     1      -7.101  -1.480 -34.531  1.00  0.00     0.023 A 
HETATM    4  C   UNL     1      -6.024  -2.370 -34.503  1.00  0.00     0.044 A 
HETATM    5  C   UNL     1      -6.166  -3.694 -35.032  1.00  0.00     0.099 C 
HETATM    6  N   UNL     1      -6.282  -4.768 -35.457  1.00  0.00    -0.191 NA
HETATM    7  C   UNL     1      -4.807  -1.962 -33.955  1.00  0.00     0.023 A 
HETATM    8  C   UNL     1      -4.674  -0.672 -33.433  1.00  0.00     0.011 A 
ENDROOT
BRANCH   1   9
HETATM    9  C   UNL     1      -5.542   1.613 -32.843  1.00  0.00     0.115 C 
HETATM   10  C   UNL     1      -6.323   1.911 -31.560  1.00  0.00     0.037 C 
BRANCH   9  11
HETATM   11  N   UNL     1      -5.852   2.628 -33.846  1.00  0.00    -0.335 N 
HETATM   12  C   UNL     1      -5.443   3.931 -33.837  1.00  0.00     0.321 C 
HETATM   13  N   UNL     1      -4.202   4.141 -33.303  1.00  0.00    -0.307 N 
HETATM   14  O   UNL     1      -6.179   4.782 -34.324  1.00  0.00    -0.247 OA
HETATM   15  H   UNL     1      -3.597   3.338 -33.323  1.00  0.00     0.170 HD
HETATM   16  H   UNL     1      -6.757   2.538 -34.291  1.00  0.00     0.165 HD
BRANCH  13  17
HETATM   17  C   UNL     1      -3.596   5.387 -33.025  1.00  0.00     0.059 A 
HETATM   18  C   UNL     1      -2.519   5.824 -33.819  1.00  0.00    -0.032 A 
HETATM   19  C   UNL     1      -2.009   5.041 -34.997  1.00  0.00     0.050 C 
HETATM   20  C   UNL     1      -1.915   7.054 -33.517  1.00  0.00     0.028 A 
HETATM   21  C   UNL     1      -2.385   7.790 -32.442  1.00  0.00     0.117 A 
HETATM   22  N   UNL     1      -3.403   7.395 -31.656  1.00  0.00    -0.271 NA
HETATM   23  C   UNL     1      -3.987   6.208 -31.965  1.00  0.00     0.146 A 
ENDBRANCH  13  17
ENDBRANCH   9  11
ENDBRANCH   1   9
TORSDOF 3
ENDMDL
MODEL 4
REMARK VINA RESULT:      -7.7      4.990      6.882
REMARK  3 active torsions:
REMARK  status: ('A' for Active; 'I' for Inactive)
REMARK    1  A    between atoms: C_3  and  N_4 
REMARK       I    between atoms: N_4  and  C_5 
REMARK       I    between atoms: C_5  and  N_6 
REMARK    2  A    between atoms: N_6  and  C_7 
REMARK    3  A    between atoms: C_7  and  C_8 
ROOT
HETATM    1  C   UNL     1      -6.277  -0.323 -34.243  1.00  0.00    -0.036 A 
HETATM    2  C   UNL     1      -6.754  -1.518 -34.801  1.00  0.00     0.011 A 
HETATM    3  C   UNL     1      -6.004  -2.697 -34.718  1.00  0.00     0.023 A 
HETATM    4  C   UNL     1      -4.761  -2.699 -34.080  1.00  0.00     0.044 A 
HETATM    5  C   UNL     1      -3.997  -3.908 -33.990  1.00  0.00     0.099 C 
HETATM    6  N   UNL     1      -3.380  -4.888 -33.912  1.00  0.00    -0.191 NA
HETATM    7  C   UNL     1      -4.266  -1.515 -33.532  1.00  0.00     0.023 A 
HETATM    8  C   UNL     1      -5.017  -0.339 -33.615  1.00  0.00     0.011 A 
ENDROOT
BRANCH   1   9
HETATM    9  C   UNL     1      -7.046   0.987 -34.282  1.00  0.00     0.115 C 
HETATM   10  C   UNL     1      -6.263   2.234 -33.859  1.00  0.00     0.037 C 
BRANCH   9  11
HETATM   11  N   UNL     1      -8.247   0.868 -33.461  1.00  0.00    -0.335 N 
HETATM   12  C   UNL     1      -9.303   1.733 -33.434  1.00  0.00     0.321 C 
HETATM   13  N   UNL     1      -9.592   2.325 -34.631  1.00  0.00    -0.307 N 
HETATM   14  O   UNL     1      -9.914   1.883 -32.382  1.00  0.00    -0.247 OA
HETATM   15  H   UNL     1      -9.275   1.816 -35.438  1.00  0.00     0.170 HD
HETATM   16  H   UNL     1      -8.113   0.434 -32.555  1.00  0.00     0.165 HD
BRANCH  13  17
HETATM   17  C   UNL     1     -10.519   3.366 -34.863  1.00  0.00     0.059 A 
HETATM   18  C   UNL     1     -11.848   3.048 -35.201  1.00  0.00    -0.032 A 
HETATM   19  C   UNL     1     -12.347   1.632 -35.279  1.00  0.00     0.050 C 
HETATM   20  C   UNL     1     -12.750   4.093 -35.448  1.00  0.00     0.028 A 
HETATM   21  C   UNL     1     -12.304   5.401 -35.366  1.00  0.00     0.117 A 
HETATM   22  N   UNL     1     -11.039   5.740 -35.058  1.00  0.00    -0.271 NA
HETATM   23  C   UNL     1     -10.178   4.720 -34.811  1.00  0.00     0.146 A 
ENDBRANCH  13  17
ENDBRANCH   9  11
ENDBRANCH   1   9
TORSDOF 3
ENDMDL
MODEL 5
REMARK VINA RESULT:      -7.6      4.685      7.319
REMARK  3 active torsions:
REMARK  status: ('A' for Active; 'I' for Inactive)
REMARK    1  A    between atoms: C_3  and  N_4 
REMARK       I    between atoms: N_4  and  C_5 
REMARK       I    between atoms: C_5  and  N_6 
REMARK    2  A    between atoms: N_6  and  C_7 
REMARK    3  A    between atoms: C_7  and  C_8 
ROOT
HETATM    1  C   UNL     1      -6.369  -0.289 -33.798  1.00  0.00    -0.036 A 
HETATM    2  C   UNL     1      -5.074  -0.739 -33.505  1.00  0.00     0.011 A 
HETATM    3  C   UNL     1      -4.700  -2.063 -33.763  1.00  0.00     0.023 A 
HETATM    4  C   UNL     1      -5.617  -2.962 -34.314  1.00  0.00     0.044 A 
HETATM    5  C   UNL     1      -5.231  -4.315 -34.584  1.00  0.00     0.099 C 
HETATM    6  N   UNL     1      -4.917  -5.410 -34.807  1.00  0.00    -0.191 NA
HETATM    7  C   UNL     1      -6.914  -2.533 -34.599  1.00  0.00     0.023 A 
HETATM    8  C   UNL     1      -7.286  -1.211 -34.341  1.00  0.00     0.011 A 
ENDROOT
BRANCH   1   9
HETATM    9  C   UNL     1      -6.837   1.136 -33.560  1.00  0.00     0.115 C 
HETATM   10  C   UNL     1      -5.732   2.183 -33.388  1.00  0.00     0.037 C 
BRANCH   9  11
HETATM   11  N   UNL     1      -7.719   1.168 -32.396  1.00  0.00    -0.335 N 
HETATM   12  C   UNL     1      -9.058   1.435 -32.397  1.00  0.00     0.321 C 
HETATM   13  N   UNL     1      -9.731   0.996 -33.503  1.00  0.00    -0.307 N 
HETATM   14  O   UNL     1      -9.546   1.999 -31.424  1.00  0.00    -0.247 OA
HETATM   15  H   UNL     1      -9.287   0.238 -33.990  1.00  0.00     0.170 HD
HETATM   16  H   UNL     1      -7.289   1.481 -31.534  1.00  0.00     0.165 HD
BRANCH  13  17
HETATM   17  C   UNL     1     -11.076   1.267 -33.842  1.00  0.00     0.059 A 
HETATM   18  C   UNL     1     -11.402   2.487 -34.463  1.00  0.00    -0.032 A 
HETATM   19  C   UNL     1     -10.364   3.510 -34.834  1.00  0.00     0.050 C 
HETATM   20  C   UNL     1     -12.744   2.748 -34.774  1.00  0.00     0.028 A 
HETATM   21  C   UNL     1     -13.707   1.807 -34.449  1.00  0.00     0.117 A 
HETATM   22  N   UNL     1     -13.431   0.638 -33.844  1.00  0.00    -0.271 NA
HETATM   23  C   UNL     1     -12.127   0.392 -33.558  1.00  0.00     0.146 A 
ENDBRANCH  13  17
ENDBRANCH   9  11
ENDBRANCH   1   9
TORSDOF 3
ENDMDL
MODEL 6
REMARK VINA RESULT:      -7.4      3.771      5.603
REMARK  3 active torsions:
REMARK  status: ('A' for Active; 'I' for Inactive)
REMARK    1  A    between atoms: C_3  and  N_4 
REMARK       I    between atoms: N_4  and  C_5 
REMARK       I    between atoms: C_5  and  N_6 
REMARK    2  A    between atoms: N_6  and  C_7 
REMARK    3  A    between atoms: C_7  and  C_8 
ROOT
HETATM    1  C   UNL     1      -5.379   0.013 -33.365  1.00  0.00    -0.036 A 
HETATM    2  C   UNL     1      -4.532  -1.032 -32.969  1.00  0.00     0.011 A 
HETATM    3  C   UNL     1      -4.692  -2.320 -33.491  1.00  0.00     0.023 A 
HETATM    4  C   UNL     1      -5.706  -2.587 -34.415  1.00  0.00     0.044 A 
HETATM    5  C   UNL     1      -5.865  -3.905 -34.954  1.00  0.00     0.099 C 
HETATM    6  N   UNL     1      -5.991  -4.972 -35.394  1.00  0.00    -0.191 NA
HETATM    7  C   UNL     1      -6.566  -1.561 -34.809  1.00  0.00     0.023 A 
HETATM    8  C   UNL     1      -6.404  -0.275 -34.287  1.00  0.00     0.011 A 
ENDROOT
BRANCH   1   9
HETATM    9  C   UNL     1      -5.252   1.438 -32.851  1.00  0.00     0.115 C 
HETATM   10  C   UNL     1      -3.919   1.792 -32.185  1.00  0.00     0.037 C 
BRANCH   9  11
HETATM   11  N   UNL     1      -6.345   1.717 -31.925  1.00  0.00    -0.335 N 
HETATM   12  C   UNL     1      -7.414   2.537 -32.152  1.00  0.00     0.321 C 
HETATM   13  N   UNL     1      -7.857   2.559 -33.445  1.00  0.00    -0.307 N 
HETATM   14  O   UNL     1      -7.901   3.143 -31.205  1.00  0.00    -0.247 OA
HETATM   15  H   UNL     1      -7.622   1.742 -33.982  1.00  0.00     0.170 HD
HETATM   16  H   UNL     1      -6.094   1.716 -30.943  1.00  0.00     0.165 HD
BRANCH  13  17
HETATM   17  C   UNL     1      -8.833   3.421 -33.994  1.00  0.00     0.059 A 
HETATM   18  C   UNL     1     -10.083   2.898 -34.374  1.00  0.00    -0.032 A 
HETATM   19  C   UNL     1     -10.454   1.455 -34.173  1.00  0.00     0.050 C 
HETATM   20  C   UNL     1     -11.033   3.763 -34.936  1.00  0.00     0.028 A 
HETATM   21  C   UNL     1     -10.707   5.098 -35.114  1.00  0.00     0.117 A 
HETATM   22  N   UNL     1      -9.518   5.626 -34.774  1.00  0.00    -0.271 NA
HETATM   23  C   UNL     1      -8.611   4.781 -34.221  1.00  0.00     0.146 A 
ENDBRANCH  13  17
ENDBRANCH   9  11
ENDBRANCH   1   9
TORSDOF 3
ENDMDL
MODEL 7
REMARK VINA RESULT:      -7.4     15.734     17.011
REMARK  3 active torsions:
REMARK  status: ('A' for Active; 'I' for Inactive)
REMARK    1  A    between atoms: C_3  and  N_4 
REMARK       I    between atoms: N_4  and  C_5 
REMARK       I    between atoms: C_5  and  N_6 
REMARK    2  A    between atoms: N_6  and  C_7 
REMARK    3  A    between atoms: C_7  and  C_8 
ROOT
HETATM    1  C   UNL     1      -5.922 -13.001 -38.529  1.00  0.00    -0.036 A 
HETATM    2  C   UNL     1      -6.060 -12.486 -39.826  1.00  0.00     0.011 A 
HETATM    3  C   UNL     1      -7.322 -12.162 -40.337  1.00  0.00     0.023 A 
HETATM    4  C   UNL     1      -8.468 -12.353 -39.562  1.00  0.00     0.044 A 
HETATM    5  C   UNL     1      -9.759 -12.015 -40.084  1.00  0.00     0.099 C 
HETATM    6  N   UNL     1     -10.804 -11.736 -40.506  1.00  0.00    -0.191 NA
HETATM    7  C   UNL     1      -8.349 -12.877 -38.274  1.00  0.00     0.023 A 
HETATM    8  C   UNL     1      -7.089 -13.199 -37.765  1.00  0.00     0.011 A 
ENDROOT
BRANCH   1   9
HETATM    9  C   UNL     1      -4.583 -13.358 -37.905  1.00  0.00     0.115 C 
HETATM   10  C   UNL     1      -4.548 -13.398 -36.374  1.00  0.00     0.037 C 
BRANCH   9  11
HETATM   11  N   UNL     1      -3.563 -12.433 -38.388  1.00  0.00    -0.335 N 
HETATM   12  C   UNL     1      -2.223 -12.679 -38.491  1.00  0.00     0.321 C 
HETATM   13  N   UNL     1      -1.899 -13.968 -38.812  1.00  0.00    -0.307 N 
HETATM   14  O   UNL     1      -1.440 -11.752 -38.328  1.00  0.00    -0.247 OA
HETATM   15  H   UNL     1      -2.626 -14.476 -39.287  1.00  0.00     0.170 HD
HETATM   16  H   UNL     1      -3.734 -11.454 -38.190  1.00  0.00     0.165 HD
BRANCH  13  17
HETATM   17  C   UNL     1      -0.607 -14.540 -38.833  1.00  0.00     0.059 A 
HETATM   18  C   UNL     1      -0.072 -15.081 -37.649  1.00  0.00    -0.032 A 
HETATM   19  C   UNL     1      -0.839 -15.126 -36.358  1.00  0.00     0.050 C 
HETATM   20  C   UNL     1       1.220 -15.626 -37.682  1.00  0.00     0.028 A 
HETATM   21  C   UNL     1       1.932 -15.602 -38.870  1.00  0.00     0.117 A 
HETATM   22  N   UNL     1       1.455 -15.082 -40.015  1.00  0.00    -0.271 NA
HETATM   23  C   UNL     1       0.199 -14.567 -39.973  1.00  0.00     0.146 A 
ENDBRANCH  13  17
ENDBRANCH   9  11
ENDBRANCH   1   9
TORSDOF 3
ENDMDL
MODEL 8
REMARK VINA RESULT:      -7.3     15.578     17.090
REMARK  3 active torsions:
REMARK  status: ('A' for Active; 'I' for Inactive)
REMARK    1  A    between atoms: C_3  and  N_4 
REMARK       I    between atoms: N_4  and  C_5 
REMARK       I    between atoms: C_5  and  N_6 
REMARK    2  A    between atoms: N_6  and  C_7 
REMARK    3  A    between atoms: C_7  and  C_8 
ROOT
HETATM    1  C   UNL     1      -6.988 -13.677 -37.950  1.00  0.00    -0.036 A 
HETATM    2  C   UNL     1      -7.780 -14.833 -37.995  1.00  0.00     0.011 A 
HETATM    3  C   UNL     1      -9.008 -14.834 -38.667  1.00  0.00     0.023 A 
HETATM    4  C   UNL     1      -9.467 -13.677 -39.302  1.00  0.00     0.044 A 
HETATM    5  C   UNL     1     -10.721 -13.681 -39.995  1.00  0.00     0.099 C 
HETATM    6  N   UNL     1     -11.735 -13.687 -40.561  1.00  0.00    -0.191 NA
HETATM    7  C   UNL     1      -8.697 -12.514 -39.255  1.00  0.00     0.023 A 
HETATM    8  C   UNL     1      -7.471 -12.515 -38.584  1.00  0.00     0.011 A 
ENDROOT
BRANCH   1   9
HETATM    9  C   UNL     1      -5.639 -13.609 -37.254  1.00  0.00     0.115 C 
HETATM   10  C   UNL     1      -5.680 -13.463 -35.730  1.00  0.00     0.037 C 
BRANCH   9  11
HETATM   11  N   UNL     1      -4.855 -12.518 -37.824  1.00  0.00    -0.335 N 
HETATM   12  C   UNL     1      -3.539 -12.564 -38.187  1.00  0.00     0.321 C 
HETATM   13  N   UNL     1      -3.121 -13.769 -38.680  1.00  0.00    -0.307 N 
HETATM   14  O   UNL     1      -2.863 -11.548 -38.081  1.00  0.00    -0.247 OA
HETATM   15  H   UNL     1      -3.854 -14.342 -39.061  1.00  0.00     0.170 HD
HETATM   16  H   UNL     1      -5.109 -11.589 -37.508  1.00  0.00     0.165 HD
BRANCH  13  17
HETATM   17  C   UNL     1      -1.794 -14.149 -38.984  1.00  0.00     0.059 A 
HETATM   18  C   UNL     1      -1.443 -14.429 -40.317  1.00  0.00    -0.032 A 
HETATM   19  C   UNL     1      -2.414 -14.293 -41.457  1.00  0.00     0.050 C 
HETATM   20  C   UNL     1      -0.128 -14.825 -40.599  1.00  0.00     0.028 A 
HETATM   21  C   UNL     1       0.779 -14.942 -39.558  1.00  0.00     0.117 A 
HETATM   22  N   UNL     1       0.472 -14.694 -38.272  1.00  0.00    -0.271 NA
HETATM   23  C   UNL     1      -0.801 -14.301 -38.013  1.00  0.00     0.146 A 
ENDBRANCH  13  17
ENDBRANCH   9  11
ENDBRANCH   1   9
TORSDOF 3
ENDMDL
MODEL 9
REMARK VINA RESULT:      -7.2      1.907      2.853
REMARK  3 active torsions:
REMARK  status: ('A' for Active; 'I' for Inactive)
REMARK    1  A    between atoms: C_3  and  N_4 
REMARK       I    between atoms: N_4  and  C_5 
REMARK       I    between atoms: C_5  and  N_6 
REMARK    2  A    between atoms: N_6  and  C_7 
REMARK    3  A    between atoms: C_7  and  C_8 
ROOT
HETATM    1  C   UNL     1      -3.761   0.816 -31.961  1.00  0.00    -0.036 A 
HETATM    2  C   UNL     1      -4.661   0.425 -32.963  1.00  0.00     0.011 A 
HETATM    3  C   UNL     1      -4.697  -0.899 -33.416  1.00  0.00     0.023 A 
HETATM    4  C   UNL     1      -3.829  -1.853 -32.878  1.00  0.00     0.044 A 
HETATM    5  C   UNL     1      -3.871  -3.210 -33.338  1.00  0.00     0.099 C 
HETATM    6  N   UNL     1      -3.909  -4.310 -33.707  1.00  0.00    -0.191 NA
HETATM    7  C   UNL     1      -2.919  -1.477 -31.890  1.00  0.00     0.023 A 
HETATM    8  C   UNL     1      -2.884  -0.155 -31.438  1.00  0.00     0.011 A 
ENDROOT
BRANCH   1   9
HETATM    9  C   UNL     1      -3.679   2.230 -31.411  1.00  0.00     0.115 C 
HETATM   10  C   UNL     1      -5.006   2.852 -30.966  1.00  0.00     0.037 C 
BRANCH   9  11
HETATM   11  N   UNL     1      -3.046   3.098 -32.401  1.00  0.00    -0.335 N 
HETATM   12  C   UNL     1      -2.532   4.344 -32.180  1.00  0.00     0.321 C 
HETATM   13  N   UNL     1      -1.969   4.524 -30.948  1.00  0.00    -0.307 N 
HETATM   14  O   UNL     1      -2.582   5.169 -33.085  1.00  0.00    -0.247 OA
HETATM   15  H   UNL     1      -1.662   3.677 -30.500  1.00  0.00     0.170 HD
HETATM   16  H   UNL     1      -3.410   3.020 -33.343  1.00  0.00     0.165 HD
BRANCH  13  17
HETATM   17  C   UNL     1      -1.505   5.738 -30.394  1.00  0.00     0.059 A 
HETATM   18  C   UNL     1      -0.122   5.986 -30.331  1.00  0.00    -0.032 A 
HETATM   19  C   UNL     1       0.900   5.029 -30.879  1.00  0.00     0.050 C 
HETATM   20  C   UNL     1       0.322   7.188 -29.760  1.00  0.00     0.028 A 
HETATM   21  C   UNL     1      -0.610   8.083 -29.263  1.00  0.00     0.117 A 
HETATM   22  N   UNL     1      -1.938   7.871 -29.296  1.00  0.00    -0.271 NA
HETATM   23  C   UNL     1      -2.356   6.710 -29.861  1.00  0.00     0.146 A 
ENDBRANCH  13  17
ENDBRANCH   9  11
ENDBRANCH   1   9
TORSDOF 3
ENDMDL
MODEL 10
REMARK VINA RESULT:      -7.2      5.261      9.828
REMARK  3 active torsions:
REMARK  status: ('A' for Active; 'I' for Inactive)
REMARK    1  A    between atoms: C_3  and  N_4 
REMARK       I    between atoms: N_4  and  C_5 
REMARK       I    between atoms: C_5  and  N_6 
REMARK    2  A    between atoms: N_6  and  C_7 
REMARK    3  A    between atoms: C_7  and  C_8 
ROOT
HETATM    1  C   UNL     1       0.268   6.983 -28.749  1.00  0.00    -0.036 A 
HETATM    2  C   UNL     1       0.081   6.375 -27.499  1.00  0.00     0.011 A 
HETATM    3  C   UNL     1       0.665   6.913 -26.346  1.00  0.00     0.023 A 
HETATM    4  C   UNL     1       1.452   8.065 -26.425  1.00  0.00     0.044 A 
HETATM    5  C   UNL     1       2.044   8.618 -25.243  1.00  0.00     0.099 C 
HETATM    6  N   UNL     1       2.520   9.069 -24.285  1.00  0.00    -0.191 NA
HETATM    7  C   UNL     1       1.659   8.674 -27.663  1.00  0.00     0.023 A 
HETATM    8  C   UNL     1       1.075   8.136 -28.813  1.00  0.00     0.011 A 
ENDROOT
BRANCH   1   9
HETATM    9  C   UNL     1      -0.349   6.463 -30.036  1.00  0.00     0.115 C 
HETATM   10  C   UNL     1       0.604   5.737 -30.990  1.00  0.00     0.037 C 
BRANCH   9  11
HETATM   11  N   UNL     1      -0.992   7.567 -30.743  1.00  0.00    -0.335 N 
HETATM   12  C   UNL     1      -2.012   7.470 -31.647  1.00  0.00     0.321 C 
HETATM   13  N   UNL     1      -2.907   6.467 -31.398  1.00  0.00    -0.307 N 
HETATM   14  O   UNL     1      -2.066   8.283 -32.562  1.00  0.00    -0.247 OA
HETATM   15  H   UNL     1      -2.946   6.169 -30.438  1.00  0.00     0.170 HD
HETATM   16  H   UNL     1      -0.391   8.353 -30.962  1.00  0.00     0.165 HD
BRANCH  13  17
HETATM   17  C   UNL     1      -3.960   6.039 -32.238  1.00  0.00     0.059 A 
HETATM   18  C   UNL     1      -3.699   5.092 -33.246  1.00  0.00    -0.032 A 
HETATM   19  C   UNL     1      -2.346   4.466 -33.440  1.00  0.00     0.050 C 
HETATM   20  C   UNL     1      -4.750   4.694 -34.084  1.00  0.00     0.028 A 
HETATM   21  C   UNL     1      -6.004   5.254 -33.906  1.00  0.00     0.117 A 
HETATM   22  N   UNL     1      -6.284   6.170 -32.962  1.00  0.00    -0.271 NA
HETATM   23  C   UNL     1      -5.261   6.540 -32.149  1.00  0.00     0.146 A 
ENDBRANCH  13  17
ENDBRANCH   9  11
ENDBRANCH   1   9
TORSDOF 3
ENDMDL
