MODEL 1
REMARK VINA RESULT:      -9.7      0.000      0.000
REMARK  9 active torsions:
REMARK  status: ('A' for Active; 'I' for Inactive)
REMARK    1  A    between atoms: C_4  and  S_5 
REMARK    2  A    between atoms: S_5  and  C_6 
REMARK    3  A    between atoms: C_6  and  C_7 
REMARK       I    between atoms: C_7  and  N_8 
REMARK    4  A    between atoms: N_8  and  C_9 
REMARK    5  A    between atoms: C_9  and  C_10 
REMARK    6  A    between atoms: C_20  and  C_21 
REMARK    7  A    between atoms: C_26  and  C_27 
REMARK       I    between atoms: C_27  and  N_28 
REMARK    8  A    between atoms: N_28  and  C_29 
REMARK    9  A    between atoms: C_31  and  C_32 
ROOT
HETATM    1  C   UNL     1      -6.534   6.705 -29.659  1.00  0.00     0.069 C 
HETATM    2  C   UNL     1      -5.727   5.583 -30.269  1.00  0.00     0.019 C 
HETATM    3  N   UNL     1      -6.430   4.409 -30.518  1.00  0.00    -0.353 N 
HETATM    4  C   UNL     1      -5.832   3.183 -30.778  1.00  0.00     0.087 C 
HETATM    5  C   UNL     1      -4.511   3.159 -31.068  1.00  0.00     0.057 C 
HETATM    6  C   UNL     1      -3.693   1.885 -31.208  1.00  0.00     0.019 C 
HETATM    7  N   UNL     1      -3.017   0.828 -31.324  1.00  0.00    -0.096 N 
HETATM    8  C   UNL     1      -3.728   4.463 -31.236  1.00  0.00     0.129 C 
HETATM    9  C   UNL     1      -4.408   5.655 -30.570  1.00  0.00     0.048 C 
HETATM   10  H   UNL     1      -7.329   4.338 -30.044  1.00  0.00     0.166 HD
ENDROOT
BRANCH   4  11
HETATM   11  S   UNL     1      -6.772   1.697 -30.722  1.00  0.00    -0.102 SA
BRANCH  11  12
HETATM   12  C   UNL     1      -7.410   1.695 -32.428  1.00  0.00     0.183 C 
BRANCH  12  13
HETATM   13  C   UNL     1      -6.565   0.945 -33.441  1.00  0.00     0.227 C 
HETATM   14  N   UNL     1      -5.835  -0.130 -33.006  1.00  0.00    -0.356 N 
HETATM   15  H   UNL     1      -5.764  -0.304 -32.009  1.00  0.00     0.162 HD
HETATM   16  O   UNL     1      -6.528   1.331 -34.611  1.00  0.00    -0.273 OA
BRANCH  14  17
HETATM   17  C   UNL     1      -4.909  -0.794 -33.898  1.00  0.00     0.161 C 
BRANCH  17  18
HETATM   18  C   UNL     1      -5.274  -2.229 -34.168  1.00  0.00    -0.041 A 
HETATM   19  C   UNL     1      -6.530  -2.576 -34.687  1.00  0.00     0.009 A 
HETATM   20  C   UNL     1      -6.830  -3.905 -34.994  1.00  0.00     0.001 A 
HETATM   21  C   UNL     1      -5.874  -4.900 -34.801  1.00  0.00     0.000 A 
HETATM   22  C   UNL     1      -4.617  -4.567 -34.301  1.00  0.00     0.001 A 
HETATM   23  C   UNL     1      -4.317  -3.240 -33.989  1.00  0.00     0.009 A 
ENDBRANCH  17  18
ENDBRANCH  14  17
ENDBRANCH  12  13
ENDBRANCH  11  12
ENDBRANCH   4  11
BRANCH   8  24
HETATM   24  C   UNL     1      -3.444   4.722 -32.697  1.00  0.00     0.066 A 
HETATM   25  O   UNL     1      -2.157   4.534 -33.109  1.00  0.00    -0.326 OA
HETATM   26  C   UNL     1      -2.117   4.830 -34.434  1.00  0.00     0.142 A 
HETATM   27  C   UNL     1      -3.355   5.233 -34.874  1.00  0.00     0.027 A 
HETATM   28  C   UNL     1      -4.215   5.169 -33.753  1.00  0.00     0.035 A 
ENDBRANCH   8  24
BRANCH   9  29
HETATM   29  C   UNL     1      -3.578   6.831 -30.129  1.00  0.00     0.255 C 
HETATM   30  N   UNL     1      -3.055   6.743 -28.856  1.00  0.00    -0.323 N 
HETATM   31  H   UNL     1      -3.272   5.926 -28.299  1.00  0.00     0.169 HD
HETATM   32  O   UNL     1      -3.461   7.801 -30.873  1.00  0.00    -0.268 OA
BRANCH  30  33
HETATM   33  C   UNL     1      -2.226   7.681 -28.200  1.00  0.00     0.035 A 
HETATM   34  C   UNL     1      -0.842   7.550 -28.068  1.00  0.00     0.045 A 
HETATM   35  C   UNL     1      -0.088   8.519 -27.381  1.00  0.00     0.050 A 
HETATM   36  C   UNL     1      -0.743   9.632 -26.833  1.00  0.00     0.016 A 
HETATM   37  C   UNL     1      -2.121   9.771 -26.962  1.00  0.00     0.003 A 
HETATM   38  C   UNL     1      -2.858   8.796 -27.637  1.00  0.00     0.029 A 
BRANCH  35  39
HETATM   39  C   UNL     1       1.403   8.364 -27.204  1.00  0.00     0.417 C 
HETATM   40  F   UNL     1       2.141   8.886 -28.222  1.00  0.00    -0.166 F 
HETATM   41  F   UNL     1       1.857   8.966 -26.068  1.00  0.00    -0.166 F 
HETATM   42  F   UNL     1       1.776   7.058 -27.104  1.00  0.00    -0.166 F 
ENDBRANCH  35  39
ENDBRANCH  30  33
ENDBRANCH   9  29
TORSDOF 9
ENDMDL
MODEL 2
REMARK VINA RESULT:      -9.5      6.082     10.004
REMARK  9 active torsions:
REMARK  status: ('A' for Active; 'I' for Inactive)
REMARK    1  A    between atoms: C_4  and  S_5 
REMARK    2  A    between atoms: S_5  and  C_6 
REMARK    3  A    between atoms: C_6  and  C_7 
REMARK       I    between atoms: C_7  and  N_8 
REMARK    4  A    between atoms: N_8  and  C_9 
REMARK    5  A    between atoms: C_9  and  C_10 
REMARK    6  A    between atoms: C_20  and  C_21 
REMARK    7  A    between atoms: C_26  and  C_27 
REMARK       I    between atoms: C_27  and  N_28 
REMARK    8  A    between atoms: N_28  and  C_29 
REMARK    9  A    between atoms: C_31  and  C_32 
ROOT
HETATM    1  C   UNL     1      -6.595   3.563 -33.844  1.00  0.00     0.069 C 
HETATM    2  C   UNL     1      -8.015   3.553 -33.332  1.00  0.00     0.019 C 
HETATM    3  N   UNL     1      -8.644   4.792 -33.291  1.00  0.00    -0.353 N 
HETATM    4  C   UNL     1      -9.811   5.052 -32.582  1.00  0.00     0.087 C 
HETATM    5  C   UNL     1     -10.528   4.005 -32.116  1.00  0.00     0.057 C 
HETATM    6  C   UNL     1     -11.724   4.138 -31.188  1.00  0.00     0.019 C 
HETATM    7  N   UNL     1     -12.716   4.250 -30.418  1.00  0.00    -0.096 N 
HETATM    8  C   UNL     1     -10.135   2.571 -32.479  1.00  0.00     0.129 C 
HETATM    9  C   UNL     1      -8.681   2.446 -32.922  1.00  0.00     0.048 C 
HETATM   10  H   UNL     1      -8.020   5.594 -33.368  1.00  0.00     0.166 HD
ENDROOT
BRANCH   4  11
HETATM   11  S   UNL     1     -10.332   6.707 -32.290  1.00  0.00    -0.102 SA
BRANCH  11  12
HETATM   12  C   UNL     1      -8.870   7.315 -31.391  1.00  0.00     0.183 C 
BRANCH  12  13
HETATM   13  C   UNL     1      -8.329   6.388 -30.318  1.00  0.00     0.227 C 
HETATM   14  N   UNL     1      -7.032   5.957 -30.428  1.00  0.00    -0.356 N 
HETATM   15  H   UNL     1      -6.523   6.148 -31.285  1.00  0.00     0.162 HD
HETATM   16  O   UNL     1      -9.064   6.021 -29.400  1.00  0.00    -0.273 OA
BRANCH  14  17
HETATM   17  C   UNL     1      -6.510   4.967 -29.512  1.00  0.00     0.161 C 
BRANCH  17  18
HETATM   18  C   UNL     1      -5.525   4.028 -30.155  1.00  0.00    -0.041 A 
HETATM   19  C   UNL     1      -5.716   2.639 -30.124  1.00  0.00     0.009 A 
HETATM   20  C   UNL     1      -4.829   1.784 -30.781  1.00  0.00     0.001 A 
HETATM   21  C   UNL     1      -3.750   2.307 -31.490  1.00  0.00     0.000 A 
HETATM   22  C   UNL     1      -3.557   3.685 -31.543  1.00  0.00     0.001 A 
HETATM   23  C   UNL     1      -4.440   4.542 -30.882  1.00  0.00     0.009 A 
ENDBRANCH  17  18
ENDBRANCH  14  17
ENDBRANCH  12  13
ENDBRANCH  11  12
ENDBRANCH   4  11
BRANCH   8  24
HETATM   24  C   UNL     1     -11.087   2.009 -33.509  1.00  0.00     0.066 A 
HETATM   25  O   UNL     1     -11.240   2.735 -34.655  1.00  0.00    -0.326 OA
HETATM   26  C   UNL     1     -12.136   2.069 -35.428  1.00  0.00     0.142 A 
HETATM   27  C   UNL     1     -12.583   0.939 -34.785  1.00  0.00     0.027 A 
HETATM   28  C   UNL     1     -11.910   0.900 -33.542  1.00  0.00     0.035 A 
ENDBRANCH   8  24
BRANCH   9  29
HETATM   29  C   UNL     1      -7.967   1.131 -32.762  1.00  0.00     0.255 C 
HETATM   30  N   UNL     1      -7.244   0.711 -33.859  1.00  0.00    -0.323 N 
HETATM   31  H   UNL     1      -7.255   1.284 -34.694  1.00  0.00     0.169 HD
HETATM   32  O   UNL     1      -8.104   0.491 -31.723  1.00  0.00    -0.268 OA
BRANCH  30  33
HETATM   33  C   UNL     1      -6.464  -0.460 -33.978  1.00  0.00     0.035 A 
HETATM   34  C   UNL     1      -6.974  -1.711 -34.335  1.00  0.00     0.045 A 
HETATM   35  C   UNL     1      -6.133  -2.837 -34.413  1.00  0.00     0.050 A 
HETATM   36  C   UNL     1      -4.766  -2.690 -34.135  1.00  0.00     0.016 A 
HETATM   37  C   UNL     1      -4.250  -1.447 -33.781  1.00  0.00     0.003 A 
HETATM   38  C   UNL     1      -5.097  -0.341 -33.697  1.00  0.00     0.029 A 
BRANCH  35  39
HETATM   39  C   UNL     1      -6.684  -4.198 -34.762  1.00  0.00     0.417 C 
HETATM   40  F   UNL     1      -7.067  -4.325 -36.063  1.00  0.00    -0.166 F 
HETATM   41  F   UNL     1      -5.785  -5.197 -34.539  1.00  0.00    -0.166 F 
HETATM   42  F   UNL     1      -7.781  -4.515 -34.019  1.00  0.00    -0.166 F 
ENDBRANCH  35  39
ENDBRANCH  30  33
ENDBRANCH   9  29
TORSDOF 9
ENDMDL
MODEL 3
REMARK VINA RESULT:      -9.4      1.479      2.172
REMARK  9 active torsions:
REMARK  status: ('A' for Active; 'I' for Inactive)
REMARK    1  A    between atoms: C_4  and  S_5 
REMARK    2  A    between atoms: S_5  and  C_6 
REMARK    3  A    between atoms: C_6  and  C_7 
REMARK       I    between atoms: C_7  and  N_8 
REMARK    4  A    between atoms: N_8  and  C_9 
REMARK    5  A    between atoms: C_9  and  C_10 
REMARK    6  A    between atoms: C_20  and  C_21 
REMARK    7  A    between atoms: C_26  and  C_27 
REMARK       I    between atoms: C_27  and  N_28 
REMARK    8  A    between atoms: N_28  and  C_29 
REMARK    9  A    between atoms: C_31  and  C_32 
ROOT
HETATM    1  C   UNL     1      -5.530   7.316 -29.544  1.00  0.00     0.069 C 
HETATM    2  C   UNL     1      -4.953   6.090 -30.212  1.00  0.00     0.019 C 
HETATM    3  N   UNL     1      -5.856   5.059 -30.449  1.00  0.00    -0.353 N 
HETATM    4  C   UNL     1      -5.487   3.756 -30.761  1.00  0.00     0.087 C 
HETATM    5  C   UNL     1      -4.203   3.517 -31.113  1.00  0.00     0.057 C 
HETATM    6  C   UNL     1      -3.621   2.128 -31.316  1.00  0.00     0.019 C 
HETATM    7  N   UNL     1      -3.140   0.975 -31.484  1.00  0.00    -0.096 N 
HETATM    8  C   UNL     1      -3.218   4.674 -31.294  1.00  0.00     0.129 C 
HETATM    9  C   UNL     1      -3.656   5.946 -30.575  1.00  0.00     0.048 C 
HETATM   10  H   UNL     1      -6.732   5.128 -29.935  1.00  0.00     0.166 HD
ENDROOT
BRANCH   4  11
HETATM   11  S   UNL     1      -6.663   2.450 -30.687  1.00  0.00    -0.102 SA
BRANCH  11  12
HETATM   12  C   UNL     1      -7.721   2.936 -32.087  1.00  0.00     0.183 C 
BRANCH  12  13
HETATM   13  C   UNL     1      -8.024   1.839 -33.091  1.00  0.00     0.227 C 
HETATM   14  N   UNL     1      -8.029   0.541 -32.649  1.00  0.00    -0.356 N 
HETATM   15  H   UNL     1      -7.693   0.341 -31.713  1.00  0.00     0.162 HD
HETATM   16  O   UNL     1      -8.224   2.128 -34.272  1.00  0.00    -0.273 OA
BRANCH  14  17
HETATM   17  C   UNL     1      -8.175  -0.550 -33.587  1.00  0.00     0.161 C 
BRANCH  17  18
HETATM   18  C   UNL     1      -6.882  -1.268 -33.865  1.00  0.00    -0.041 A 
HETATM   19  C   UNL     1      -5.676  -0.848 -33.285  1.00  0.00     0.009 A 
HETATM   20  C   UNL     1      -4.496  -1.563 -33.499  1.00  0.00     0.001 A 
HETATM   21  C   UNL     1      -4.510  -2.715 -34.284  1.00  0.00     0.000 A 
HETATM   22  C   UNL     1      -5.703  -3.153 -34.853  1.00  0.00     0.001 A 
HETATM   23  C   UNL     1      -6.883  -2.436 -34.644  1.00  0.00     0.009 A 
ENDBRANCH  17  18
ENDBRANCH  14  17
ENDBRANCH  12  13
ENDBRANCH  11  12
ENDBRANCH   4  11
BRANCH   8  24
HETATM   24  C   UNL     1      -2.959   4.920 -32.762  1.00  0.00     0.066 A 
HETATM   25  O   UNL     1      -4.058   5.111 -33.549  1.00  0.00    -0.326 OA
HETATM   26  C   UNL     1      -3.608   5.299 -34.817  1.00  0.00     0.142 A 
HETATM   27  C   UNL     1      -2.237   5.203 -34.861  1.00  0.00     0.027 A 
HETATM   28  C   UNL     1      -1.815   4.954 -33.536  1.00  0.00     0.035 A 
ENDBRANCH   8  24
BRANCH   9  29
HETATM   29  C   UNL     1      -2.620   6.953 -30.151  1.00  0.00     0.255 C 
HETATM   30  N   UNL     1      -2.050   6.734 -28.915  1.00  0.00    -0.323 N 
HETATM   31  H   UNL     1      -2.369   5.943 -28.368  1.00  0.00     0.169 HD
HETATM   32  O   UNL     1      -2.384   7.917 -30.874  1.00  0.00    -0.268 OA
BRANCH  30  33
HETATM   33  C   UNL     1      -1.043   7.498 -28.284  1.00  0.00     0.035 A 
HETATM   34  C   UNL     1      -1.255   8.302 -27.161  1.00  0.00     0.045 A 
HETATM   35  C   UNL     1      -0.202   9.050 -26.602  1.00  0.00     0.050 A 
HETATM   36  C   UNL     1       1.073   8.975 -27.181  1.00  0.00     0.016 A 
HETATM   37  C   UNL     1       1.292   8.174 -28.297  1.00  0.00     0.003 A 
HETATM   38  C   UNL     1       0.237   7.446 -28.849  1.00  0.00     0.029 A 
BRANCH  35  39
HETATM   39  C   UNL     1      -0.433   9.949 -25.412  1.00  0.00     0.417 C 
HETATM   40  F   UNL     1      -1.094  11.102 -25.705  1.00  0.00    -0.166 F 
HETATM   41  F   UNL     1      -1.161   9.341 -24.434  1.00  0.00    -0.166 F 
HETATM   42  F   UNL     1       0.734  10.329 -24.821  1.00  0.00    -0.166 F 
ENDBRANCH  35  39
ENDBRANCH  30  33
ENDBRANCH   9  29
TORSDOF 9
ENDMDL
MODEL 4
REMARK VINA RESULT:      -9.4      4.544      9.597
REMARK  9 active torsions:
REMARK  status: ('A' for Active; 'I' for Inactive)
REMARK    1  A    between atoms: C_4  and  S_5 
REMARK    2  A    between atoms: S_5  and  C_6 
REMARK    3  A    between atoms: C_6  and  C_7 
REMARK       I    between atoms: C_7  and  N_8 
REMARK    4  A    between atoms: N_8  and  C_9 
REMARK    5  A    between atoms: C_9  and  C_10 
REMARK    6  A    between atoms: C_20  and  C_21 
REMARK    7  A    between atoms: C_26  and  C_27 
REMARK       I    between atoms: C_27  and  N_28 
REMARK    8  A    between atoms: N_28  and  C_29 
REMARK    9  A    between atoms: C_31  and  C_32 
ROOT
HETATM    1  C   UNL     1      -5.986   0.847 -29.356  1.00  0.00     0.069 C 
HETATM    2  C   UNL     1      -6.320   2.119 -30.098  1.00  0.00     0.019 C 
HETATM    3  N   UNL     1      -6.336   3.275 -29.324  1.00  0.00    -0.353 N 
HETATM    4  C   UNL     1      -6.906   4.476 -29.727  1.00  0.00     0.087 C 
HETATM    5  C   UNL     1      -7.236   4.627 -31.030  1.00  0.00     0.057 C 
HETATM    6  C   UNL     1      -8.015   5.811 -31.578  1.00  0.00     0.019 C 
HETATM    7  N   UNL     1      -8.661   6.794 -32.032  1.00  0.00    -0.096 N 
HETATM    8  C   UNL     1      -6.864   3.554 -32.055  1.00  0.00     0.129 C 
HETATM    9  C   UNL     1      -6.597   2.192 -31.422  1.00  0.00     0.048 C 
HETATM   10  H   UNL     1      -6.370   3.118 -28.318  1.00  0.00     0.166 HD
ENDROOT
BRANCH   4  11
HETATM   11  S   UNL     1      -7.202   5.762 -28.564  1.00  0.00    -0.102 SA
BRANCH  11  12
HETATM   12  C   UNL     1      -5.639   5.673 -27.633  1.00  0.00     0.183 C 
BRANCH  12  13
HETATM   13  C   UNL     1      -4.583   6.688 -28.028  1.00  0.00     0.227 C 
HETATM   14  N   UNL     1      -3.719   6.362 -29.043  1.00  0.00    -0.356 N 
HETATM   15  H   UNL     1      -3.716   5.411 -29.396  1.00  0.00     0.162 HD
HETATM   16  O   UNL     1      -4.502   7.755 -27.419  1.00  0.00    -0.273 OA
BRANCH  14  17
HETATM   17  C   UNL     1      -2.610   7.232 -29.366  1.00  0.00     0.161 C 
BRANCH  17  18
HETATM   18  C   UNL     1      -2.073   7.014 -30.755  1.00  0.00    -0.041 A 
HETATM   19  C   UNL     1      -2.270   7.961 -31.770  1.00  0.00     0.009 A 
HETATM   20  C   UNL     1      -1.710   7.776 -33.035  1.00  0.00     0.001 A 
HETATM   21  C   UNL     1      -0.933   6.649 -33.297  1.00  0.00     0.000 A 
HETATM   22  C   UNL     1      -0.715   5.708 -32.294  1.00  0.00     0.001 A 
HETATM   23  C   UNL     1      -1.279   5.889 -31.030  1.00  0.00     0.009 A 
ENDBRANCH  17  18
ENDBRANCH  14  17
ENDBRANCH  12  13
ENDBRANCH  11  12
ENDBRANCH   4  11
BRANCH   8  24
HETATM   24  C   UNL     1      -5.701   4.016 -32.903  1.00  0.00     0.066 A 
HETATM   25  O   UNL     1      -6.009   4.514 -34.136  1.00  0.00    -0.326 OA
HETATM   26  C   UNL     1      -4.836   4.854 -34.730  1.00  0.00     0.142 A 
HETATM   27  C   UNL     1      -3.775   4.557 -33.907  1.00  0.00     0.027 A 
HETATM   28  C   UNL     1      -4.331   4.010 -32.727  1.00  0.00     0.035 A 
ENDBRANCH   8  24
BRANCH   9  29
HETATM   29  C   UNL     1      -6.788   0.943 -32.241  1.00  0.00     0.255 C 
HETATM   30  N   UNL     1      -5.628   0.317 -32.646  1.00  0.00    -0.323 N 
HETATM   31  H   UNL     1      -4.740   0.735 -32.397  1.00  0.00     0.169 HD
HETATM   32  O   UNL     1      -7.923   0.588 -32.545  1.00  0.00    -0.268 OA
BRANCH  30  33
HETATM   33  C   UNL     1      -5.510  -0.875 -33.395  1.00  0.00     0.035 A 
HETATM   34  C   UNL     1      -4.677  -1.942 -33.050  1.00  0.00     0.045 A 
HETATM   35  C   UNL     1      -4.601  -3.088 -33.862  1.00  0.00     0.050 A 
HETATM   36  C   UNL     1      -5.381  -3.156 -35.025  1.00  0.00     0.016 A 
HETATM   37  C   UNL     1      -6.215  -2.098 -35.375  1.00  0.00     0.003 A 
HETATM   38  C   UNL     1      -6.273  -0.962 -34.567  1.00  0.00     0.029 A 
BRANCH  35  39
HETATM   39  C   UNL     1      -3.675  -4.229 -33.513  1.00  0.00     0.417 C 
HETATM   40  F   UNL     1      -2.808  -4.564 -34.507  1.00  0.00    -0.166 F 
HETATM   41  F   UNL     1      -2.905  -3.959 -32.422  1.00  0.00    -0.166 F 
HETATM   42  F   UNL     1      -4.356  -5.369 -33.212  1.00  0.00    -0.166 F 
ENDBRANCH  35  39
ENDBRANCH  30  33
ENDBRANCH   9  29
TORSDOF 9
ENDMDL
MODEL 5
REMARK VINA RESULT:      -9.0      1.997      3.874
REMARK  9 active torsions:
REMARK  status: ('A' for Active; 'I' for Inactive)
REMARK    1  A    between atoms: C_4  and  S_5 
REMARK    2  A    between atoms: S_5  and  C_6 
REMARK    3  A    between atoms: C_6  and  C_7 
REMARK       I    between atoms: C_7  and  N_8 
REMARK    4  A    between atoms: N_8  and  C_9 
REMARK    5  A    between atoms: C_9  and  C_10 
REMARK    6  A    between atoms: C_20  and  C_21 
REMARK    7  A    between atoms: C_26  and  C_27 
REMARK       I    between atoms: C_27  and  N_28 
REMARK    8  A    between atoms: N_28  and  C_29 
REMARK    9  A    between atoms: C_31  and  C_32 
ROOT
HETATM    1  C   UNL     1      -4.079   2.110 -31.382  1.00  0.00     0.069 C 
HETATM    2  C   UNL     1      -5.245   3.069 -31.333  1.00  0.00     0.019 C 
HETATM    3  N   UNL     1      -6.502   2.479 -31.269  1.00  0.00    -0.353 N 
HETATM    4  C   UNL     1      -7.692   3.149 -31.523  1.00  0.00     0.087 C 
HETATM    5  C   UNL     1      -7.671   4.500 -31.580  1.00  0.00     0.057 C 
HETATM    6  C   UNL     1      -8.853   5.352 -32.013  1.00  0.00     0.019 C 
HETATM    7  N   UNL     1      -9.834   6.058 -32.372  1.00  0.00    -0.096 N 
HETATM    8  C   UNL     1      -6.395   5.273 -31.240  1.00  0.00     0.129 C 
HETATM    9  C   UNL     1      -5.135   4.420 -31.351  1.00  0.00     0.048 C 
HETATM   10  H   UNL     1      -6.525   1.490 -31.511  1.00  0.00     0.166 HD
ENDROOT
BRANCH   4  11
HETATM   11  S   UNL     1      -9.187   2.257 -31.774  1.00  0.00    -0.102 SA
BRANCH  11  12
HETATM   12  C   UNL     1      -8.518   0.563 -31.754  1.00  0.00     0.183 C 
BRANCH  12  13
HETATM   13  C   UNL     1      -7.962   0.063 -33.075  1.00  0.00     0.227 C 
HETATM   14  N   UNL     1      -6.662  -0.372 -33.107  1.00  0.00    -0.356 N 
HETATM   15  H   UNL     1      -6.073  -0.213 -32.297  1.00  0.00     0.162 HD
HETATM   16  O   UNL     1      -8.669   0.086 -34.084  1.00  0.00    -0.273 OA
BRANCH  14  17
HETATM   17  C   UNL     1      -6.042  -0.728 -34.364  1.00  0.00     0.161 C 
BRANCH  17  18
HETATM   18  C   UNL     1      -5.730  -2.196 -34.475  1.00  0.00    -0.041 A 
HETATM   19  C   UNL     1      -4.462  -2.699 -34.152  1.00  0.00     0.009 A 
HETATM   20  C   UNL     1      -4.207  -4.071 -34.196  1.00  0.00     0.001 A 
HETATM   21  C   UNL     1      -5.222  -4.958 -34.549  1.00  0.00     0.000 A 
HETATM   22  C   UNL     1      -6.491  -4.475 -34.857  1.00  0.00     0.001 A 
HETATM   23  C   UNL     1      -6.746  -3.103 -34.818  1.00  0.00     0.009 A 
ENDBRANCH  17  18
ENDBRANCH  14  17
ENDBRANCH  12  13
ENDBRANCH  11  12
ENDBRANCH   4  11
BRANCH   8  24
HETATM   24  C   UNL     1      -6.517   5.918 -29.879  1.00  0.00     0.066 A 
HETATM   25  O   UNL     1      -5.786   5.357 -28.873  1.00  0.00    -0.326 OA
HETATM   26  C   UNL     1      -6.049   6.072 -27.748  1.00  0.00     0.142 A 
HETATM   27  C   UNL     1      -6.960   7.067 -28.010  1.00  0.00     0.027 A 
HETATM   28  C   UNL     1      -7.269   6.968 -29.387  1.00  0.00     0.035 A 
ENDBRANCH   8  24
BRANCH   9  29
HETATM   29  C   UNL     1      -3.811   5.083 -31.624  1.00  0.00     0.255 C 
HETATM   30  N   UNL     1      -3.059   5.386 -30.509  1.00  0.00    -0.323 N 
HETATM   31  H   UNL     1      -3.441   5.173 -29.595  1.00  0.00     0.169 HD
HETATM   32  O   UNL     1      -3.503   5.363 -32.778  1.00  0.00    -0.268 OA
BRANCH  30  33
HETATM   33  C   UNL     1      -1.779   5.982 -30.470  1.00  0.00     0.035 A 
HETATM   34  C   UNL     1      -1.289   6.724 -29.393  1.00  0.00     0.045 A 
HETATM   35  C   UNL     1      -0.008   7.304 -29.440  1.00  0.00     0.050 A 
HETATM   36  C   UNL     1       0.783   7.123 -30.584  1.00  0.00     0.016 A 
HETATM   37  C   UNL     1       0.303   6.383 -31.661  1.00  0.00     0.003 A 
HETATM   38  C   UNL     1      -0.974   5.823 -31.605  1.00  0.00     0.029 A 
BRANCH  35  39
HETATM   39  C   UNL     1       0.512   8.137 -28.294  1.00  0.00     0.417 C 
HETATM   40  F   UNL     1       0.561   7.476 -27.104  1.00  0.00    -0.166 F 
HETATM   41  F   UNL     1       1.775   8.598 -28.516  1.00  0.00    -0.166 F 
HETATM   42  F   UNL     1      -0.252   9.243 -28.074  1.00  0.00    -0.166 F 
ENDBRANCH  35  39
ENDBRANCH  30  33
ENDBRANCH   9  29
TORSDOF 9
ENDMDL
MODEL 6
REMARK VINA RESULT:      -9.0      2.965      4.704
REMARK  9 active torsions:
REMARK  status: ('A' for Active; 'I' for Inactive)
REMARK    1  A    between atoms: C_4  and  S_5 
REMARK    2  A    between atoms: S_5  and  C_6 
REMARK    3  A    between atoms: C_6  and  C_7 
REMARK       I    between atoms: C_7  and  N_8 
REMARK    4  A    between atoms: N_8  and  C_9 
REMARK    5  A    between atoms: C_9  and  C_10 
REMARK    6  A    between atoms: C_20  and  C_21 
REMARK    7  A    between atoms: C_26  and  C_27 
REMARK       I    between atoms: C_27  and  N_28 
REMARK    8  A    between atoms: N_28  and  C_29 
REMARK    9  A    between atoms: C_31  and  C_32 
ROOT
HETATM    1  C   UNL     1      -5.873   2.730 -30.146  1.00  0.00     0.069 C 
HETATM    2  C   UNL     1      -6.865   3.406 -31.062  1.00  0.00     0.019 C 
HETATM    3  N   UNL     1      -7.993   2.657 -31.378  1.00  0.00    -0.353 N 
HETATM    4  C   UNL     1      -8.860   2.954 -32.422  1.00  0.00     0.087 C 
HETATM    5  C   UNL     1      -8.769   4.170 -33.008  1.00  0.00     0.057 C 
HETATM    6  C   UNL     1      -9.531   4.569 -34.262  1.00  0.00     0.019 C 
HETATM    7  N   UNL     1     -10.163   4.899 -35.301  1.00  0.00    -0.096 N 
HETATM    8  C   UNL     1      -7.827   5.236 -32.445  1.00  0.00     0.129 C 
HETATM    9  C   UNL     1      -6.718   4.652 -31.575  1.00  0.00     0.048 C 
HETATM   10  H   UNL     1      -7.920   1.662 -31.172  1.00  0.00     0.166 HD
ENDROOT
BRANCH   4  11
HETATM   11  S   UNL     1     -10.038   1.770 -32.973  1.00  0.00    -0.102 SA
BRANCH  11  12
HETATM   12  C   UNL     1      -8.987   0.833 -34.127  1.00  0.00     0.183 C 
BRANCH  12  13
HETATM   13  C   UNL     1      -7.729   0.233 -33.527  1.00  0.00     0.227 C 
HETATM   14  N   UNL     1      -6.649   0.038 -34.349  1.00  0.00    -0.356 N 
HETATM   15  H   UNL     1      -6.766   0.161 -35.349  1.00  0.00     0.162 HD
HETATM   16  O   UNL     1      -7.712  -0.091 -32.338  1.00  0.00    -0.273 OA
BRANCH  14  17
HETATM   17  C   UNL     1      -5.476  -0.655 -33.863  1.00  0.00     0.161 C 
BRANCH  17  18
HETATM   18  C   UNL     1      -5.465  -2.118 -34.214  1.00  0.00    -0.041 A 
HETATM   19  C   UNL     1      -4.334  -2.915 -33.986  1.00  0.00     0.009 A 
HETATM   20  C   UNL     1      -4.361  -4.284 -34.256  1.00  0.00     0.001 A 
HETATM   21  C   UNL     1      -5.524  -4.877 -34.744  1.00  0.00     0.000 A 
HETATM   22  C   UNL     1      -6.661  -4.101 -34.960  1.00  0.00     0.001 A 
HETATM   23  C   UNL     1      -6.633  -2.731 -34.695  1.00  0.00     0.009 A 
ENDBRANCH  17  18
ENDBRANCH  14  17
ENDBRANCH  12  13
ENDBRANCH  11  12
ENDBRANCH   4  11
BRANCH   8  24
HETATM   24  C   UNL     1      -8.614   6.299 -31.713  1.00  0.00     0.066 A 
HETATM   25  O   UNL     1      -9.084   5.963 -30.477  1.00  0.00    -0.326 OA
HETATM   26  C   UNL     1      -9.765   7.041 -30.007  1.00  0.00     0.142 A 
HETATM   27  C   UNL     1      -9.762   8.055 -30.935  1.00  0.00     0.027 A 
HETATM   28  C   UNL     1      -9.023   7.577 -32.041  1.00  0.00     0.035 A 
ENDBRANCH   8  24
BRANCH   9  29
HETATM   29  C   UNL     1      -5.423   5.403 -31.419  1.00  0.00     0.255 C 
HETATM   30  N   UNL     1      -4.424   5.052 -32.302  1.00  0.00    -0.323 N 
HETATM   31  H   UNL     1      -4.606   4.313 -32.969  1.00  0.00     0.169 HD
HETATM   32  O   UNL     1      -5.306   6.221 -30.511  1.00  0.00    -0.268 OA
BRANCH  30  33
HETATM   33  C   UNL     1      -3.128   5.606 -32.398  1.00  0.00     0.035 A 
HETATM   34  C   UNL     1      -2.097   5.358 -31.488  1.00  0.00     0.045 A 
HETATM   35  C   UNL     1      -0.837   5.964 -31.642  1.00  0.00     0.050 A 
HETATM   36  C   UNL     1      -0.620   6.821 -32.732  1.00  0.00     0.016 A 
HETATM   37  C   UNL     1      -1.641   7.071 -33.644  1.00  0.00     0.003 A 
HETATM   38  C   UNL     1      -2.889   6.471 -33.473  1.00  0.00     0.029 A 
BRANCH  35  39
HETATM   39  C   UNL     1       0.268   5.728 -30.643  1.00  0.00     0.417 C 
HETATM   40  F   UNL     1       0.720   6.861 -30.036  1.00  0.00    -0.166 F 
HETATM   41  F   UNL     1      -0.110   4.892 -29.635  1.00  0.00    -0.166 F 
HETATM   42  F   UNL     1       1.362   5.149 -31.212  1.00  0.00    -0.166 F 
ENDBRANCH  35  39
ENDBRANCH  30  33
ENDBRANCH   9  29
TORSDOF 9
ENDMDL
MODEL 7
REMARK VINA RESULT:      -8.9      7.280     11.363
REMARK  9 active torsions:
REMARK  status: ('A' for Active; 'I' for Inactive)
REMARK    1  A    between atoms: C_4  and  S_5 
REMARK    2  A    between atoms: S_5  and  C_6 
REMARK    3  A    between atoms: C_6  and  C_7 
REMARK       I    between atoms: C_7  and  N_8 
REMARK    4  A    between atoms: N_8  and  C_9 
REMARK    5  A    between atoms: C_9  and  C_10 
REMARK    6  A    between atoms: C_20  and  C_21 
REMARK    7  A    between atoms: C_26  and  C_27 
REMARK       I    between atoms: C_27  and  N_28 
REMARK    8  A    between atoms: N_28  and  C_29 
REMARK    9  A    between atoms: C_31  and  C_32 
ROOT
HETATM    1  C   UNL     1      -6.399   3.460 -33.876  1.00  0.00     0.069 C 
HETATM    2  C   UNL     1      -7.818   3.508 -33.360  1.00  0.00     0.019 C 
HETATM    3  N   UNL     1      -8.394   4.773 -33.313  1.00  0.00    -0.353 N 
HETATM    4  C   UNL     1      -9.547   5.078 -32.600  1.00  0.00     0.087 C 
HETATM    5  C   UNL     1     -10.307   4.060 -32.138  1.00  0.00     0.057 C 
HETATM    6  C   UNL     1     -11.495   4.240 -31.207  1.00  0.00     0.019 C 
HETATM    7  N   UNL     1     -12.479   4.390 -30.434  1.00  0.00    -0.096 N 
HETATM    8  C   UNL     1      -9.976   2.612 -32.508  1.00  0.00     0.129 C 
HETATM    9  C   UNL     1      -8.529   2.428 -32.955  1.00  0.00     0.048 C 
HETATM   10  H   UNL     1      -7.736   5.547 -33.388  1.00  0.00     0.166 HD
ENDROOT
BRANCH   4  11
HETATM   11  S   UNL     1      -9.997   6.752 -32.300  1.00  0.00    -0.102 SA
BRANCH  11  12
HETATM   12  C   UNL     1     -11.141   6.997 -33.696  1.00  0.00     0.183 C 
BRANCH  12  13
HETATM   13  C   UNL     1     -10.489   7.175 -35.054  1.00  0.00     0.227 C 
HETATM   14  N   UNL     1     -10.495   8.426 -35.615  1.00  0.00    -0.356 N 
HETATM   15  H   UNL     1     -11.053   9.155 -35.183  1.00  0.00     0.162 HD
HETATM   16  O   UNL     1     -10.002   6.202 -35.632  1.00  0.00    -0.273 OA
BRANCH  14  17
HETATM   17  C   UNL     1     -10.011   8.625 -36.964  1.00  0.00     0.161 C 
BRANCH  17  18
HETATM   18  C   UNL     1     -11.101   8.991 -37.935  1.00  0.00    -0.041 A 
HETATM   19  C   UNL     1     -10.853   9.841 -39.022  1.00  0.00     0.009 A 
HETATM   20  C   UNL     1     -11.858  10.119 -39.952  1.00  0.00     0.001 A 
HETATM   21  C   UNL     1     -13.117   9.538 -39.814  1.00  0.00     0.000 A 
HETATM   22  C   UNL     1     -13.373   8.679 -38.748  1.00  0.00     0.001 A 
HETATM   23  C   UNL     1     -12.371   8.404 -37.815  1.00  0.00     0.009 A 
ENDBRANCH  17  18
ENDBRANCH  14  17
ENDBRANCH  12  13
ENDBRANCH  11  12
ENDBRANCH   4  11
BRANCH   8  24
HETATM   24  C   UNL     1     -10.952   2.096 -33.539  1.00  0.00     0.066 A 
HETATM   25  O   UNL     1     -11.236   2.932 -34.579  1.00  0.00    -0.326 OA
HETATM   26  C   UNL     1     -12.132   2.288 -35.371  1.00  0.00     0.142 A 
HETATM   27  C   UNL     1     -12.450   1.061 -34.840  1.00  0.00     0.027 A 
HETATM   28  C   UNL     1     -11.692   0.935 -33.653  1.00  0.00     0.035 A 
ENDBRANCH   8  24
BRANCH   9  29
HETATM   29  C   UNL     1      -7.870   1.083 -32.802  1.00  0.00     0.255 C 
HETATM   30  N   UNL     1      -7.098   0.677 -33.869  1.00  0.00    -0.323 N 
HETATM   31  H   UNL     1      -7.039   1.279 -34.681  1.00  0.00     0.169 HD
HETATM   32  O   UNL     1      -8.092   0.413 -31.798  1.00  0.00    -0.268 OA
BRANCH  30  33
HETATM   33  C   UNL     1      -6.352  -0.517 -33.986  1.00  0.00     0.035 A 
HETATM   34  C   UNL     1      -6.890  -1.745 -34.378  1.00  0.00     0.045 A 
HETATM   35  C   UNL     1      -6.084  -2.896 -34.451  1.00  0.00     0.050 A 
HETATM   36  C   UNL     1      -4.722  -2.798 -34.132  1.00  0.00     0.016 A 
HETATM   37  C   UNL     1      -4.177  -1.577 -33.743  1.00  0.00     0.003 A 
HETATM   38  C   UNL     1      -4.991  -0.446 -33.664  1.00  0.00     0.029 A 
BRANCH  35  39
HETATM   39  C   UNL     1      -6.668  -4.232 -34.839  1.00  0.00     0.417 C 
HETATM   40  F   UNL     1      -5.786  -5.267 -34.763  1.00  0.00    -0.166 F 
HETATM   41  F   UNL     1      -7.726  -4.586 -34.056  1.00  0.00    -0.166 F 
HETATM   42  F   UNL     1      -7.137  -4.237 -36.118  1.00  0.00    -0.166 F 
ENDBRANCH  35  39
ENDBRANCH  30  33
ENDBRANCH   9  29
TORSDOF 9
ENDMDL
MODEL 8
REMARK VINA RESULT:      -8.9      4.353     10.363
REMARK  9 active torsions:
REMARK  status: ('A' for Active; 'I' for Inactive)
REMARK    1  A    between atoms: C_4  and  S_5 
REMARK    2  A    between atoms: S_5  and  C_6 
REMARK    3  A    between atoms: C_6  and  C_7 
REMARK       I    between atoms: C_7  and  N_8 
REMARK    4  A    between atoms: N_8  and  C_9 
REMARK    5  A    between atoms: C_9  and  C_10 
REMARK    6  A    between atoms: C_20  and  C_21 
REMARK    7  A    between atoms: C_26  and  C_27 
REMARK       I    between atoms: C_27  and  N_28 
REMARK    8  A    between atoms: N_28  and  C_29 
REMARK    9  A    between atoms: C_31  and  C_32 
ROOT
HETATM    1  C   UNL     1      -5.843   0.720 -29.467  1.00  0.00     0.069 C 
HETATM    2  C   UNL     1      -6.229   2.020 -30.133  1.00  0.00     0.019 C 
HETATM    3  N   UNL     1      -6.222   3.139 -29.307  1.00  0.00    -0.353 N 
HETATM    4  C   UNL     1      -6.828   4.348 -29.627  1.00  0.00     0.087 C 
HETATM    5  C   UNL     1      -7.222   4.552 -30.904  1.00  0.00     0.057 C 
HETATM    6  C   UNL     1      -8.042   5.748 -31.360  1.00  0.00     0.019 C 
HETATM    7  N   UNL     1      -8.723   6.740 -31.737  1.00  0.00    -0.096 N 
HETATM    8  C   UNL     1      -6.886   3.532 -31.994  1.00  0.00     0.129 C 
HETATM    9  C   UNL     1      -6.571   2.148 -31.438  1.00  0.00     0.048 C 
HETATM   10  H   UNL     1      -6.205   2.936 -28.309  1.00  0.00     0.166 HD
ENDROOT
BRANCH   4  11
HETATM   11  S   UNL     1      -7.084   5.575 -28.394  1.00  0.00    -0.102 SA
BRANCH  11  12
HETATM   12  C   UNL     1      -5.363   5.784 -27.834  1.00  0.00     0.183 C 
BRANCH  12  13
HETATM   13  C   UNL     1      -4.591   6.909 -28.499  1.00  0.00     0.227 C 
HETATM   14  N   UNL     1      -3.476   7.393 -27.863  1.00  0.00    -0.356 N 
HETATM   15  H   UNL     1      -3.285   7.093 -26.913  1.00  0.00     0.162 HD
HETATM   16  O   UNL     1      -4.991   7.379 -29.565  1.00  0.00    -0.273 OA
BRANCH  14  17
HETATM   17  C   UNL     1      -2.785   8.553 -28.382  1.00  0.00     0.161 C 
BRANCH  17  18
HETATM   18  C   UNL     1      -1.298   8.505 -28.154  1.00  0.00    -0.041 A 
HETATM   19  C   UNL     1      -0.475   7.637 -28.887  1.00  0.00     0.009 A 
HETATM   20  C   UNL     1       0.910   7.652 -28.710  1.00  0.00     0.001 A 
HETATM   21  C   UNL     1       1.490   8.544 -27.811  1.00  0.00     0.000 A 
HETATM   22  C   UNL     1       0.688   9.423 -27.088  1.00  0.00     0.001 A 
HETATM   23  C   UNL     1      -0.698   9.406 -27.259  1.00  0.00     0.009 A 
ENDBRANCH  17  18
ENDBRANCH  14  17
ENDBRANCH  12  13
ENDBRANCH  11  12
ENDBRANCH   4  11
BRANCH   8  24
HETATM   24  C   UNL     1      -5.772   4.051 -32.875  1.00  0.00     0.066 A 
HETATM   25  O   UNL     1      -4.536   4.134 -32.303  1.00  0.00    -0.326 OA
HETATM   26  C   UNL     1      -3.696   4.629 -33.249  1.00  0.00     0.142 A 
HETATM   27  C   UNL     1      -4.381   4.891 -34.412  1.00  0.00     0.027 A 
HETATM   28  C   UNL     1      -5.724   4.523 -34.172  1.00  0.00     0.035 A 
ENDBRANCH   8  24
BRANCH   9  29
HETATM   29  C   UNL     1      -6.784   0.934 -32.302  1.00  0.00     0.255 C 
HETATM   30  N   UNL     1      -5.646   0.224 -32.618  1.00  0.00    -0.323 N 
HETATM   31  H   UNL     1      -4.754   0.564 -32.281  1.00  0.00     0.169 HD
HETATM   32  O   UNL     1      -7.911   0.678 -32.716  1.00  0.00    -0.268 OA
BRANCH  30  33
HETATM   33  C   UNL     1      -5.555  -0.959 -33.386  1.00  0.00     0.035 A 
HETATM   34  C   UNL     1      -4.705  -2.027 -33.086  1.00  0.00     0.045 A 
HETATM   35  C   UNL     1      -4.658  -3.164 -33.913  1.00  0.00     0.050 A 
HETATM   36  C   UNL     1      -5.484  -3.221 -35.045  1.00  0.00     0.016 A 
HETATM   37  C   UNL     1      -6.335  -2.163 -35.349  1.00  0.00     0.003 A 
HETATM   38  C   UNL     1      -6.364  -1.036 -34.526  1.00  0.00     0.029 A 
BRANCH  35  39
HETATM   39  C   UNL     1      -3.716  -4.305 -33.615  1.00  0.00     0.417 C 
HETATM   40  F   UNL     1      -2.829  -4.569 -34.614  1.00  0.00    -0.166 F 
HETATM   41  F   UNL     1      -2.966  -4.083 -32.499  1.00  0.00    -0.166 F 
HETATM   42  F   UNL     1      -4.379  -5.473 -33.389  1.00  0.00    -0.166 F 
ENDBRANCH  35  39
ENDBRANCH  30  33
ENDBRANCH   9  29
TORSDOF 9
ENDMDL
MODEL 9
REMARK VINA RESULT:      -8.7      5.880     10.383
REMARK  9 active torsions:
REMARK  status: ('A' for Active; 'I' for Inactive)
REMARK    1  A    between atoms: C_4  and  S_5 
REMARK    2  A    between atoms: S_5  and  C_6 
REMARK    3  A    between atoms: C_6  and  C_7 
REMARK       I    between atoms: C_7  and  N_8 
REMARK    4  A    between atoms: N_8  and  C_9 
REMARK    5  A    between atoms: C_9  and  C_10 
REMARK    6  A    between atoms: C_20  and  C_21 
REMARK    7  A    between atoms: C_26  and  C_27 
REMARK       I    between atoms: C_27  and  N_28 
REMARK    8  A    between atoms: N_28  and  C_29 
REMARK    9  A    between atoms: C_31  and  C_32 
ROOT
HETATM    1  C   UNL     1      -6.375   3.482 -33.822  1.00  0.00     0.069 C 
HETATM    2  C   UNL     1      -7.794   3.517 -33.306  1.00  0.00     0.019 C 
HETATM    3  N   UNL     1      -8.375   4.779 -33.244  1.00  0.00    -0.353 N 
HETATM    4  C   UNL     1      -9.530   5.072 -32.528  1.00  0.00     0.087 C 
HETATM    5  C   UNL     1     -10.286   4.045 -32.078  1.00  0.00     0.057 C 
HETATM    6  C   UNL     1     -11.474   4.209 -31.145  1.00  0.00     0.019 C 
HETATM    7  N   UNL     1     -12.460   4.346 -30.371  1.00  0.00    -0.096 N 
HETATM    8  C   UNL     1      -9.948   2.603 -32.463  1.00  0.00     0.129 C 
HETATM    9  C   UNL     1      -8.501   2.430 -32.912  1.00  0.00     0.048 C 
HETATM   10  H   UNL     1      -7.721   5.557 -33.310  1.00  0.00     0.166 HD
ENDROOT
BRANCH   4  11
HETATM   11  S   UNL     1      -9.987   6.740 -32.209  1.00  0.00    -0.102 SA
BRANCH  11  12
HETATM   12  C   UNL     1      -8.411   7.554 -32.621  1.00  0.00     0.183 C 
BRANCH  12  13
HETATM   13  C   UNL     1      -7.226   7.161 -31.759  1.00  0.00     0.227 C 
HETATM   14  N   UNL     1      -6.017   6.961 -32.374  1.00  0.00    -0.356 N 
HETATM   15  H   UNL     1      -5.980   6.939 -33.388  1.00  0.00     0.162 HD
HETATM   16  O   UNL     1      -7.377   6.999 -30.547  1.00  0.00    -0.273 OA
BRANCH  14  17
HETATM   17  C   UNL     1      -4.890   6.452 -31.623  1.00  0.00     0.161 C 
BRANCH  17  18
HETATM   18  C   UNL     1      -3.606   6.457 -32.408  1.00  0.00    -0.041 A 
HETATM   19  C   UNL     1      -2.707   7.531 -32.329  1.00  0.00     0.009 A 
HETATM   20  C   UNL     1      -1.490   7.492 -33.011  1.00  0.00     0.001 A 
HETATM   21  C   UNL     1      -1.149   6.373 -33.768  1.00  0.00     0.000 A 
HETATM   22  C   UNL     1      -2.024   5.292 -33.843  1.00  0.00     0.001 A 
HETATM   23  C   UNL     1      -3.244   5.332 -33.166  1.00  0.00     0.009 A 
ENDBRANCH  17  18
ENDBRANCH  14  17
ENDBRANCH  12  13
ENDBRANCH  11  12
ENDBRANCH   4  11
BRANCH   8  24
HETATM   24  C   UNL     1     -10.922   2.094 -33.500  1.00  0.00     0.066 A 
HETATM   25  O   UNL     1     -11.154   2.912 -34.568  1.00  0.00    -0.326 OA
HETATM   26  C   UNL     1     -12.058   2.279 -35.361  1.00  0.00     0.142 A 
HETATM   27  C   UNL     1     -12.431   1.079 -34.805  1.00  0.00     0.027 A 
HETATM   28  C   UNL     1     -11.702   0.958 -33.599  1.00  0.00     0.035 A 
ENDBRANCH   8  24
BRANCH   9  29
HETATM   29  C   UNL     1      -7.836   1.086 -32.775  1.00  0.00     0.255 C 
HETATM   30  N   UNL     1      -7.076   0.688 -33.854  1.00  0.00    -0.323 N 
HETATM   31  H   UNL     1      -7.030   1.294 -34.664  1.00  0.00     0.169 HD
HETATM   32  O   UNL     1      -8.043   0.411 -31.771  1.00  0.00    -0.268 OA
BRANCH  30  33
HETATM   33  C   UNL     1      -6.329  -0.504 -33.987  1.00  0.00     0.035 A 
HETATM   34  C   UNL     1      -6.869  -1.732 -34.377  1.00  0.00     0.045 A 
HETATM   35  C   UNL     1      -6.061  -2.880 -34.466  1.00  0.00     0.050 A 
HETATM   36  C   UNL     1      -4.695  -2.779 -34.165  1.00  0.00     0.016 A 
HETATM   37  C   UNL     1      -4.148  -1.559 -33.777  1.00  0.00     0.003 A 
HETATM   38  C   UNL     1      -4.964  -0.430 -33.683  1.00  0.00     0.029 A 
BRANCH  35  39
HETATM   39  C   UNL     1      -6.646  -4.216 -34.853  1.00  0.00     0.417 C 
HETATM   40  F   UNL     1      -5.762  -5.250 -34.787  1.00  0.00    -0.166 F 
HETATM   41  F   UNL     1      -7.696  -4.573 -34.061  1.00  0.00    -0.166 F 
HETATM   42  F   UNL     1      -7.126  -4.218 -36.127  1.00  0.00    -0.166 F 
ENDBRANCH  35  39
ENDBRANCH  30  33
ENDBRANCH   9  29
TORSDOF 9
ENDMDL
MODEL 10
REMARK VINA RESULT:      -8.4      6.240      9.492
REMARK  9 active torsions:
REMARK  status: ('A' for Active; 'I' for Inactive)
REMARK    1  A    between atoms: C_4  and  S_5 
REMARK    2  A    between atoms: S_5  and  C_6 
REMARK    3  A    between atoms: C_6  and  C_7 
REMARK       I    between atoms: C_7  and  N_8 
REMARK    4  A    between atoms: N_8  and  C_9 
REMARK    5  A    between atoms: C_9  and  C_10 
REMARK    6  A    between atoms: C_20  and  C_21 
REMARK    7  A    between atoms: C_26  and  C_27 
REMARK       I    between atoms: C_27  and  N_28 
REMARK    8  A    between atoms: N_28  and  C_29 
REMARK    9  A    between atoms: C_31  and  C_32 
ROOT
HETATM    1  C   UNL     1      -7.794   4.087 -33.820  1.00  0.00     0.069 C 
HETATM    2  C   UNL     1      -7.502   4.606 -32.432  1.00  0.00     0.019 C 
HETATM    3  N   UNL     1      -6.297   5.287 -32.291  1.00  0.00    -0.353 N 
HETATM    4  C   UNL     1      -5.700   5.570 -31.069  1.00  0.00     0.087 C 
HETATM    5  C   UNL     1      -6.434   5.417 -29.943  1.00  0.00     0.057 C 
HETATM    6  C   UNL     1      -5.867   5.527 -28.537  1.00  0.00     0.019 C 
HETATM    7  N   UNL     1      -5.395   5.617 -27.371  1.00  0.00    -0.096 N 
HETATM    8  C   UNL     1      -7.922   5.073 -30.026  1.00  0.00     0.129 C 
HETATM    9  C   UNL     1      -8.315   4.447 -31.360  1.00  0.00     0.048 C 
HETATM   10  H   UNL     1      -5.635   5.151 -33.053  1.00  0.00     0.166 HD
ENDROOT
BRANCH   4  11
HETATM   11  S   UNL     1      -4.025   6.103 -30.992  1.00  0.00    -0.102 SA
BRANCH  11  12
HETATM   12  C   UNL     1      -3.337   5.084 -32.334  1.00  0.00     0.183 C 
BRANCH  12  13
HETATM   13  C   UNL     1      -3.134   3.616 -32.004  1.00  0.00     0.227 C 
HETATM   14  N   UNL     1      -4.002   2.704 -32.548  1.00  0.00    -0.356 N 
HETATM   15  H   UNL     1      -4.829   3.041 -33.028  1.00  0.00     0.162 HD
HETATM   16  O   UNL     1      -2.226   3.281 -31.241  1.00  0.00    -0.273 OA
BRANCH  14  17
HETATM   17  C   UNL     1      -3.938   1.313 -32.157  1.00  0.00     0.161 C 
BRANCH  17  18
HETATM   18  C   UNL     1      -4.786   0.418 -33.020  1.00  0.00    -0.041 A 
HETATM   19  C   UNL     1      -4.417  -0.910 -33.277  1.00  0.00     0.009 A 
HETATM   20  C   UNL     1      -5.247  -1.748 -34.025  1.00  0.00     0.001 A 
HETATM   21  C   UNL     1      -6.463  -1.273 -34.512  1.00  0.00     0.000 A 
HETATM   22  C   UNL     1      -6.851   0.039 -34.251  1.00  0.00     0.001 A 
HETATM   23  C   UNL     1      -6.020   0.880 -33.508  1.00  0.00     0.009 A 
ENDBRANCH  17  18
ENDBRANCH  14  17
ENDBRANCH  12  13
ENDBRANCH  11  12
ENDBRANCH   4  11
BRANCH   8  24
HETATM   24  C   UNL     1      -8.762   6.287 -29.705  1.00  0.00     0.066 A 
HETATM   25  O   UNL     1      -9.413   6.869 -30.754  1.00  0.00    -0.326 OA
HETATM   26  C   UNL     1     -10.089   7.937 -30.257  1.00  0.00     0.142 A 
HETATM   27  C   UNL     1      -9.860   8.067 -28.908  1.00  0.00     0.027 A 
HETATM   28  C   UNL     1      -8.999   7.005 -28.549  1.00  0.00     0.035 A 
ENDBRANCH   8  24
BRANCH   9  29
HETATM   29  C   UNL     1      -9.519   3.547 -31.432  1.00  0.00     0.255 C 
HETATM   30  N   UNL     1     -10.656   4.118 -31.963  1.00  0.00    -0.323 N 
HETATM   31  H   UNL     1     -10.623   5.091 -32.244  1.00  0.00     0.169 HD
HETATM   32  O   UNL     1      -9.449   2.409 -30.978  1.00  0.00    -0.268 OA
BRANCH  30  33
HETATM   33  C   UNL     1     -11.911   3.504 -32.171  1.00  0.00     0.035 A 
HETATM   34  C   UNL     1     -12.143   2.482 -33.095  1.00  0.00     0.045 A 
HETATM   35  C   UNL     1     -13.428   1.934 -33.257  1.00  0.00     0.050 A 
HETATM   36  C   UNL     1     -14.483   2.421 -32.471  1.00  0.00     0.016 A 
HETATM   37  C   UNL     1     -14.260   3.437 -31.547  1.00  0.00     0.003 A 
HETATM   38  C   UNL     1     -12.982   3.979 -31.404  1.00  0.00     0.029 A 
BRANCH  35  39
HETATM   39  C   UNL     1     -13.692   0.855 -34.279  1.00  0.00     0.417 C 
HETATM   40  F   UNL     1     -14.980   0.809 -34.719  1.00  0.00    -0.166 F 
HETATM   41  F   UNL     1     -12.922   0.995 -35.395  1.00  0.00    -0.166 F 
HETATM   42  F   UNL     1     -13.419  -0.389 -33.795  1.00  0.00    -0.166 F 
ENDBRANCH  35  39
ENDBRANCH  30  33
ENDBRANCH   9  29
TORSDOF 9
ENDMDL
