MODEL 1
REMARK VINA RESULT:      -8.7      0.000      0.000
REMARK  4 active torsions:
REMARK  status: ('A' for Active; 'I' for Inactive)
REMARK    1  A    between atoms: C_9  and  N_10 
REMARK       I    between atoms: N_10  and  C_11 
REMARK    2  A    between atoms: C_11  and  C_12 
REMARK    3  A    between atoms: C_14  and  C_15 
REMARK    4  A    between atoms: C_22  and  C_23 
ROOT
HETATM    1  N   UNL     1      -4.787   2.785 -33.184  1.00  0.00    -0.322 N 
HETATM    2  C   UNL     1      -6.022   2.384 -32.704  1.00  0.00     0.277 C 
HETATM    3  O   UNL     1      -6.707   3.000 -31.894  1.00  0.00    -0.266 OA
HETATM    4  H   UNL     1      -4.389   2.150 -33.874  1.00  0.00     0.169 HD
ENDROOT
BRANCH   2   5
HETATM    5  C   UNL     1      -6.428   1.101 -33.272  1.00  0.00     0.157 A 
HETATM    6  N   UNL     1      -5.547   0.024 -33.375  1.00  0.00    -0.216 NA
HETATM    7  C   UNL     1      -6.285  -0.943 -33.891  1.00  0.00     0.180 A 
HETATM    8  O   UNL     1      -7.579  -0.582 -34.143  1.00  0.00    -0.293 OA
HETATM    9  C   UNL     1      -7.669   0.724 -33.749  1.00  0.00     0.094 A 
BRANCH   7  10
HETATM   10  C   UNL     1      -5.923  -2.323 -34.208  1.00  0.00     0.017 A 
HETATM   11  C   UNL     1      -4.621  -2.781 -33.956  1.00  0.00     0.016 A 
HETATM   12  C   UNL     1      -4.257  -4.099 -34.242  1.00  0.00     0.001 A 
HETATM   13  C   UNL     1      -5.191  -4.978 -34.785  1.00  0.00     0.000 A 
HETATM   14  C   UNL     1      -6.488  -4.541 -35.043  1.00  0.00     0.001 A 
HETATM   15  C   UNL     1      -6.851  -3.223 -34.757  1.00  0.00     0.016 A 
ENDBRANCH   7  10
BRANCH   9  16
HETATM   16  C   UNL     1      -8.941   1.547 -33.834  1.00  0.00     0.046 A 
HETATM   17  C   UNL     1     -10.264   0.809 -33.805  1.00  0.00     0.012 A 
HETATM   18  C   UNL     1      -9.835   1.589 -32.610  1.00  0.00     0.012 A 
ENDBRANCH   9  16
ENDBRANCH   2   5
BRANCH   1  19
HETATM   19  C   UNL     1      -4.031   3.905 -32.794  1.00  0.00     0.035 A 
HETATM   20  C   UNL     1      -2.921   3.826 -31.949  1.00  0.00     0.039 A 
HETATM   21  C   UNL     1      -2.209   4.981 -31.662  1.00  0.00    -0.022 A 
HETATM   22  C   UNL     1      -0.973   5.107 -30.842  1.00  0.00     0.274 C 
HETATM   23  C   UNL     1      -2.583   6.215 -32.196  1.00  0.00    -0.025 A 
HETATM   24  N   UNL     1      -0.724   6.609 -30.741  1.00  0.00    -0.067 N 
HETATM   25  C   UNL     1       0.710   6.993 -30.827  1.00  0.00     0.270 C 
HETATM   26  H   UNL     1      -1.088   6.893 -29.825  1.00  0.00     0.280 HD
HETATM   27  C   UNL     1      -1.621   7.275 -31.780  1.00  0.00     0.273 C 
HETATM   28  C   UNL     1      -3.687   6.320 -33.023  1.00  0.00     0.012 A 
HETATM   29  C   UNL     1      -4.410   5.157 -33.319  1.00  0.00     0.030 A 
ENDBRANCH   1  19
TORSDOF 4
ENDMDL
MODEL 2
REMARK VINA RESULT:      -8.6      3.699      6.833
REMARK  4 active torsions:
REMARK  status: ('A' for Active; 'I' for Inactive)
REMARK    1  A    between atoms: C_9  and  N_10 
REMARK       I    between atoms: N_10  and  C_11 
REMARK    2  A    between atoms: C_11  and  C_12 
REMARK    3  A    between atoms: C_14  and  C_15 
REMARK    4  A    between atoms: C_22  and  C_23 
ROOT
HETATM    1  N   UNL     1      -9.378   2.291 -34.621  1.00  0.00    -0.322 N 
HETATM    2  C   UNL     1      -8.969   1.718 -33.429  1.00  0.00     0.277 C 
HETATM    3  O   UNL     1      -9.498   1.889 -32.337  1.00  0.00    -0.266 OA
HETATM    4  H   UNL     1      -8.825   2.002 -35.427  1.00  0.00     0.169 HD
ENDROOT
BRANCH   2   5
HETATM    5  C   UNL     1      -7.791   0.874 -33.616  1.00  0.00     0.157 A 
HETATM    6  N   UNL     1      -7.887  -0.508 -33.781  1.00  0.00    -0.216 NA
HETATM    7  C   UNL     1      -6.636  -0.896 -33.956  1.00  0.00     0.180 A 
HETATM    8  O   UNL     1      -5.726   0.122 -33.911  1.00  0.00    -0.293 OA
HETATM    9  C   UNL     1      -6.464   1.252 -33.692  1.00  0.00     0.094 A 
BRANCH   7  10
HETATM   10  C   UNL     1      -6.102  -2.234 -34.205  1.00  0.00     0.017 A 
HETATM   11  C   UNL     1      -4.745  -2.500 -33.966  1.00  0.00     0.016 A 
HETATM   12  C   UNL     1      -4.216  -3.775 -34.188  1.00  0.00     0.001 A 
HETATM   13  C   UNL     1      -5.038  -4.800 -34.652  1.00  0.00     0.000 A 
HETATM   14  C   UNL     1      -6.387  -4.553 -34.894  1.00  0.00     0.001 A 
HETATM   15  C   UNL     1      -6.914  -3.278 -34.674  1.00  0.00     0.016 A 
ENDBRANCH   7  10
BRANCH   9  16
HETATM   16  C   UNL     1      -5.867   2.643 -33.580  1.00  0.00     0.046 A 
HETATM   17  C   UNL     1      -6.136   3.426 -32.311  1.00  0.00     0.012 A 
HETATM   18  C   UNL     1      -4.778   2.859 -32.548  1.00  0.00     0.012 A 
ENDBRANCH   9  16
ENDBRANCH   2   5
BRANCH   1  19
HETATM   19  C   UNL     1     -10.404   3.232 -34.819  1.00  0.00     0.035 A 
HETATM   20  C   UNL     1     -10.175   4.609 -34.908  1.00  0.00     0.039 A 
HETATM   21  C   UNL     1     -11.247   5.453 -35.155  1.00  0.00    -0.022 A 
HETATM   22  C   UNL     1     -11.215   6.930 -35.344  1.00  0.00     0.274 C 
HETATM   23  C   UNL     1     -12.542   4.958 -35.311  1.00  0.00    -0.025 A 
HETATM   24  N   UNL     1     -12.681   7.344 -35.428  1.00  0.00    -0.067 N 
HETATM   25  C   UNL     1     -12.955   8.406 -36.431  1.00  0.00     0.270 C 
HETATM   26  H   UNL     1     -12.927   7.697 -34.496  1.00  0.00     0.280 HD
HETATM   27  C   UNL     1     -13.489   6.065 -35.624  1.00  0.00     0.273 C 
HETATM   28  C   UNL     1     -12.794   3.600 -35.213  1.00  0.00     0.012 A 
HETATM   29  C   UNL     1     -11.716   2.740 -34.966  1.00  0.00     0.030 A 
ENDBRANCH   1  19
TORSDOF 4
ENDMDL
MODEL 3
REMARK VINA RESULT:      -8.5      1.564      1.933
REMARK  4 active torsions:
REMARK  status: ('A' for Active; 'I' for Inactive)
REMARK    1  A    between atoms: C_9  and  N_10 
REMARK       I    between atoms: N_10  and  C_11 
REMARK    2  A    between atoms: C_11  and  C_12 
REMARK    3  A    between atoms: C_14  and  C_15 
REMARK    4  A    between atoms: C_22  and  C_23 
ROOT
HETATM    1  N   UNL     1      -5.524   2.584 -32.143  1.00  0.00    -0.322 N 
HETATM    2  C   UNL     1      -6.155   2.504 -33.373  1.00  0.00     0.277 C 
HETATM    3  O   UNL     1      -6.401   3.452 -34.111  1.00  0.00    -0.266 OA
HETATM    4  H   UNL     1      -5.385   1.680 -31.694  1.00  0.00     0.169 HD
ENDROOT
BRANCH   2   5
HETATM    5  C   UNL     1      -6.523   1.128 -33.699  1.00  0.00     0.157 A 
HETATM    6  N   UNL     1      -5.572   0.113 -33.809  1.00  0.00    -0.216 NA
HETATM    7  C   UNL     1      -6.288  -0.967 -34.069  1.00  0.00     0.180 A 
HETATM    8  O   UNL     1      -7.633  -0.737 -34.148  1.00  0.00    -0.293 OA
HETATM    9  C   UNL     1      -7.782   0.601 -33.913  1.00  0.00     0.094 A 
BRANCH   7  10
HETATM   10  C   UNL     1      -5.853  -2.348 -34.264  1.00  0.00     0.017 A 
HETATM   11  C   UNL     1      -6.753  -3.302 -34.764  1.00  0.00     0.016 A 
HETATM   12  C   UNL     1      -6.355  -4.626 -34.967  1.00  0.00     0.001 A 
HETATM   13  C   UNL     1      -5.049  -5.014 -34.673  1.00  0.00     0.000 A 
HETATM   14  C   UNL     1      -4.143  -4.081 -34.176  1.00  0.00     0.001 A 
HETATM   15  C   UNL     1      -4.542  -2.758 -33.972  1.00  0.00     0.016 A 
ENDBRANCH   7  10
BRANCH   9  16
HETATM   16  C   UNL     1      -9.123   1.311 -33.890  1.00  0.00     0.046 A 
HETATM   17  C   UNL     1     -10.312   0.558 -33.330  1.00  0.00     0.012 A 
HETATM   18  C   UNL     1      -9.708   1.666 -32.537  1.00  0.00     0.012 A 
ENDBRANCH   9  16
ENDBRANCH   2   5
BRANCH   1  19
HETATM   19  C   UNL     1      -5.119   3.741 -31.454  1.00  0.00     0.035 A 
HETATM   20  C   UNL     1      -3.857   4.324 -31.608  1.00  0.00     0.039 A 
HETATM   21  C   UNL     1      -3.569   5.495 -30.923  1.00  0.00    -0.022 A 
HETATM   22  C   UNL     1      -2.322   6.304 -30.991  1.00  0.00     0.274 C 
HETATM   23  C   UNL     1      -4.508   6.095 -30.083  1.00  0.00    -0.025 A 
HETATM   24  N   UNL     1      -2.497   7.382 -29.926  1.00  0.00    -0.067 N 
HETATM   25  C   UNL     1      -1.983   8.719 -30.325  1.00  0.00     0.270 C 
HETATM   26  H   UNL     1      -1.971   7.056 -29.107  1.00  0.00     0.280 HD
HETATM   27  C   UNL     1      -3.968   7.364 -29.520  1.00  0.00     0.273 C 
HETATM   28  C   UNL     1      -5.758   5.528 -29.905  1.00  0.00     0.012 A 
HETATM   29  C   UNL     1      -6.058   4.346 -30.595  1.00  0.00     0.030 A 
ENDBRANCH   1  19
TORSDOF 4
ENDMDL
MODEL 4
REMARK VINA RESULT:      -8.4      2.077      8.720
REMARK  4 active torsions:
REMARK  status: ('A' for Active; 'I' for Inactive)
REMARK    1  A    between atoms: C_9  and  N_10 
REMARK       I    between atoms: N_10  and  C_11 
REMARK    2  A    between atoms: C_11  and  C_12 
REMARK    3  A    between atoms: C_14  and  C_15 
REMARK    4  A    between atoms: C_22  and  C_23 
ROOT
HETATM    1  N   UNL     1      -5.194   1.793 -32.366  1.00  0.00    -0.322 N 
HETATM    2  C   UNL     1      -5.221   3.071 -32.900  1.00  0.00     0.277 C 
HETATM    3  O   UNL     1      -5.689   3.378 -33.990  1.00  0.00    -0.266 OA
HETATM    4  H   UNL     1      -4.787   1.747 -31.434  1.00  0.00     0.169 HD
ENDROOT
BRANCH   2   5
HETATM    5  C   UNL     1      -4.596   4.040 -32.002  1.00  0.00     0.157 A 
HETATM    6  N   UNL     1      -3.235   4.337 -32.063  1.00  0.00    -0.216 NA
HETATM    7  C   UNL     1      -3.070   5.267 -31.139  1.00  0.00     0.180 A 
HETATM    8  O   UNL     1      -4.216   5.597 -30.471  1.00  0.00    -0.293 OA
HETATM    9  C   UNL     1      -5.190   4.812 -31.022  1.00  0.00     0.094 A 
BRANCH   7  10
HETATM   10  C   UNL     1      -1.861   5.991 -30.751  1.00  0.00     0.017 A 
HETATM   11  C   UNL     1      -1.921   6.962 -29.740  1.00  0.00     0.016 A 
HETATM   12  C   UNL     1      -0.775   7.659 -29.347  1.00  0.00     0.001 A 
HETATM   13  C   UNL     1       0.448   7.392 -29.960  1.00  0.00     0.000 A 
HETATM   14  C   UNL     1       0.525   6.432 -30.965  1.00  0.00     0.001 A 
HETATM   15  C   UNL     1      -0.621   5.737 -31.359  1.00  0.00     0.016 A 
ENDBRANCH   7  10
BRANCH   9  16
HETATM   16  C   UNL     1      -6.645   4.846 -30.594  1.00  0.00     0.046 A 
HETATM   17  C   UNL     1      -7.205   3.624 -29.895  1.00  0.00     0.012 A 
HETATM   18  C   UNL     1      -6.941   4.862 -29.108  1.00  0.00     0.012 A 
ENDBRANCH   9  16
ENDBRANCH   2   5
BRANCH   1  19
HETATM   19  C   UNL     1      -5.605   0.595 -32.976  1.00  0.00     0.035 A 
HETATM   20  C   UNL     1      -4.714  -0.398 -33.396  1.00  0.00     0.039 A 
HETATM   21  C   UNL     1      -5.221  -1.569 -33.941  1.00  0.00    -0.022 A 
HETATM   22  C   UNL     1      -4.458  -2.765 -34.391  1.00  0.00     0.274 C 
HETATM   23  C   UNL     1      -6.594  -1.770 -34.081  1.00  0.00    -0.025 A 
HETATM   24  N   UNL     1      -5.501  -3.672 -35.036  1.00  0.00    -0.067 N 
HETATM   25  C   UNL     1      -5.306  -5.119 -34.751  1.00  0.00     0.270 C 
HETATM   26  H   UNL     1      -5.418  -3.520 -36.048  1.00  0.00     0.280 HD
HETATM   27  C   UNL     1      -6.867  -3.126 -34.635  1.00  0.00     0.273 C 
HETATM   28  C   UNL     1      -7.493  -0.796 -33.686  1.00  0.00     0.012 A 
HETATM   29  C   UNL     1      -6.990   0.389 -33.132  1.00  0.00     0.030 A 
ENDBRANCH   1  19
TORSDOF 4
ENDMDL
MODEL 5
REMARK VINA RESULT:      -8.4      3.357      7.751
REMARK  4 active torsions:
REMARK  status: ('A' for Active; 'I' for Inactive)
REMARK    1  A    between atoms: C_9  and  N_10 
REMARK       I    between atoms: N_10  and  C_11 
REMARK    2  A    between atoms: C_11  and  C_12 
REMARK    3  A    between atoms: C_14  and  C_15 
REMARK    4  A    between atoms: C_22  and  C_23 
ROOT
HETATM    1  N   UNL     1      -9.563   1.528 -32.990  1.00  0.00    -0.322 N 
HETATM    2  C   UNL     1      -8.516   1.957 -33.789  1.00  0.00     0.277 C 
HETATM    3  O   UNL     1      -8.498   2.993 -34.444  1.00  0.00    -0.266 OA
HETATM    4  H   UNL     1      -9.375   0.654 -32.502  1.00  0.00     0.169 HD
ENDROOT
BRANCH   2   5
HETATM    5  C   UNL     1      -7.409   1.004 -33.779  1.00  0.00     0.157 A 
HETATM    6  N   UNL     1      -7.594  -0.349 -34.060  1.00  0.00    -0.216 NA
HETATM    7  C   UNL     1      -6.376  -0.858 -33.992  1.00  0.00     0.180 A 
HETATM    8  O   UNL     1      -5.408   0.055 -33.680  1.00  0.00    -0.293 OA
HETATM    9  C   UNL     1      -6.069   1.244 -33.543  1.00  0.00     0.094 A 
BRANCH   7  10
HETATM   10  C   UNL     1      -5.925  -2.230 -34.216  1.00  0.00     0.017 A 
HETATM   11  C   UNL     1      -6.829  -3.195 -34.688  1.00  0.00     0.016 A 
HETATM   12  C   UNL     1      -6.416  -4.510 -34.918  1.00  0.00     0.001 A 
HETATM   13  C   UNL     1      -5.093  -4.878 -34.680  1.00  0.00     0.000 A 
HETATM   14  C   UNL     1      -4.184  -3.933 -34.212  1.00  0.00     0.001 A 
HETATM   15  C   UNL     1      -4.597  -2.619 -33.981  1.00  0.00     0.016 A 
ENDBRANCH   7  10
BRANCH   9  16
HETATM   16  C   UNL     1      -5.387   2.557 -33.205  1.00  0.00     0.046 A 
HETATM   17  C   UNL     1      -5.722   3.207 -31.878  1.00  0.00     0.012 A 
HETATM   18  C   UNL     1      -4.393   2.558 -32.060  1.00  0.00     0.012 A 
ENDBRANCH   9  16
ENDBRANCH   2   5
BRANCH   1  19
HETATM   19  C   UNL     1     -10.827   2.124 -32.829  1.00  0.00     0.035 A 
HETATM   20  C   UNL     1     -12.016   1.529 -33.261  1.00  0.00     0.039 A 
HETATM   21  C   UNL     1     -13.219   2.173 -33.011  1.00  0.00    -0.022 A 
HETATM   22  C   UNL     1     -14.591   1.690 -33.329  1.00  0.00     0.274 C 
HETATM   23  C   UNL     1     -13.262   3.399 -32.346  1.00  0.00    -0.025 A 
HETATM   24  N   UNL     1     -15.507   2.858 -32.976  1.00  0.00    -0.067 N 
HETATM   25  C   UNL     1     -16.788   2.454 -32.339  1.00  0.00     0.270 C 
HETATM   26  H   UNL     1     -15.713   3.331 -33.864  1.00  0.00     0.280 HD
HETATM   27  C   UNL     1     -14.674   3.839 -32.156  1.00  0.00     0.273 C 
HETATM   28  C   UNL     1     -12.097   4.012 -31.922  1.00  0.00     0.012 A 
HETATM   29  C   UNL     1     -10.877   3.367 -32.169  1.00  0.00     0.030 A 
ENDBRANCH   1  19
TORSDOF 4
ENDMDL
MODEL 6
REMARK VINA RESULT:      -8.4      2.098      4.855
REMARK  4 active torsions:
REMARK  status: ('A' for Active; 'I' for Inactive)
REMARK    1  A    between atoms: C_9  and  N_10 
REMARK       I    between atoms: N_10  and  C_11 
REMARK    2  A    between atoms: C_11  and  C_12 
REMARK    3  A    between atoms: C_14  and  C_15 
REMARK    4  A    between atoms: C_22  and  C_23 
ROOT
HETATM    1  N   UNL     1      -6.328   2.846 -32.334  1.00  0.00    -0.322 N 
HETATM    2  C   UNL     1      -7.030   1.979 -31.513  1.00  0.00     0.277 C 
HETATM    3  O   UNL     1      -6.791   1.767 -30.329  1.00  0.00    -0.266 OA
HETATM    4  H   UNL     1      -6.700   2.905 -33.280  1.00  0.00     0.169 HD
ENDROOT
BRANCH   2   5
HETATM    5  C   UNL     1      -8.109   1.310 -32.236  1.00  0.00     0.157 A 
HETATM    6  N   UNL     1      -9.386   1.861 -32.338  1.00  0.00    -0.216 NA
HETATM    7  C   UNL     1     -10.048   0.996 -33.085  1.00  0.00     0.180 A 
HETATM    8  O   UNL     1      -9.307  -0.085 -33.475  1.00  0.00    -0.293 OA
HETATM    9  C   UNL     1      -8.069   0.116 -32.931  1.00  0.00     0.094 A 
BRANCH   7  10
HETATM   10  C   UNL     1     -11.430   1.039 -33.560  1.00  0.00     0.017 A 
HETATM   11  C   UNL     1     -12.250  -0.092 -33.431  1.00  0.00     0.016 A 
HETATM   12  C   UNL     1     -13.577  -0.069 -33.869  1.00  0.00     0.001 A 
HETATM   13  C   UNL     1     -14.102   1.088 -34.442  1.00  0.00     0.000 A 
HETATM   14  C   UNL     1     -13.302   2.220 -34.577  1.00  0.00     0.001 A 
HETATM   15  C   UNL     1     -11.976   2.195 -34.140  1.00  0.00     0.016 A 
ENDBRANCH   7  10
BRANCH   9  16
HETATM   16  C   UNL     1      -6.901  -0.836 -33.111  1.00  0.00     0.046 A 
HETATM   17  C   UNL     1      -6.807  -1.599 -34.417  1.00  0.00     0.012 A 
HETATM   18  C   UNL     1      -5.858  -0.481 -34.152  1.00  0.00     0.012 A 
ENDBRANCH   9  16
ENDBRANCH   2   5
BRANCH   1  19
HETATM   19  C   UNL     1      -5.172   3.584 -32.023  1.00  0.00     0.035 A 
HETATM   20  C   UNL     1      -5.186   4.732 -31.226  1.00  0.00     0.039 A 
HETATM   21  C   UNL     1      -3.985   5.363 -30.934  1.00  0.00    -0.022 A 
HETATM   22  C   UNL     1      -3.771   6.551 -30.064  1.00  0.00     0.274 C 
HETATM   23  C   UNL     1      -2.772   4.876 -31.423  1.00  0.00    -0.025 A 
HETATM   24  N   UNL     1      -2.294   6.894 -30.229  1.00  0.00    -0.067 N 
HETATM   25  C   UNL     1      -1.627   7.327 -28.972  1.00  0.00     0.270 C 
HETATM   26  H   UNL     1      -2.258   7.666 -30.905  1.00  0.00     0.280 HD
HETATM   27  C   UNL     1      -1.639   5.699 -30.914  1.00  0.00     0.273 C 
HETATM   28  C   UNL     1      -2.736   3.749 -32.224  1.00  0.00     0.012 A 
HETATM   29  C   UNL     1      -3.945   3.105 -32.523  1.00  0.00     0.030 A 
ENDBRANCH   1  19
TORSDOF 4
ENDMDL
MODEL 7
REMARK VINA RESULT:      -8.3      4.360      8.437
REMARK  4 active torsions:
REMARK  status: ('A' for Active; 'I' for Inactive)
REMARK    1  A    between atoms: C_9  and  N_10 
REMARK       I    between atoms: N_10  and  C_11 
REMARK    2  A    between atoms: C_11  and  C_12 
REMARK    3  A    between atoms: C_14  and  C_15 
REMARK    4  A    between atoms: C_22  and  C_23 
ROOT
HETATM    1  N   UNL     1      -8.838   1.729 -34.649  1.00  0.00    -0.322 N 
HETATM    2  C   UNL     1      -9.890   1.968 -33.780  1.00  0.00     0.277 C 
HETATM    3  O   UNL     1      -9.997   1.511 -32.647  1.00  0.00    -0.266 OA
HETATM    4  H   UNL     1      -8.918   2.224 -35.536  1.00  0.00     0.169 HD
ENDROOT
BRANCH   2   5
HETATM    5  C   UNL     1     -10.897   2.838 -34.383  1.00  0.00     0.157 A 
HETATM    6  N   UNL     1     -10.695   4.210 -34.537  1.00  0.00    -0.216 NA
HETATM    7  C   UNL     1     -11.792   4.628 -35.144  1.00  0.00     0.180 A 
HETATM    8  O   UNL     1     -12.701   3.638 -35.392  1.00  0.00    -0.293 OA
HETATM    9  C   UNL     1     -12.129   2.496 -34.904  1.00  0.00     0.094 A 
BRANCH   7  10
HETATM   10  C   UNL     1     -12.154   5.970 -35.594  1.00  0.00     0.017 A 
HETATM   11  C   UNL     1     -13.491   6.267 -35.904  1.00  0.00     0.016 A 
HETATM   12  C   UNL     1     -13.860   7.546 -36.326  1.00  0.00     0.001 A 
HETATM   13  C   UNL     1     -12.898   8.547 -36.445  1.00  0.00     0.000 A 
HETATM   14  C   UNL     1     -11.567   8.270 -36.142  1.00  0.00     0.001 A 
HETATM   15  C   UNL     1     -11.198   6.990 -35.721  1.00  0.00     0.016 A 
ENDBRANCH   7  10
BRANCH   9  16
HETATM   16  C   UNL     1     -12.783   1.128 -34.971  1.00  0.00     0.046 A 
HETATM   17  C   UNL     1     -13.117   0.440 -33.663  1.00  0.00     0.012 A 
HETATM   18  C   UNL     1     -14.217   1.009 -34.492  1.00  0.00     0.012 A 
ENDBRANCH   9  16
ENDBRANCH   2   5
BRANCH   1  19
HETATM   19  C   UNL     1      -7.743   0.867 -34.462  1.00  0.00     0.035 A 
HETATM   20  C   UNL     1      -6.623   1.205 -33.696  1.00  0.00     0.039 A 
HETATM   21  C   UNL     1      -5.615   0.267 -33.529  1.00  0.00    -0.022 A 
HETATM   22  C   UNL     1      -4.378   0.398 -32.712  1.00  0.00     0.274 C 
HETATM   23  C   UNL     1      -5.696  -0.998 -34.113  1.00  0.00    -0.025 A 
HETATM   24  N   UNL     1      -3.573  -0.861 -33.018  1.00  0.00    -0.067 N 
HETATM   25  C   UNL     1      -2.877  -1.438 -31.837  1.00  0.00     0.270 C 
HETATM   26  H   UNL     1      -2.870  -0.583 -33.713  1.00  0.00     0.280 HD
HETATM   27  C   UNL     1      -4.517  -1.825 -33.729  1.00  0.00     0.273 C 
HETATM   28  C   UNL     1      -6.789  -1.349 -34.886  1.00  0.00     0.012 A 
HETATM   29  C   UNL     1      -7.812  -0.407 -35.058  1.00  0.00     0.030 A 
ENDBRANCH   1  19
TORSDOF 4
ENDMDL
MODEL 8
REMARK VINA RESULT:      -8.3      1.406      2.047
REMARK  4 active torsions:
REMARK  status: ('A' for Active; 'I' for Inactive)
REMARK    1  A    between atoms: C_9  and  N_10 
REMARK       I    between atoms: N_10  and  C_11 
REMARK    2  A    between atoms: C_11  and  C_12 
REMARK    3  A    between atoms: C_14  and  C_15 
REMARK    4  A    between atoms: C_22  and  C_23 
ROOT
HETATM    1  N   UNL     1      -4.607   3.306 -32.808  1.00  0.00    -0.322 N 
HETATM    2  C   UNL     1      -5.011   2.418 -31.826  1.00  0.00     0.277 C 
HETATM    3  O   UNL     1      -4.839   2.561 -30.620  1.00  0.00    -0.266 OA
HETATM    4  H   UNL     1      -4.868   3.022 -33.751  1.00  0.00     0.169 HD
ENDROOT
BRANCH   2   5
HETATM    5  C   UNL     1      -5.671   1.247 -32.399  1.00  0.00     0.157 A 
HETATM    6  N   UNL     1      -4.952   0.151 -32.876  1.00  0.00    -0.216 NA
HETATM    7  C   UNL     1      -5.886  -0.697 -33.268  1.00  0.00     0.180 A 
HETATM    8  O   UNL     1      -7.162  -0.239 -33.093  1.00  0.00    -0.293 OA
HETATM    9  C   UNL     1      -7.023   1.004 -32.540  1.00  0.00     0.094 A 
BRANCH   7  10
HETATM   10  C   UNL     1      -5.750  -2.038 -33.834  1.00  0.00     0.017 A 
HETATM   11  C   UNL     1      -6.875  -2.693 -34.360  1.00  0.00     0.016 A 
HETATM   12  C   UNL     1      -6.764  -3.970 -34.915  1.00  0.00     0.001 A 
HETATM   13  C   UNL     1      -5.527  -4.611 -34.951  1.00  0.00     0.000 A 
HETATM   14  C   UNL     1      -4.401  -3.976 -34.434  1.00  0.00     0.001 A 
HETATM   15  C   UNL     1      -4.512  -2.699 -33.878  1.00  0.00     0.016 A 
ENDBRANCH   7  10
BRANCH   9  16
HETATM   16  C   UNL     1      -8.191   1.895 -32.160  1.00  0.00     0.046 A 
HETATM   17  C   UNL     1      -8.367   3.192 -32.923  1.00  0.00     0.012 A 
HETATM   18  C   UNL     1      -9.307   2.063 -33.173  1.00  0.00     0.012 A 
ENDBRANCH   9  16
ENDBRANCH   2   5
BRANCH   1  19
HETATM   19  C   UNL     1      -3.858   4.486 -32.650  1.00  0.00     0.035 A 
HETATM   20  C   UNL     1      -4.342   5.620 -31.991  1.00  0.00     0.039 A 
HETATM   21  C   UNL     1      -3.508   6.718 -31.842  1.00  0.00    -0.022 A 
HETATM   22  C   UNL     1      -3.801   7.991 -31.127  1.00  0.00     0.274 C 
HETATM   23  C   UNL     1      -2.205   6.713 -32.339  1.00  0.00    -0.025 A 
HETATM   24  N   UNL     1      -2.599   8.885 -31.414  1.00  0.00    -0.067 N 
HETATM   25  C   UNL     1      -2.166   9.709 -30.255  1.00  0.00     0.270 C 
HETATM   26  H   UNL     1      -2.889   9.510 -32.175  1.00  0.00     0.280 HD
HETATM   27  C   UNL     1      -1.511   7.986 -31.994  1.00  0.00     0.273 C 
HETATM   28  C   UNL     1      -1.710   5.607 -33.007  1.00  0.00     0.012 A 
HETATM   29  C   UNL     1      -2.545   4.493 -33.160  1.00  0.00     0.030 A 
ENDBRANCH   1  19
TORSDOF 4
ENDMDL
MODEL 9
REMARK VINA RESULT:      -8.1      2.873     10.000
REMARK  4 active torsions:
REMARK  status: ('A' for Active; 'I' for Inactive)
REMARK    1  A    between atoms: C_9  and  N_10 
REMARK       I    between atoms: N_10  and  C_11 
REMARK    2  A    between atoms: C_11  and  C_12 
REMARK    3  A    between atoms: C_14  and  C_15 
REMARK    4  A    between atoms: C_22  and  C_23 
ROOT
HETATM    1  N   UNL     1      -3.884   4.326 -30.874  1.00  0.00    -0.322 N 
HETATM    2  C   UNL     1      -4.219   5.669 -30.918  1.00  0.00     0.277 C 
HETATM    3  O   UNL     1      -5.345   6.117 -31.101  1.00  0.00    -0.266 OA
HETATM    4  H   UNL     1      -2.898   4.155 -30.682  1.00  0.00     0.169 HD
ENDROOT
BRANCH   2   5
HETATM    5  C   UNL     1      -3.046   6.520 -30.733  1.00  0.00     0.157 A 
HETATM    6  N   UNL     1      -2.611   6.917 -29.468  1.00  0.00    -0.216 NA
HETATM    7  C   UNL     1      -1.525   7.629 -29.714  1.00  0.00     0.180 A 
HETATM    8  O   UNL     1      -1.219   7.737 -31.042  1.00  0.00    -0.293 OA
HETATM    9  C   UNL     1      -2.192   7.030 -31.692  1.00  0.00     0.094 A 
BRANCH   7  10
HETATM   10  C   UNL     1      -0.613   8.289 -28.782  1.00  0.00     0.017 A 
HETATM   11  C   UNL     1      -1.071   9.353 -27.990  1.00  0.00     0.016 A 
HETATM   12  C   UNL     1      -0.218   9.991 -27.086  1.00  0.00     0.001 A 
HETATM   13  C   UNL     1       1.106   9.574 -26.962  1.00  0.00     0.000 A 
HETATM   14  C   UNL     1       1.577   8.520 -27.740  1.00  0.00     0.001 A 
HETATM   15  C   UNL     1       0.724   7.883 -28.645  1.00  0.00     0.016 A 
ENDBRANCH   7  10
BRANCH   9  16
HETATM   16  C   UNL     1      -2.253   6.864 -33.199  1.00  0.00     0.046 A 
HETATM   17  C   UNL     1      -0.942   6.772 -33.953  1.00  0.00     0.012 A 
HETATM   18  C   UNL     1      -1.774   5.548 -33.781  1.00  0.00     0.012 A 
ENDBRANCH   9  16
ENDBRANCH   2   5
BRANCH   1  19
HETATM   19  C   UNL     1      -4.719   3.219 -31.110  1.00  0.00     0.035 A 
HETATM   20  C   UNL     1      -4.926   2.671 -32.379  1.00  0.00     0.039 A 
HETATM   21  C   UNL     1      -5.730   1.547 -32.503  1.00  0.00    -0.022 A 
HETATM   22  C   UNL     1      -6.029   0.776 -33.741  1.00  0.00     0.274 C 
HETATM   23  C   UNL     1      -6.336   0.961 -31.391  1.00  0.00    -0.025 A 
HETATM   24  N   UNL     1      -7.076  -0.250 -33.318  1.00  0.00    -0.067 N 
HETATM   25  C   UNL     1      -6.899  -1.589 -33.941  1.00  0.00     0.270 C 
HETATM   26  H   UNL     1      -7.981   0.134 -33.610  1.00  0.00     0.280 HD
HETATM   27  C   UNL     1      -7.091  -0.260 -31.792  1.00  0.00     0.273 C 
HETATM   28  C   UNL     1      -6.156   1.495 -30.127  1.00  0.00     0.012 A 
HETATM   29  C   UNL     1      -5.344   2.630 -29.994  1.00  0.00     0.030 A 
ENDBRANCH   1  19
TORSDOF 4
ENDMDL
MODEL 10
REMARK VINA RESULT:      -8.0      3.806      6.471
REMARK  4 active torsions:
REMARK  status: ('A' for Active; 'I' for Inactive)
REMARK    1  A    between atoms: C_9  and  N_10 
REMARK       I    between atoms: N_10  and  C_11 
REMARK    2  A    between atoms: C_11  and  C_12 
REMARK    3  A    between atoms: C_14  and  C_15 
REMARK    4  A    between atoms: C_22  and  C_23 
ROOT
HETATM    1  N   UNL     1      -8.616   2.572 -33.765  1.00  0.00    -0.322 N 
HETATM    2  C   UNL     1      -7.246   2.402 -33.873  1.00  0.00     0.277 C 
HETATM    3  O   UNL     1      -6.451   3.251 -34.260  1.00  0.00    -0.266 OA
HETATM    4  H   UNL     1      -9.103   1.757 -33.395  1.00  0.00     0.169 HD
ENDROOT
BRANCH   2   5
HETATM    5  C   UNL     1      -6.840   1.056 -33.478  1.00  0.00     0.157 A 
HETATM    6  N   UNL     1      -6.653   0.035 -34.410  1.00  0.00    -0.216 NA
HETATM    7  C   UNL     1      -6.259  -0.994 -33.681  1.00  0.00     0.180 A 
HETATM    8  O   UNL     1      -6.180  -0.730 -32.342  1.00  0.00    -0.293 OA
HETATM    9  C   UNL     1      -6.553   0.579 -32.213  1.00  0.00     0.094 A 
BRANCH   7  10
HETATM   10  C   UNL     1      -5.885  -2.344 -34.099  1.00  0.00     0.017 A 
HETATM   11  C   UNL     1      -4.566  -2.790 -33.924  1.00  0.00     0.016 A 
HETATM   12  C   UNL     1      -4.190  -4.080 -34.308  1.00  0.00     0.001 A 
HETATM   13  C   UNL     1      -5.129  -4.942 -34.872  1.00  0.00     0.000 A 
HETATM   14  C   UNL     1      -6.442  -4.515 -35.053  1.00  0.00     0.001 A 
HETATM   15  C   UNL     1      -6.817  -3.225 -34.670  1.00  0.00     0.016 A 
ENDBRANCH   7  10
BRANCH   9  16
HETATM   16  C   UNL     1      -6.605   1.317 -30.888  1.00  0.00     0.046 A 
HETATM   17  C   UNL     1      -5.882   0.701 -29.708  1.00  0.00     0.012 A 
HETATM   18  C   UNL     1      -5.313   1.912 -30.364  1.00  0.00     0.012 A 
ENDBRANCH   9  16
ENDBRANCH   2   5
BRANCH   1  19
HETATM   19  C   UNL     1      -9.380   3.689 -34.147  1.00  0.00     0.035 A 
HETATM   20  C   UNL     1     -10.624   3.589 -34.777  1.00  0.00     0.039 A 
HETATM   21  C   UNL     1     -11.325   4.750 -35.069  1.00  0.00    -0.022 A 
HETATM   22  C   UNL     1     -12.680   4.864 -35.676  1.00  0.00     0.274 C 
HETATM   23  C   UNL     1     -10.812   6.008 -34.752  1.00  0.00    -0.025 A 
HETATM   24  N   UNL     1     -12.879   6.360 -35.905  1.00  0.00    -0.067 N 
HETATM   25  C   UNL     1     -14.258   6.838 -35.622  1.00  0.00     0.270 C 
HETATM   26  H   UNL     1     -12.670   6.522 -36.897  1.00  0.00     0.280 HD
HETATM   27  C   UNL     1     -11.786   7.075 -35.117  1.00  0.00     0.273 C 
HETATM   28  C   UNL     1      -9.576   6.131 -34.141  1.00  0.00     0.012 A 
HETATM   29  C   UNL     1      -8.863   4.964 -33.841  1.00  0.00     0.030 A 
ENDBRANCH   1  19
TORSDOF 4
ENDMDL
