MODEL 1
REMARK VINA RESULT:      -9.6      0.000      0.000
REMARK  5 active torsions:
REMARK  status: ('A' for Active; 'I' for Inactive)
REMARK    1  A    between atoms: C_3  and  O_4 
REMARK    2  A    between atoms: C_6  and  N_7 
REMARK       I    between atoms: N_7  and  C_8 
REMARK    3  A    between atoms: C_8  and  C_9 
REMARK    4  A    between atoms: C_12  and  C_13 
REMARK    5  A    between atoms: C_18  and  C_19 
ROOT
HETATM    1  C   UNL     1      -9.513   2.222 -32.711  1.00  0.00     0.096 A 
HETATM    2  C   UNL     1      -8.382   1.711 -32.100  1.00  0.00     0.138 A 
HETATM    3  N   UNL     1      -7.448   2.716 -32.139  1.00  0.00    -0.240 N 
HETATM    4  C   UNL     1      -6.102   2.621 -31.611  1.00  0.00     0.221 C 
HETATM    5  C   UNL     1      -5.982   1.412 -30.666  1.00  0.00     0.066 C 
HETATM    6  C   UNL     1      -6.734   0.156 -31.140  1.00  0.00     0.118 C 
HETATM    7  N   UNL     1      -8.097   0.499 -31.552  1.00  0.00    -0.365 N 
HETATM    8  N   UNL     1      -7.897   3.851 -32.699  1.00  0.00    -0.181 NA
HETATM    9  C   UNL     1      -9.134   3.532 -33.092  1.00  0.00     0.160 A 
HETATM   10  H   UNL     1      -8.636  -0.319 -31.848  1.00  0.00     0.161 HD
ENDROOT
BRANCH   1  11
HETATM   11  C   UNL     1     -10.801   1.587 -32.934  1.00  0.00     0.261 C 
HETATM   12  N   UNL     1     -11.850   2.489 -32.941  1.00  0.00    -0.323 N 
HETATM   13  H   UNL     1     -11.577   3.465 -32.947  1.00  0.00     0.169 HD
HETATM   14  O   UNL     1     -10.880   0.382 -33.134  1.00  0.00    -0.267 OA
BRANCH  12  15
HETATM   15  C   UNL     1     -13.228   2.215 -33.027  1.00  0.00     0.037 A 
HETATM   16  C   UNL     1     -13.801   1.409 -34.010  1.00  0.00     0.066 A 
HETATM   17  C   UNL     1     -15.175   1.170 -33.996  1.00  0.00     0.067 A 
HETATM   18  C   UNL     1     -15.995   1.726 -33.021  1.00  0.00     0.036 A 
HETATM   19  C   UNL     1     -15.427   2.533 -32.037  1.00  0.00     0.005 A 
HETATM   20  C   UNL     1     -14.050   2.771 -32.037  1.00  0.00     0.029 A 
BRANCH  17  21
HETATM   21  O   UNL     1     -15.689   0.362 -34.970  1.00  0.00    -0.361 OA
HETATM   22  H   UNL     1     -16.280   0.886 -35.534  1.00  0.00     0.217 HD
ENDBRANCH  17  21
ENDBRANCH  12  15
ENDBRANCH   1  11
BRANCH   4  23
HETATM   23  C   UNL     1      -5.087   2.625 -32.733  1.00  0.00     0.409 C 
HETATM   24  F   UNL     1      -4.736   3.859 -33.144  1.00  0.00    -0.169 F 
HETATM   25  F   UNL     1      -3.953   1.968 -32.401  1.00  0.00    -0.169 F 
HETATM   26  F   UNL     1      -5.594   1.977 -33.816  1.00  0.00    -0.169 F 
ENDBRANCH   4  23
BRANCH   6  27
HETATM   27  C   UNL     1      -5.999  -0.700 -32.159  1.00  0.00    -0.035 A 
HETATM   28  C   UNL     1      -6.684  -1.112 -33.320  1.00  0.00     0.012 A 
HETATM   29  C   UNL     1      -6.046  -1.881 -34.297  1.00  0.00     0.043 A 
HETATM   30  C   UNL     1      -4.719  -2.246 -34.124  1.00  0.00     0.116 A 
HETATM   31  F   UNL     1      -4.108  -2.982 -35.062  1.00  0.00    -0.206 F 
HETATM   32  C   UNL     1      -4.016  -1.855 -32.994  1.00  0.00     0.043 A 
HETATM   33  C   UNL     1      -4.651  -1.082 -32.018  1.00  0.00     0.012 A 
ENDBRANCH   6  27
TORSDOF 5
ENDMDL
MODEL 2
REMARK VINA RESULT:      -9.3      1.619      1.915
REMARK  5 active torsions:
REMARK  status: ('A' for Active; 'I' for Inactive)
REMARK    1  A    between atoms: C_3  and  O_4 
REMARK    2  A    between atoms: C_6  and  N_7 
REMARK       I    between atoms: N_7  and  C_8 
REMARK    3  A    between atoms: C_8  and  C_9 
REMARK    4  A    between atoms: C_12  and  C_13 
REMARK    5  A    between atoms: C_18  and  C_19 
ROOT
HETATM    1  C   UNL     1      -8.374   3.060 -31.725  1.00  0.00     0.096 A 
HETATM    2  C   UNL     1      -7.403   2.165 -31.313  1.00  0.00     0.138 A 
HETATM    3  N   UNL     1      -6.229   2.877 -31.278  1.00  0.00    -0.240 N 
HETATM    4  C   UNL     1      -4.940   2.334 -30.902  1.00  0.00     0.221 C 
HETATM    5  C   UNL     1      -5.115   0.986 -30.179  1.00  0.00     0.066 C 
HETATM    6  C   UNL     1      -6.208   0.082 -30.776  1.00  0.00     0.118 C 
HETATM    7  N   UNL     1      -7.440   0.843 -30.996  1.00  0.00    -0.365 N 
HETATM    8  N   UNL     1      -6.371   4.171 -31.603  1.00  0.00    -0.181 NA
HETATM    9  C   UNL     1      -7.665   4.268 -31.924  1.00  0.00     0.160 A 
HETATM   10  H   UNL     1      -8.198   0.265 -31.368  1.00  0.00     0.161 HD
ENDROOT
BRANCH   1  11
HETATM   11  C   UNL     1      -9.797   2.840 -31.924  1.00  0.00     0.261 C 
HETATM   12  N   UNL     1     -10.065   1.960 -32.956  1.00  0.00    -0.323 N 
HETATM   13  H   UNL     1      -9.256   1.474 -33.327  1.00  0.00     0.169 HD
HETATM   14  O   UNL     1     -10.622   3.372 -31.193  1.00  0.00    -0.267 OA
BRANCH  12  15
HETATM   15  C   UNL     1     -11.318   1.600 -33.485  1.00  0.00     0.037 A 
HETATM   16  C   UNL     1     -11.924   0.361 -33.278  1.00  0.00     0.066 A 
HETATM   17  C   UNL     1     -13.185   0.106 -33.818  1.00  0.00     0.067 A 
HETATM   18  C   UNL     1     -13.854   1.064 -34.571  1.00  0.00     0.036 A 
HETATM   19  C   UNL     1     -13.253   2.302 -34.783  1.00  0.00     0.005 A 
HETATM   20  C   UNL     1     -11.994   2.571 -34.238  1.00  0.00     0.029 A 
BRANCH  17  21
HETATM   21  O   UNL     1     -13.744  -1.115 -33.575  1.00  0.00    -0.361 OA
HETATM   22  H   UNL     1     -14.380  -1.031 -32.847  1.00  0.00     0.217 HD
ENDBRANCH  17  21
ENDBRANCH  12  15
ENDBRANCH   1  11
BRANCH   4  23
HETATM   23  C   UNL     1      -4.017   2.271 -32.099  1.00  0.00     0.409 C 
HETATM   24  F   UNL     1      -4.639   1.942 -33.248  1.00  0.00    -0.169 F 
HETATM   25  F   UNL     1      -3.367   3.438 -32.308  1.00  0.00    -0.169 F 
HETATM   26  F   UNL     1      -3.052   1.336 -31.890  1.00  0.00    -0.169 F 
ENDBRANCH   4  23
BRANCH   6  27
HETATM   27  C   UNL     1      -5.788  -0.740 -31.984  1.00  0.00    -0.035 A 
HETATM   28  C   UNL     1      -6.691  -0.880 -33.057  1.00  0.00     0.012 A 
HETATM   29  C   UNL     1      -6.345  -1.607 -34.199  1.00  0.00     0.043 A 
HETATM   30  C   UNL     1      -5.093  -2.200 -34.281  1.00  0.00     0.116 A 
HETATM   31  F   UNL     1      -4.762  -2.895 -35.377  1.00  0.00    -0.206 F 
HETATM   32  C   UNL     1      -4.181  -2.079 -33.243  1.00  0.00     0.043 A 
HETATM   33  C   UNL     1      -4.524  -1.349 -32.103  1.00  0.00     0.012 A 
ENDBRANCH   6  27
TORSDOF 5
ENDMDL
MODEL 3
REMARK VINA RESULT:      -9.3      4.197      7.701
REMARK  5 active torsions:
REMARK  status: ('A' for Active; 'I' for Inactive)
REMARK    1  A    between atoms: C_3  and  O_4 
REMARK    2  A    between atoms: C_6  and  N_7 
REMARK       I    between atoms: N_7  and  C_8 
REMARK    3  A    between atoms: C_8  and  C_9 
REMARK    4  A    between atoms: C_12  and  C_13 
REMARK    5  A    between atoms: C_18  and  C_19 
ROOT
HETATM    1  C   UNL     1      -6.323   3.824 -33.108  1.00  0.00     0.096 A 
HETATM    2  C   UNL     1      -6.866   2.712 -33.725  1.00  0.00     0.138 A 
HETATM    3  N   UNL     1      -7.976   2.380 -32.989  1.00  0.00    -0.240 N 
HETATM    4  C   UNL     1      -8.858   1.266 -33.273  1.00  0.00     0.221 C 
HETATM    5  C   UNL     1      -8.627   0.750 -34.704  1.00  0.00     0.066 C 
HETATM    6  C   UNL     1      -7.151   0.718 -35.139  1.00  0.00     0.118 C 
HETATM    7  N   UNL     1      -6.492   1.985 -34.812  1.00  0.00    -0.365 N 
HETATM    8  N   UNL     1      -8.213   3.209 -31.960  1.00  0.00    -0.181 NA
HETATM    9  C   UNL     1      -7.179   4.056 -32.004  1.00  0.00     0.160 A 
HETATM   10  H   UNL     1      -5.514   2.009 -35.112  1.00  0.00     0.161 HD
ENDROOT
BRANCH   1  11
HETATM   11  C   UNL     1      -5.146   4.594 -33.475  1.00  0.00     0.261 C 
HETATM   12  N   UNL     1      -4.263   4.759 -32.424  1.00  0.00    -0.323 N 
HETATM   13  H   UNL     1      -4.468   4.205 -31.600  1.00  0.00     0.169 HD
HETATM   14  O   UNL     1      -4.988   4.988 -34.623  1.00  0.00    -0.267 OA
BRANCH  12  15
HETATM   15  C   UNL     1      -3.083   5.525 -32.395  1.00  0.00     0.037 A 
HETATM   16  C   UNL     1      -3.060   6.919 -32.424  1.00  0.00     0.066 A 
HETATM   17  C   UNL     1      -1.841   7.595 -32.359  1.00  0.00     0.067 A 
HETATM   18  C   UNL     1      -0.638   6.904 -32.273  1.00  0.00     0.036 A 
HETATM   19  C   UNL     1      -0.655   5.512 -32.245  1.00  0.00     0.005 A 
HETATM   20  C   UNL     1      -1.872   4.826 -32.300  1.00  0.00     0.029 A 
BRANCH  17  21
HETATM   21  O   UNL     1      -1.870   8.960 -32.375  1.00  0.00    -0.361 OA
HETATM   22  H   UNL     1      -2.234   9.257 -33.224  1.00  0.00     0.217 HD
ENDBRANCH  17  21
ENDBRANCH  12  15
ENDBRANCH   1  11
BRANCH   4  23
HETATM   23  C   UNL     1      -8.729   0.198 -32.208  1.00  0.00     0.409 C 
HETATM   24  F   UNL     1      -9.560   0.369 -31.163  1.00  0.00    -0.169 F 
HETATM   25  F   UNL     1      -8.943  -1.044 -32.699  1.00  0.00    -0.169 F 
HETATM   26  F   UNL     1      -7.463   0.193 -31.711  1.00  0.00    -0.169 F 
ENDBRANCH   4  23
BRANCH   6  27
HETATM   27  C   UNL     1      -6.363  -0.501 -34.684  1.00  0.00    -0.035 A 
HETATM   28  C   UNL     1      -6.799  -1.779 -35.086  1.00  0.00     0.012 A 
HETATM   29  C   UNL     1      -6.099  -2.929 -34.713  1.00  0.00     0.043 A 
HETATM   30  C   UNL     1      -4.955  -2.813 -33.937  1.00  0.00     0.116 A 
HETATM   31  F   UNL     1      -4.283  -3.916 -33.581  1.00  0.00    -0.206 F 
HETATM   32  C   UNL     1      -4.498  -1.570 -33.527  1.00  0.00     0.043 A 
HETATM   33  C   UNL     1      -5.195  -0.419 -33.902  1.00  0.00     0.012 A 
ENDBRANCH   6  27
TORSDOF 5
ENDMDL
MODEL 4
REMARK VINA RESULT:      -9.2      4.922      7.426
REMARK  5 active torsions:
REMARK  status: ('A' for Active; 'I' for Inactive)
REMARK    1  A    between atoms: C_3  and  O_4 
REMARK    2  A    between atoms: C_6  and  N_7 
REMARK       I    between atoms: N_7  and  C_8 
REMARK    3  A    between atoms: C_8  and  C_9 
REMARK    4  A    between atoms: C_12  and  C_13 
REMARK    5  A    between atoms: C_18  and  C_19 
ROOT
HETATM    1  C   UNL     1      -5.871   1.157 -33.181  1.00  0.00     0.096 A 
HETATM    2  C   UNL     1      -5.454   2.259 -32.456  1.00  0.00     0.138 A 
HETATM    3  N   UNL     1      -6.451   3.193 -32.589  1.00  0.00    -0.240 N 
HETATM    4  C   UNL     1      -6.437   4.514 -31.992  1.00  0.00     0.221 C 
HETATM    5  C   UNL     1      -5.368   4.591 -30.888  1.00  0.00     0.066 C 
HETATM    6  C   UNL     1      -4.054   3.862 -31.221  1.00  0.00     0.118 C 
HETATM    7  N   UNL     1      -4.330   2.519 -31.736  1.00  0.00    -0.365 N 
HETATM    8  N   UNL     1      -7.497   2.770 -33.317  1.00  0.00    -0.181 NA
HETATM    9  C   UNL     1      -7.119   1.552 -33.718  1.00  0.00     0.160 A 
HETATM   10  H   UNL     1      -3.476   1.994 -31.943  1.00  0.00     0.161 HD
ENDROOT
BRANCH   1  11
HETATM   11  C   UNL     1      -5.203  -0.120 -33.374  1.00  0.00     0.261 C 
HETATM   12  N   UNL     1      -5.995  -1.047 -34.025  1.00  0.00    -0.323 N 
HETATM   13  H   UNL     1      -6.857  -0.679 -34.413  1.00  0.00     0.169 HD
HETATM   14  O   UNL     1      -4.044  -0.281 -33.016  1.00  0.00    -0.267 OA
BRANCH  12  15
HETATM   15  C   UNL     1      -5.711  -2.401 -34.285  1.00  0.00     0.037 A 
HETATM   16  C   UNL     1      -4.485  -3.005 -34.007  1.00  0.00     0.066 A 
HETATM   17  C   UNL     1      -4.306  -4.363 -34.271  1.00  0.00     0.067 A 
HETATM   18  C   UNL     1      -5.328  -5.133 -34.815  1.00  0.00     0.036 A 
HETATM   19  C   UNL     1      -6.553  -4.534 -35.095  1.00  0.00     0.005 A 
HETATM   20  C   UNL     1      -6.746  -3.176 -34.826  1.00  0.00     0.029 A 
BRANCH  17  21
HETATM   21  O   UNL     1      -3.094  -4.914 -33.969  1.00  0.00    -0.361 OA
HETATM   22  H   UNL     1      -3.234  -5.803 -33.607  1.00  0.00     0.217 HD
ENDBRANCH  17  21
ENDBRANCH  12  15
ENDBRANCH   1  11
BRANCH   4  23
HETATM   23  C   UNL     1      -6.296   5.579 -33.058  1.00  0.00     0.409 C 
HETATM   24  F   UNL     1      -5.618   6.669 -32.650  1.00  0.00    -0.169 F 
HETATM   25  F   UNL     1      -5.688   5.113 -34.172  1.00  0.00    -0.169 F 
HETATM   26  F   UNL     1      -7.527   6.004 -33.451  1.00  0.00    -0.169 F 
ENDBRANCH   4  23
BRANCH   6  27
HETATM   27  C   UNL     1      -3.073   4.644 -32.080  1.00  0.00    -0.035 A 
HETATM   28  C   UNL     1      -2.733   4.139 -33.351  1.00  0.00     0.012 A 
HETATM   29  C   UNL     1      -1.853   4.830 -34.188  1.00  0.00     0.043 A 
HETATM   30  C   UNL     1      -1.305   6.032 -33.764  1.00  0.00     0.116 A 
HETATM   31  F   UNL     1      -0.463   6.694 -34.567  1.00  0.00    -0.206 F 
HETATM   32  C   UNL     1      -1.622   6.557 -32.520  1.00  0.00     0.043 A 
HETATM   33  C   UNL     1      -2.505   5.869 -31.683  1.00  0.00     0.012 A 
ENDBRANCH   6  27
TORSDOF 5
ENDMDL
MODEL 5
REMARK VINA RESULT:      -8.8      3.443      7.650
REMARK  5 active torsions:
REMARK  status: ('A' for Active; 'I' for Inactive)
REMARK    1  A    between atoms: C_3  and  O_4 
REMARK    2  A    between atoms: C_6  and  N_7 
REMARK       I    between atoms: N_7  and  C_8 
REMARK    3  A    between atoms: C_8  and  C_9 
REMARK    4  A    between atoms: C_12  and  C_13 
REMARK    5  A    between atoms: C_18  and  C_19 
ROOT
HETATM    1  C   UNL     1      -7.284   1.568 -33.593  1.00  0.00     0.096 A 
HETATM    2  C   UNL     1      -8.333   2.439 -33.827  1.00  0.00     0.138 A 
HETATM    3  N   UNL     1      -8.261   3.386 -32.835  1.00  0.00    -0.240 N 
HETATM    4  C   UNL     1      -9.173   4.502 -32.684  1.00  0.00     0.221 C 
HETATM    5  C   UNL     1      -9.978   4.715 -33.979  1.00  0.00     0.066 C 
HETATM    6  C   UNL     1     -10.429   3.415 -34.669  1.00  0.00     0.118 C 
HETATM    7  N   UNL     1      -9.311   2.474 -34.771  1.00  0.00    -0.365 N 
HETATM    8  N   UNL     1      -7.228   3.214 -31.996  1.00  0.00    -0.181 NA
HETATM    9  C   UNL     1      -6.665   2.081 -32.428  1.00  0.00     0.160 A 
HETATM   10  H   UNL     1      -9.569   1.608 -35.250  1.00  0.00     0.161 HD
ENDROOT
BRANCH   1  11
HETATM   11  C   UNL     1      -6.887   0.389 -34.344  1.00  0.00     0.261 C 
HETATM   12  N   UNL     1      -6.565  -0.682 -33.531  1.00  0.00    -0.323 N 
HETATM   13  H   UNL     1      -6.792  -0.560 -32.550  1.00  0.00     0.169 HD
HETATM   14  O   UNL     1      -6.901   0.391 -35.568  1.00  0.00    -0.267 OA
BRANCH  12  15
HETATM   15  C   UNL     1      -6.049  -1.935 -33.911  1.00  0.00     0.037 A 
HETATM   16  C   UNL     1      -6.794  -2.919 -34.560  1.00  0.00     0.066 A 
HETATM   17  C   UNL     1      -6.186  -4.120 -34.926  1.00  0.00     0.067 A 
HETATM   18  C   UNL     1      -4.846  -4.364 -34.650  1.00  0.00     0.036 A 
HETATM   19  C   UNL     1      -4.098  -3.385 -34.001  1.00  0.00     0.005 A 
HETATM   20  C   UNL     1      -4.695  -2.174 -33.639  1.00  0.00     0.029 A 
BRANCH  17  21
HETATM   21  O   UNL     1      -6.952  -5.048 -35.573  1.00  0.00    -0.361 OA
HETATM   22  H   UNL     1      -7.854  -5.014 -35.219  1.00  0.00     0.217 HD
ENDBRANCH  17  21
ENDBRANCH  12  15
ENDBRANCH   1  11
BRANCH   4  23
HETATM   23  C   UNL     1     -10.032   4.327 -31.450  1.00  0.00     0.409 C 
HETATM   24  F   UNL     1     -11.160   5.062 -31.464  1.00  0.00    -0.169 F 
HETATM   25  F   UNL     1     -10.388   3.038 -31.252  1.00  0.00    -0.169 F 
HETATM   26  F   UNL     1      -9.332   4.698 -30.345  1.00  0.00    -0.169 F 
ENDBRANCH   4  23
BRANCH   6  27
HETATM   27  C   UNL     1     -11.694   2.784 -34.110  1.00  0.00    -0.035 A 
HETATM   28  C   UNL     1     -12.733   3.626 -33.664  1.00  0.00     0.012 A 
HETATM   29  C   UNL     1     -13.923   3.096 -33.162  1.00  0.00     0.043 A 
HETATM   30  C   UNL     1     -14.090   1.720 -33.101  1.00  0.00     0.116 A 
HETATM   31  F   UNL     1     -15.232   1.213 -32.621  1.00  0.00    -0.206 F 
HETATM   32  C   UNL     1     -13.088   0.864 -33.534  1.00  0.00     0.043 A 
HETATM   33  C   UNL     1     -11.898   1.393 -34.040  1.00  0.00     0.012 A 
ENDBRANCH   6  27
TORSDOF 5
ENDMDL
MODEL 6
REMARK VINA RESULT:      -8.7      4.340      8.698
REMARK  5 active torsions:
REMARK  status: ('A' for Active; 'I' for Inactive)
REMARK    1  A    between atoms: C_3  and  O_4 
REMARK    2  A    between atoms: C_6  and  N_7 
REMARK       I    between atoms: N_7  and  C_8 
REMARK    3  A    between atoms: C_8  and  C_9 
REMARK    4  A    between atoms: C_12  and  C_13 
REMARK    5  A    between atoms: C_18  and  C_19 
ROOT
HETATM    1  C   UNL     1      -3.994   2.218 -31.926  1.00  0.00     0.096 A 
HETATM    2  C   UNL     1      -5.201   1.572 -31.727  1.00  0.00     0.138 A 
HETATM    3  N   UNL     1      -5.045   0.317 -32.264  1.00  0.00    -0.240 N 
HETATM    4  C   UNL     1      -6.067  -0.710 -32.283  1.00  0.00     0.221 C 
HETATM    5  C   UNL     1      -7.194  -0.363 -31.294  1.00  0.00     0.066 C 
HETATM    6  C   UNL     1      -7.575   1.127 -31.259  1.00  0.00     0.118 C 
HETATM    7  N   UNL     1      -6.375   1.961 -31.163  1.00  0.00    -0.365 N 
HETATM    8  N   UNL     1      -3.821   0.090 -32.765  1.00  0.00    -0.181 NA
HETATM    9  C   UNL     1      -3.200   1.263 -32.605  1.00  0.00     0.160 A 
HETATM   10  H   UNL     1      -6.593   2.960 -31.110  1.00  0.00     0.161 HD
ENDROOT
BRANCH   1  11
HETATM   11  C   UNL     1      -3.603   3.566 -31.545  1.00  0.00     0.261 C 
HETATM   12  N   UNL     1      -2.408   3.959 -32.118  1.00  0.00    -0.323 N 
HETATM   13  H   UNL     1      -2.048   3.337 -32.833  1.00  0.00     0.169 HD
HETATM   14  O   UNL     1      -4.321   4.247 -30.826  1.00  0.00    -0.267 OA
BRANCH  12  15
HETATM   15  C   UNL     1      -1.687   5.147 -31.892  1.00  0.00     0.037 A 
HETATM   16  C   UNL     1      -2.046   6.387 -32.421  1.00  0.00     0.066 A 
HETATM   17  C   UNL     1      -1.287   7.517 -32.116  1.00  0.00     0.067 A 
HETATM   18  C   UNL     1      -0.167   7.434 -31.296  1.00  0.00     0.036 A 
HETATM   19  C   UNL     1       0.195   6.198 -30.766  1.00  0.00     0.005 A 
HETATM   20  C   UNL     1      -0.564   5.062 -31.058  1.00  0.00     0.029 A 
BRANCH  17  21
HETATM   21  O   UNL     1      -1.685   8.711 -32.644  1.00  0.00    -0.361 OA
HETATM   22  H   UNL     1      -2.497   8.998 -32.198  1.00  0.00     0.217 HD
ENDBRANCH  17  21
ENDBRANCH  12  15
ENDBRANCH   1  11
BRANCH   4  23
HETATM   23  C   UNL     1      -6.547  -0.959 -33.696  1.00  0.00     0.409 C 
HETATM   24  F   UNL     1      -7.799  -1.451 -33.767  1.00  0.00    -0.169 F 
HETATM   25  F   UNL     1      -6.505   0.158 -34.457  1.00  0.00    -0.169 F 
HETATM   26  F   UNL     1      -5.733  -1.860 -34.308  1.00  0.00    -0.169 F 
ENDBRANCH   4  23
BRANCH   6  27
HETATM   27  C   UNL     1      -8.534   1.582 -32.349  1.00  0.00    -0.035 A 
HETATM   28  C   UNL     1      -9.691   0.816 -32.597  1.00  0.00     0.012 A 
HETATM   29  C   UNL     1     -10.613   1.202 -33.572  1.00  0.00     0.043 A 
HETATM   30  C   UNL     1     -10.391   2.357 -34.308  1.00  0.00     0.116 A 
HETATM   31  F   UNL     1     -11.277   2.727 -35.242  1.00  0.00    -0.206 F 
HETATM   32  C   UNL     1      -9.263   3.134 -34.086  1.00  0.00     0.043 A 
HETATM   33  C   UNL     1      -8.342   2.751 -33.109  1.00  0.00     0.012 A 
ENDBRANCH   6  27
TORSDOF 5
ENDMDL
MODEL 7
REMARK VINA RESULT:      -8.6      3.803      7.394
REMARK  5 active torsions:
REMARK  status: ('A' for Active; 'I' for Inactive)
REMARK    1  A    between atoms: C_3  and  O_4 
REMARK    2  A    between atoms: C_6  and  N_7 
REMARK       I    between atoms: N_7  and  C_8 
REMARK    3  A    between atoms: C_8  and  C_9 
REMARK    4  A    between atoms: C_12  and  C_13 
REMARK    5  A    between atoms: C_18  and  C_19 
ROOT
HETATM    1  C   UNL     1      -7.401   1.392 -31.765  1.00  0.00     0.096 A 
HETATM    2  C   UNL     1      -8.228   2.045 -32.661  1.00  0.00     0.138 A 
HETATM    3  N   UNL     1      -8.572   3.229 -32.057  1.00  0.00    -0.240 N 
HETATM    4  C   UNL     1      -9.436   4.237 -32.638  1.00  0.00     0.221 C 
HETATM    5  C   UNL     1      -9.598   3.998 -34.150  1.00  0.00     0.066 C 
HETATM    6  C   UNL     1      -9.732   2.518 -34.550  1.00  0.00     0.118 C 
HETATM    7  N   UNL     1      -8.700   1.713 -33.893  1.00  0.00    -0.365 N 
HETATM    8  N   UNL     1      -8.007   3.408 -30.853  1.00  0.00    -0.181 NA
HETATM    9  C   UNL     1      -7.337   2.268 -30.656  1.00  0.00     0.160 A 
HETATM   10  H   UNL     1      -8.743   0.726 -34.158  1.00  0.00     0.161 HD
ENDROOT
BRANCH   1  11
HETATM   11  C   UNL     1      -6.743   0.102 -31.898  1.00  0.00     0.261 C 
HETATM   12  N   UNL     1      -6.595  -0.292 -33.215  1.00  0.00    -0.323 N 
HETATM   13  H   UNL     1      -6.815   0.420 -33.904  1.00  0.00     0.169 HD
HETATM   14  O   UNL     1      -6.344  -0.502 -30.911  1.00  0.00    -0.267 OA
BRANCH  12  15
HETATM   15  C   UNL     1      -6.099  -1.515 -33.704  1.00  0.00     0.037 A 
HETATM   16  C   UNL     1      -6.892  -2.491 -34.307  1.00  0.00     0.066 A 
HETATM   17  C   UNL     1      -6.305  -3.660 -34.790  1.00  0.00     0.067 A 
HETATM   18  C   UNL     1      -4.937  -3.881 -34.676  1.00  0.00     0.036 A 
HETATM   19  C   UNL     1      -4.141  -2.910 -34.074  1.00  0.00     0.005 A 
HETATM   20  C   UNL     1      -4.718  -1.731 -33.595  1.00  0.00     0.029 A 
BRANCH  17  21
HETATM   21  O   UNL     1      -7.119  -4.580 -35.386  1.00  0.00    -0.361 OA
HETATM   22  H   UNL     1      -7.535  -5.124 -34.700  1.00  0.00     0.217 HD
ENDBRANCH  17  21
ENDBRANCH  12  15
ENDBRANCH   1  11
BRANCH   4  23
HETATM   23  C   UNL     1     -10.747   4.313 -31.886  1.00  0.00     0.409 C 
HETATM   24  F   UNL     1     -11.781   4.738 -32.637  1.00  0.00    -0.169 F 
HETATM   25  F   UNL     1     -11.098   3.125 -31.345  1.00  0.00    -0.169 F 
HETATM   26  F   UNL     1     -10.632   5.181 -30.845  1.00  0.00    -0.169 F 
ENDBRANCH   4  23
BRANCH   6  27
HETATM   27  C   UNL     1     -11.128   1.930 -34.414  1.00  0.00    -0.035 A 
HETATM   28  C   UNL     1     -11.293   0.739 -33.678  1.00  0.00     0.012 A 
HETATM   29  C   UNL     1     -12.557   0.169 -33.507  1.00  0.00     0.043 A 
HETATM   30  C   UNL     1     -13.668   0.783 -34.066  1.00  0.00     0.116 A 
HETATM   31  F   UNL     1     -14.880   0.237 -33.899  1.00  0.00    -0.206 F 
HETATM   32  C   UNL     1     -13.539   1.957 -34.793  1.00  0.00     0.043 A 
HETATM   33  C   UNL     1     -12.276   2.531 -34.963  1.00  0.00     0.012 A 
ENDBRANCH   6  27
TORSDOF 5
ENDMDL
MODEL 8
REMARK VINA RESULT:      -8.6      4.014      7.379
REMARK  5 active torsions:
REMARK  status: ('A' for Active; 'I' for Inactive)
REMARK    1  A    between atoms: C_3  and  O_4 
REMARK    2  A    between atoms: C_6  and  N_7 
REMARK       I    between atoms: N_7  and  C_8 
REMARK    3  A    between atoms: C_8  and  C_9 
REMARK    4  A    between atoms: C_12  and  C_13 
REMARK    5  A    between atoms: C_18  and  C_19 
ROOT
HETATM    1  C   UNL     1      -5.151   0.921 -32.204  1.00  0.00     0.096 A 
HETATM    2  C   UNL     1      -6.024   1.906 -32.628  1.00  0.00     0.138 A 
HETATM    3  N   UNL     1      -6.155   2.771 -31.570  1.00  0.00    -0.240 N 
HETATM    4  C   UNL     1      -6.983   3.960 -31.566  1.00  0.00     0.221 C 
HETATM    5  C   UNL     1      -7.381   4.340 -33.004  1.00  0.00     0.066 C 
HETATM    6  C   UNL     1      -7.724   3.143 -33.907  1.00  0.00     0.118 C 
HETATM    7  N   UNL     1      -6.698   2.104 -33.793  1.00  0.00    -0.365 N 
HETATM    8  N   UNL     1      -5.409   2.440 -30.504  1.00  0.00    -0.181 NA
HETATM    9  C   UNL     1      -4.840   1.288 -30.873  1.00  0.00     0.160 A 
HETATM   10  H   UNL     1      -6.881   1.302 -34.402  1.00  0.00     0.161 HD
ENDROOT
BRANCH   1  11
HETATM   11  C   UNL     1      -4.656  -0.239 -32.928  1.00  0.00     0.261 C 
HETATM   12  N   UNL     1      -5.654  -1.147 -33.233  1.00  0.00    -0.323 N 
HETATM   13  H   UNL     1      -6.598  -0.822 -33.058  1.00  0.00     0.169 HD
HETATM   14  O   UNL     1      -3.477  -0.323 -33.244  1.00  0.00    -0.267 OA
BRANCH  12  15
HETATM   15  C   UNL     1      -5.519  -2.414 -33.831  1.00  0.00     0.037 A 
HETATM   16  C   UNL     1      -4.388  -3.218 -33.703  1.00  0.00     0.066 A 
HETATM   17  C   UNL     1      -4.358  -4.475 -34.308  1.00  0.00     0.067 A 
HETATM   18  C   UNL     1      -5.437  -4.945 -35.047  1.00  0.00     0.036 A 
HETATM   19  C   UNL     1      -6.570  -4.145 -35.179  1.00  0.00     0.005 A 
HETATM   20  C   UNL     1      -6.613  -2.888 -34.570  1.00  0.00     0.029 A 
BRANCH  17  21
HETATM   21  O   UNL     1      -3.235  -5.233 -34.142  1.00  0.00    -0.361 OA
HETATM   22  H   UNL     1      -2.495  -4.652 -33.908  1.00  0.00     0.217 HD
ENDBRANCH  17  21
ENDBRANCH  12  15
ENDBRANCH   1  11
BRANCH   4  23
HETATM   23  C   UNL     1      -8.159   3.788 -30.630  1.00  0.00     0.409 C 
HETATM   24  F   UNL     1      -8.640   2.531 -30.586  1.00  0.00    -0.169 F 
HETATM   25  F   UNL     1      -7.864   4.156 -29.363  1.00  0.00    -0.169 F 
HETATM   26  F   UNL     1      -9.185   4.590 -31.025  1.00  0.00    -0.169 F 
ENDBRANCH   4  23
BRANCH   6  27
HETATM   27  C   UNL     1      -9.139   2.605 -33.770  1.00  0.00    -0.035 A 
HETATM   28  C   UNL     1      -9.322   1.226 -33.545  1.00  0.00     0.012 A 
HETATM   29  C   UNL     1     -10.601   0.685 -33.390  1.00  0.00     0.043 A 
HETATM   30  C   UNL     1     -11.710   1.517 -33.457  1.00  0.00     0.116 A 
HETATM   31  F   UNL     1     -12.936   0.998 -33.307  1.00  0.00    -0.206 F 
HETATM   32  C   UNL     1     -11.564   2.879 -33.674  1.00  0.00     0.043 A 
HETATM   33  C   UNL     1     -10.285   3.422 -33.825  1.00  0.00     0.012 A 
ENDBRANCH   6  27
TORSDOF 5
ENDMDL
MODEL 9
REMARK VINA RESULT:      -8.5      4.534      7.607
REMARK  5 active torsions:
REMARK  status: ('A' for Active; 'I' for Inactive)
REMARK    1  A    between atoms: C_3  and  O_4 
REMARK    2  A    between atoms: C_6  and  N_7 
REMARK       I    between atoms: N_7  and  C_8 
REMARK    3  A    between atoms: C_8  and  C_9 
REMARK    4  A    between atoms: C_12  and  C_13 
REMARK    5  A    between atoms: C_18  and  C_19 
ROOT
HETATM    1  C   UNL     1      -4.471   1.116 -32.205  1.00  0.00     0.096 A 
HETATM    2  C   UNL     1      -4.937   2.300 -32.751  1.00  0.00     0.138 A 
HETATM    3  N   UNL     1      -4.046   3.268 -32.359  1.00  0.00    -0.240 N 
HETATM    4  C   UNL     1      -4.142   4.672 -32.702  1.00  0.00     0.221 C 
HETATM    5  C   UNL     1      -5.129   4.874 -33.865  1.00  0.00     0.066 C 
HETATM    6  C   UNL     1      -6.388   3.992 -33.792  1.00  0.00     0.118 C 
HETATM    7  N   UNL     1      -6.024   2.601 -33.509  1.00  0.00    -0.365 N 
HETATM    8  N   UNL     1      -3.022   2.798 -31.629  1.00  0.00    -0.181 NA
HETATM    9  C   UNL     1      -3.309   1.500 -31.494  1.00  0.00     0.160 A 
HETATM   10  H   UNL     1      -6.837   1.980 -33.481  1.00  0.00     0.161 HD
ENDROOT
BRANCH   1  11
HETATM   11  C   UNL     1      -5.027  -0.223 -32.312  1.00  0.00     0.261 C 
HETATM   12  N   UNL     1      -4.625  -0.881 -33.459  1.00  0.00    -0.323 N 
HETATM   13  H   UNL     1      -3.891  -0.419 -33.985  1.00  0.00     0.169 HD
HETATM   14  O   UNL     1      -5.734  -0.680 -31.424  1.00  0.00    -0.267 OA
BRANCH  12  15
HETATM   15  C   UNL     1      -5.045  -2.139 -33.930  1.00  0.00     0.037 A 
HETATM   16  C   UNL     1      -4.259  -3.290 -33.882  1.00  0.00     0.066 A 
HETATM   17  C   UNL     1      -4.774  -4.501 -34.345  1.00  0.00     0.067 A 
HETATM   18  C   UNL     1      -6.061  -4.587 -34.864  1.00  0.00     0.036 A 
HETATM   19  C   UNL     1      -6.850  -3.440 -34.915  1.00  0.00     0.005 A 
HETATM   20  C   UNL     1      -6.346  -2.224 -34.445  1.00  0.00     0.029 A 
BRANCH  17  21
HETATM   21  O   UNL     1      -3.973  -5.604 -34.264  1.00  0.00    -0.361 OA
HETATM   22  H   UNL     1      -3.635  -5.813 -35.148  1.00  0.00     0.217 HD
ENDBRANCH  17  21
ENDBRANCH  12  15
ENDBRANCH   1  11
BRANCH   4  23
HETATM   23  C   UNL     1      -4.462   5.500 -31.476  1.00  0.00     0.409 C 
HETATM   24  F   UNL     1      -5.244   4.866 -30.581  1.00  0.00    -0.169 F 
HETATM   25  F   UNL     1      -3.349   5.908 -30.827  1.00  0.00    -0.169 F 
HETATM   26  F   UNL     1      -5.120   6.633 -31.843  1.00  0.00    -0.169 F 
ENDBRANCH   4  23
BRANCH   6  27
HETATM   27  C   UNL     1      -7.500   4.514 -32.897  1.00  0.00    -0.035 A 
HETATM   28  C   UNL     1      -8.016   3.669 -31.893  1.00  0.00     0.012 A 
HETATM   29  C   UNL     1      -9.023   4.109 -31.031  1.00  0.00     0.043 A 
HETATM   30  C   UNL     1      -9.524   5.396 -31.161  1.00  0.00     0.116 A 
HETATM   31  F   UNL     1     -10.489   5.817 -30.332  1.00  0.00    -0.206 F 
HETATM   32  C   UNL     1      -9.036   6.253 -32.136  1.00  0.00     0.043 A 
HETATM   33  C   UNL     1      -8.025   5.816 -32.997  1.00  0.00     0.012 A 
ENDBRANCH   6  27
TORSDOF 5
ENDMDL
MODEL 10
REMARK VINA RESULT:      -8.5      4.131      7.656
REMARK  5 active torsions:
REMARK  status: ('A' for Active; 'I' for Inactive)
REMARK    1  A    between atoms: C_3  and  O_4 
REMARK    2  A    between atoms: C_6  and  N_7 
REMARK       I    between atoms: N_7  and  C_8 
REMARK    3  A    between atoms: C_8  and  C_9 
REMARK    4  A    between atoms: C_12  and  C_13 
REMARK    5  A    between atoms: C_18  and  C_19 
ROOT
HETATM    1  C   UNL     1      -5.530   2.332 -31.648  1.00  0.00     0.096 A 
HETATM    2  C   UNL     1      -6.614   2.878 -32.311  1.00  0.00     0.138 A 
HETATM    3  N   UNL     1      -7.140   3.816 -31.458  1.00  0.00    -0.240 N 
HETATM    4  C   UNL     1      -8.299   4.638 -31.742  1.00  0.00     0.221 C 
HETATM    5  C   UNL     1      -8.622   4.609 -33.247  1.00  0.00     0.066 C 
HETATM    6  C   UNL     1      -8.453   3.230 -33.908  1.00  0.00     0.118 C 
HETATM    7  N   UNL     1      -7.170   2.633 -33.528  1.00  0.00    -0.365 N 
HETATM    8  N   UNL     1      -6.462   3.944 -30.307  1.00  0.00    -0.181 NA
HETATM    9  C   UNL     1      -5.514   3.005 -30.403  1.00  0.00     0.160 A 
HETATM   10  H   UNL     1      -7.012   1.725 -33.972  1.00  0.00     0.161 HD
ENDROOT
BRANCH   1  11
HETATM   11  C   UNL     1      -4.606   1.301 -32.093  1.00  0.00     0.261 C 
HETATM   12  N   UNL     1      -5.205   0.060 -32.212  1.00  0.00    -0.323 N 
HETATM   13  H   UNL     1      -6.215   0.060 -32.128  1.00  0.00     0.169 HD
HETATM   14  O   UNL     1      -3.444   1.574 -32.363  1.00  0.00    -0.267 OA
BRANCH  12  15
HETATM   15  C   UNL     1      -4.595  -1.171 -32.518  1.00  0.00     0.037 A 
HETATM   16  C   UNL     1      -3.675  -1.811 -31.688  1.00  0.00     0.066 A 
HETATM   17  C   UNL     1      -3.146  -3.047 -32.061  1.00  0.00     0.067 A 
HETATM   18  C   UNL     1      -3.512  -3.657 -33.256  1.00  0.00     0.036 A 
HETATM   19  C   UNL     1      -4.429  -3.021 -34.089  1.00  0.00     0.005 A 
HETATM   20  C   UNL     1      -4.972  -1.787 -33.719  1.00  0.00     0.029 A 
BRANCH  17  21
HETATM   21  O   UNL     1      -2.261  -3.642 -31.209  1.00  0.00    -0.361 OA
HETATM   22  H   UNL     1      -2.703  -3.811 -30.363  1.00  0.00     0.217 HD
ENDBRANCH  17  21
ENDBRANCH  12  15
ENDBRANCH   1  11
BRANCH   4  23
HETATM   23  C   UNL     1      -9.463   4.244 -30.858  1.00  0.00     0.409 C 
HETATM   24  F   UNL     1     -10.668   4.450 -31.422  1.00  0.00    -0.169 F 
HETATM   25  F   UNL     1      -9.405   2.946 -30.483  1.00  0.00    -0.169 F 
HETATM   26  F   UNL     1      -9.435   4.969 -29.708  1.00  0.00    -0.169 F 
ENDBRANCH   4  23
BRANCH   6  27
HETATM   27  C   UNL     1      -9.628   2.279 -33.744  1.00  0.00    -0.035 A 
HETATM   28  C   UNL     1     -10.893   2.676 -34.221  1.00  0.00     0.012 A 
HETATM   29  C   UNL     1     -12.000   1.831 -34.114  1.00  0.00     0.043 A 
HETATM   30  C   UNL     1     -11.854   0.580 -33.532  1.00  0.00     0.116 A 
HETATM   31  F   UNL     1     -12.916  -0.230 -33.431  1.00  0.00    -0.206 F 
HETATM   32  C   UNL     1     -10.622   0.159 -33.055  1.00  0.00     0.043 A 
HETATM   33  C   UNL     1      -9.513   1.002 -33.164  1.00  0.00     0.012 A 
ENDBRANCH   6  27
TORSDOF 5
ENDMDL
