MODEL 1
REMARK VINA RESULT:      -8.7      0.000      0.000
REMARK  4 active torsions:
REMARK  status: ('A' for Active; 'I' for Inactive)
REMARK    1  A    between atoms: O_2  and  C_3 
REMARK    2  A    between atoms: C_8  and  C_9 
REMARK    3  A    between atoms: N_11  and  C_12 
REMARK    4  A    between atoms: C_12  and  C_13 
ROOT
HETATM    1  C   UNL     1      -5.851  -2.600 -34.577  1.00  0.00     0.069 A 
HETATM    2  C   UNL     1      -4.778  -2.468 -33.695  1.00  0.00     0.056 A 
HETATM    3  C   UNL     1      -4.486  -1.221 -33.138  1.00  0.00     0.063 A 
HETATM    4  C   UNL     1      -5.242  -0.088 -33.448  1.00  0.00     0.074 A 
HETATM    5  N   UNL     1      -4.979   1.175 -32.891  1.00  0.00    -0.234 NA
HETATM    6  C   UNL     1      -3.999   1.280 -32.054  1.00  0.00     0.113 A 
HETATM    7  N   UNL     1      -3.211   0.216 -31.692  1.00  0.00    -0.310 N 
HETATM    8  C   UNL     1      -3.374  -1.052 -32.191  1.00  0.00     0.259 A 
HETATM    9  O   UNL     1      -2.640  -1.976 -31.864  1.00  0.00    -0.267 OA
HETATM   10  C   UNL     1      -6.305  -0.228 -34.340  1.00  0.00     0.035 A 
HETATM   11  C   UNL     1      -6.611  -1.475 -34.902  1.00  0.00     0.039 A 
HETATM   12  H   UNL     1      -2.443   0.325 -31.043  1.00  0.00     0.170 HD
ENDROOT
BRANCH   6  13
HETATM   13  C   UNL     1      -3.660   2.583 -31.370  1.00  0.00     0.082 C 
HETATM   14  C   UNL     1      -3.166   3.679 -32.304  1.00  0.00     0.139 C 
HETATM   15  N   UNL     1      -3.611   4.891 -31.664  1.00  0.00    -0.347 N 
HETATM   16  C   UNL     1      -4.631   4.676 -30.761  1.00  0.00     0.220 C 
HETATM   17  O   UNL     1      -5.235   5.518 -30.118  1.00  0.00    -0.273 OA
HETATM   18  C   UNL     1      -4.898   3.195 -30.709  1.00  0.00     0.117 C 
BRANCH  15  19
HETATM   19  C   UNL     1      -3.081   6.199 -32.001  1.00  0.00     0.164 C 
BRANCH  19  20
HETATM   20  C   UNL     1      -1.831   6.510 -31.214  1.00  0.00    -0.040 A 
HETATM   21  C   UNL     1      -1.905   6.886 -29.866  1.00  0.00     0.009 A 
HETATM   22  C   UNL     1      -0.742   7.178 -29.149  1.00  0.00     0.001 A 
HETATM   23  C   UNL     1       0.503   7.099 -29.772  1.00  0.00     0.000 A 
HETATM   24  C   UNL     1       0.588   6.726 -31.112  1.00  0.00     0.001 A 
HETATM   25  C   UNL     1      -0.572   6.431 -31.830  1.00  0.00     0.009 A 
ENDBRANCH  19  20
ENDBRANCH  15  19
ENDBRANCH   6  13
BRANCH   1  26
HETATM   26  O   UNL     1      -6.048  -3.867 -35.051  1.00  0.00    -0.356 OA
HETATM   27  C   UNL     1      -5.211  -4.890 -34.525  1.00  0.00     0.210 C 
ENDBRANCH   1  26
TORSDOF 4
ENDMDL
MODEL 2
REMARK VINA RESULT:      -8.7      5.687      9.610
REMARK  4 active torsions:
REMARK  status: ('A' for Active; 'I' for Inactive)
REMARK    1  A    between atoms: O_2  and  C_3 
REMARK    2  A    between atoms: C_8  and  C_9 
REMARK    3  A    between atoms: N_11  and  C_12 
REMARK    4  A    between atoms: C_12  and  C_13 
ROOT
HETATM    1  C   UNL     1     -12.355   6.050 -35.540  1.00  0.00     0.069 A 
HETATM    2  C   UNL     1     -12.753   4.713 -35.522  1.00  0.00     0.056 A 
HETATM    3  C   UNL     1     -11.840   3.721 -35.157  1.00  0.00     0.063 A 
HETATM    4  C   UNL     1     -10.523   4.032 -34.812  1.00  0.00     0.074 A 
HETATM    5  N   UNL     1      -9.588   3.056 -34.427  1.00  0.00    -0.234 NA
HETATM    6  C   UNL     1      -9.976   1.823 -34.388  1.00  0.00     0.113 A 
HETATM    7  N   UNL     1     -11.253   1.433 -34.706  1.00  0.00    -0.310 N 
HETATM    8  C   UNL     1     -12.233   2.305 -35.109  1.00  0.00     0.259 A 
HETATM    9  O   UNL     1     -13.357   1.922 -35.407  1.00  0.00    -0.267 OA
HETATM   10  C   UNL     1     -10.131   5.371 -34.845  1.00  0.00     0.035 A 
HETATM   11  C   UNL     1     -11.039   6.376 -35.205  1.00  0.00     0.039 A 
HETATM   12  H   UNL     1     -11.529   0.461 -34.678  1.00  0.00     0.170 HD
ENDROOT
BRANCH   6  13
HETATM   13  C   UNL     1      -9.061   0.705 -33.949  1.00  0.00     0.082 C 
HETATM   14  C   UNL     1      -7.694   0.703 -34.620  1.00  0.00     0.139 C 
HETATM   15  N   UNL     1      -6.828   0.136 -33.617  1.00  0.00    -0.347 N 
HETATM   16  C   UNL     1      -7.364   0.205 -32.348  1.00  0.00     0.220 C 
HETATM   17  O   UNL     1      -6.835  -0.145 -31.306  1.00  0.00    -0.273 OA
HETATM   18  C   UNL     1      -8.736   0.814 -32.456  1.00  0.00     0.117 C 
BRANCH  15  19
HETATM   19  C   UNL     1      -5.507  -0.379 -33.920  1.00  0.00     0.164 C 
BRANCH  19  20
HETATM   20  C   UNL     1      -5.541  -1.863 -34.195  1.00  0.00    -0.040 A 
HETATM   21  C   UNL     1      -6.720  -2.490 -34.621  1.00  0.00     0.009 A 
HETATM   22  C   UNL     1      -6.740  -3.865 -34.865  1.00  0.00     0.001 A 
HETATM   23  C   UNL     1      -5.586  -4.625 -34.686  1.00  0.00     0.000 A 
HETATM   24  C   UNL     1      -4.408  -4.013 -34.262  1.00  0.00     0.001 A 
HETATM   25  C   UNL     1      -4.384  -2.639 -34.019  1.00  0.00     0.009 A 
ENDBRANCH  19  20
ENDBRANCH  15  19
ENDBRANCH   6  13
BRANCH   1  26
HETATM   26  O   UNL     1     -13.334   6.932 -35.903  1.00  0.00    -0.356 OA
HETATM   27  C   UNL     1     -12.937   8.048 -36.691  1.00  0.00     0.210 C 
ENDBRANCH   1  26
TORSDOF 4
ENDMDL
MODEL 3
REMARK VINA RESULT:      -8.5      1.559      2.236
REMARK  4 active torsions:
REMARK  status: ('A' for Active; 'I' for Inactive)
REMARK    1  A    between atoms: O_2  and  C_3 
REMARK    2  A    between atoms: C_8  and  C_9 
REMARK    3  A    between atoms: N_11  and  C_12 
REMARK    4  A    between atoms: C_12  and  C_13 
ROOT
HETATM    1  C   UNL     1      -5.915  -2.282 -34.503  1.00  0.00     0.069 A 
HETATM    2  C   UNL     1      -6.484  -1.017 -34.356  1.00  0.00     0.056 A 
HETATM    3  C   UNL     1      -5.811  -0.032 -33.631  1.00  0.00     0.063 A 
HETATM    4  C   UNL     1      -4.572  -0.283 -33.035  1.00  0.00     0.074 A 
HETATM    5  N   UNL     1      -3.866   0.693 -32.312  1.00  0.00    -0.234 NA
HETATM    6  C   UNL     1      -4.391   1.870 -32.205  1.00  0.00     0.113 A 
HETATM    7  N   UNL     1      -5.600   2.201 -32.764  1.00  0.00    -0.310 N 
HETATM    8  C   UNL     1      -6.374   1.316 -33.473  1.00  0.00     0.259 A 
HETATM    9  O   UNL     1      -7.460   1.636 -33.940  1.00  0.00    -0.267 OA
HETATM   10  C   UNL     1      -4.016  -1.555 -33.178  1.00  0.00     0.035 A 
HETATM   11  C   UNL     1      -4.681  -2.550 -33.908  1.00  0.00     0.039 A 
HETATM   12  H   UNL     1      -5.995   3.125 -32.657  1.00  0.00     0.170 HD
ENDROOT
BRANCH   6  13
HETATM   13  C   UNL     1      -3.695   3.000 -31.483  1.00  0.00     0.082 C 
HETATM   14  C   UNL     1      -2.612   3.699 -32.293  1.00  0.00     0.139 C 
HETATM   15  N   UNL     1      -2.641   5.052 -31.797  1.00  0.00    -0.347 N 
HETATM   16  C   UNL     1      -3.823   5.360 -31.156  1.00  0.00     0.220 C 
HETATM   17  O   UNL     1      -4.147   6.439 -30.688  1.00  0.00    -0.273 OA
HETATM   18  C   UNL     1      -4.680   4.122 -31.143  1.00  0.00     0.117 C 
BRANCH  15  19
HETATM   19  C   UNL     1      -1.564   5.995 -32.022  1.00  0.00     0.164 C 
BRANCH  19  20
HETATM   20  C   UNL     1      -0.759   6.227 -30.766  1.00  0.00    -0.040 A 
HETATM   21  C   UNL     1      -0.021   5.189 -30.182  1.00  0.00     0.009 A 
HETATM   22  C   UNL     1       0.714   5.415 -29.016  1.00  0.00     0.001 A 
HETATM   23  C   UNL     1       0.717   6.676 -28.423  1.00  0.00     0.000 A 
HETATM   24  C   UNL     1      -0.014   7.716 -28.995  1.00  0.00     0.001 A 
HETATM   25  C   UNL     1      -0.747   7.494 -30.161  1.00  0.00     0.009 A 
ENDBRANCH  19  20
ENDBRANCH  15  19
ENDBRANCH   6  13
BRANCH   1  26
HETATM   26  O   UNL     1      -6.658  -3.161 -35.241  1.00  0.00    -0.356 OA
HETATM   27  C   UNL     1      -6.306  -4.536 -35.155  1.00  0.00     0.210 C 
ENDBRANCH   1  26
TORSDOF 4
ENDMDL
MODEL 4
REMARK VINA RESULT:      -8.5      2.168      8.970
REMARK  4 active torsions:
REMARK  status: ('A' for Active; 'I' for Inactive)
REMARK    1  A    between atoms: O_2  and  C_3 
REMARK    2  A    between atoms: C_8  and  C_9 
REMARK    3  A    between atoms: N_11  and  C_12 
REMARK    4  A    between atoms: C_12  and  C_13 
ROOT
HETATM    1  C   UNL     1      -0.090   7.173 -29.717  1.00  0.00     0.069 A 
HETATM    2  C   UNL     1      -1.482   7.094 -29.750  1.00  0.00     0.056 A 
HETATM    3  C   UNL     1      -2.103   6.074 -30.474  1.00  0.00     0.063 A 
HETATM    4  C   UNL     1      -1.361   5.124 -31.180  1.00  0.00     0.074 A 
HETATM    5  N   UNL     1      -1.959   4.080 -31.905  1.00  0.00    -0.234 NA
HETATM    6  C   UNL     1      -3.250   4.000 -31.906  1.00  0.00     0.113 A 
HETATM    7  N   UNL     1      -4.052   4.889 -31.235  1.00  0.00    -0.310 N 
HETATM    8  C   UNL     1      -3.567   5.951 -30.514  1.00  0.00     0.259 A 
HETATM    9  O   UNL     1      -4.311   6.740 -29.944  1.00  0.00    -0.267 OA
HETATM   10  C   UNL     1       0.031   5.219 -31.151  1.00  0.00     0.035 A 
HETATM   11  C   UNL     1       0.666   6.235 -30.425  1.00  0.00     0.039 A 
HETATM   12  H   UNL     1      -5.060   4.812 -31.259  1.00  0.00     0.170 HD
ENDROOT
BRANCH   6  13
HETATM   13  C   UNL     1      -3.988   2.893 -32.620  1.00  0.00     0.082 C 
HETATM   14  C   UNL     1      -4.551   1.813 -31.707  1.00  0.00     0.139 C 
HETATM   15  N   UNL     1      -5.730   1.364 -32.404  1.00  0.00    -0.347 N 
HETATM   16  C   UNL     1      -6.179   2.275 -33.337  1.00  0.00     0.220 C 
HETATM   17  O   UNL     1      -7.178   2.186 -34.031  1.00  0.00    -0.273 OA
HETATM   18  C   UNL     1      -5.221   3.437 -33.349  1.00  0.00     0.117 C 
BRANCH  15  19
HETATM   19  C   UNL     1      -6.400   0.116 -32.092  1.00  0.00     0.164 C 
BRANCH  19  20
HETATM   20  C   UNL     1      -6.064  -0.960 -33.097  1.00  0.00    -0.040 A 
HETATM   21  C   UNL     1      -7.064  -1.550 -33.881  1.00  0.00     0.009 A 
HETATM   22  C   UNL     1      -6.741  -2.549 -34.802  1.00  0.00     0.001 A 
HETATM   23  C   UNL     1      -5.420  -2.968 -34.947  1.00  0.00     0.000 A 
HETATM   24  C   UNL     1      -4.417  -2.388 -34.172  1.00  0.00     0.001 A 
HETATM   25  C   UNL     1      -4.736  -1.388 -33.252  1.00  0.00     0.009 A 
ENDBRANCH  19  20
ENDBRANCH  15  19
ENDBRANCH   6  13
BRANCH   1  26
HETATM   26  O   UNL     1       0.406   8.205 -28.970  1.00  0.00    -0.356 OA
HETATM   27  C   UNL     1       1.134   7.861 -27.797  1.00  0.00     0.210 C 
ENDBRANCH   1  26
TORSDOF 4
ENDMDL
MODEL 5
REMARK VINA RESULT:      -8.3      4.698      7.574
REMARK  4 active torsions:
REMARK  status: ('A' for Active; 'I' for Inactive)
REMARK    1  A    between atoms: O_2  and  C_3 
REMARK    2  A    between atoms: C_8  and  C_9 
REMARK    3  A    between atoms: N_11  and  C_12 
REMARK    4  A    between atoms: C_12  and  C_13 
ROOT
HETATM    1  C   UNL     1      -4.732  -3.232 -34.331  1.00  0.00     0.069 A 
HETATM    2  C   UNL     1      -4.264  -2.119 -33.631  1.00  0.00     0.056 A 
HETATM    3  C   UNL     1      -5.109  -1.029 -33.414  1.00  0.00     0.063 A 
HETATM    4  C   UNL     1      -6.423  -1.018 -33.888  1.00  0.00     0.074 A 
HETATM    5  N   UNL     1      -7.299   0.059 -33.672  1.00  0.00    -0.234 NA
HETATM    6  C   UNL     1      -6.863   1.073 -32.999  1.00  0.00     0.113 A 
HETATM    7  N   UNL     1      -5.588   1.141 -32.494  1.00  0.00    -0.310 N 
HETATM    8  C   UNL     1      -4.653   0.151 -32.665  1.00  0.00     0.259 A 
HETATM    9  O   UNL     1      -3.516   0.251 -32.220  1.00  0.00    -0.267 OA
HETATM   10  C   UNL     1      -6.878  -2.131 -34.596  1.00  0.00     0.035 A 
HETATM   11  C   UNL     1      -6.041  -3.233 -34.817  1.00  0.00     0.039 A 
HETATM   12  H   UNL     1      -5.267   1.949 -31.980  1.00  0.00     0.170 HD
ENDROOT
BRANCH   6  13
HETATM   13  C   UNL     1      -7.737   2.263 -32.678  1.00  0.00     0.082 C 
HETATM   14  C   UNL     1      -8.997   2.372 -33.525  1.00  0.00     0.139 C 
HETATM   15  N   UNL     1      -9.941   3.009 -32.642  1.00  0.00    -0.347 N 
HETATM   16  C   UNL     1      -9.587   2.901 -31.313  1.00  0.00     0.220 C 
HETATM   17  O   UNL     1     -10.222   3.294 -30.348  1.00  0.00    -0.273 OA
HETATM   18  C   UNL     1      -8.266   2.183 -31.242  1.00  0.00     0.117 C 
BRANCH  15  19
HETATM   19  C   UNL     1     -11.165   3.628 -33.114  1.00  0.00     0.164 C 
BRANCH  19  20
HETATM   20  C   UNL     1     -12.286   2.623 -33.226  1.00  0.00    -0.040 A 
HETATM   21  C   UNL     1     -13.583   2.941 -32.799  1.00  0.00     0.009 A 
HETATM   22  C   UNL     1     -14.610   2.001 -32.902  1.00  0.00     0.001 A 
HETATM   23  C   UNL     1     -14.353   0.736 -33.430  1.00  0.00     0.000 A 
HETATM   24  C   UNL     1     -13.067   0.410 -33.858  1.00  0.00     0.001 A 
HETATM   25  C   UNL     1     -12.039   1.348 -33.758  1.00  0.00     0.009 A 
ENDBRANCH  19  20
ENDBRANCH  15  19
ENDBRANCH   6  13
BRANCH   1  26
HETATM   26  O   UNL     1      -3.821  -4.241 -34.474  1.00  0.00    -0.356 OA
HETATM   27  C   UNL     1      -3.305  -4.818 -33.281  1.00  0.00     0.210 C 
ENDBRANCH   1  26
TORSDOF 4
ENDMDL
MODEL 6
REMARK VINA RESULT:      -8.2      3.068      8.980
REMARK  4 active torsions:
REMARK  status: ('A' for Active; 'I' for Inactive)
REMARK    1  A    between atoms: O_2  and  C_3 
REMARK    2  A    between atoms: C_8  and  C_9 
REMARK    3  A    between atoms: N_11  and  C_12 
REMARK    4  A    between atoms: C_12  and  C_13 
ROOT
HETATM    1  C   UNL     1       0.089   7.997 -28.643  1.00  0.00     0.069 A 
HETATM    2  C   UNL     1       0.415   6.916 -29.463  1.00  0.00     0.056 A 
HETATM    3  C   UNL     1      -0.587   6.268 -30.189  1.00  0.00     0.063 A 
HETATM    4  C   UNL     1      -1.922   6.671 -30.112  1.00  0.00     0.074 A 
HETATM    5  N   UNL     1      -2.947   6.047 -30.842  1.00  0.00    -0.234 NA
HETATM    6  C   UNL     1      -2.629   5.064 -31.619  1.00  0.00     0.113 A 
HETATM    7  N   UNL     1      -1.342   4.608 -31.757  1.00  0.00    -0.310 N 
HETATM    8  C   UNL     1      -0.274   5.138 -31.076  1.00  0.00     0.259 A 
HETATM    9  O   UNL     1       0.860   4.695 -31.204  1.00  0.00    -0.267 OA
HETATM   10  C   UNL     1      -2.240   7.746 -29.281  1.00  0.00     0.035 A 
HETATM   11  C   UNL     1      -1.243   8.408 -28.550  1.00  0.00     0.039 A 
HETATM   12  H   UNL     1      -1.119   3.830 -32.362  1.00  0.00     0.170 HD
ENDROOT
BRANCH   6  13
HETATM   13  C   UNL     1      -3.649   4.351 -32.476  1.00  0.00     0.082 C 
HETATM   14  C   UNL     1      -4.676   3.541 -31.697  1.00  0.00     0.139 C 
HETATM   15  N   UNL     1      -5.853   3.604 -32.527  1.00  0.00    -0.347 N 
HETATM   16  C   UNL     1      -5.818   4.649 -33.426  1.00  0.00     0.220 C 
HETATM   17  O   UNL     1      -6.693   4.976 -34.210  1.00  0.00    -0.273 OA
HETATM   18  C   UNL     1      -4.496   5.353 -33.267  1.00  0.00     0.117 C 
BRANCH  15  19
HETATM   19  C   UNL     1      -6.976   2.700 -32.369  1.00  0.00     0.164 C 
BRANCH  19  20
HETATM   20  C   UNL     1      -6.819   1.466 -33.223  1.00  0.00    -0.040 A 
HETATM   21  C   UNL     1      -7.349   1.415 -34.520  1.00  0.00     0.009 A 
HETATM   22  C   UNL     1      -7.203   0.265 -35.298  1.00  0.00     0.001 A 
HETATM   23  C   UNL     1      -6.529  -0.844 -34.790  1.00  0.00     0.000 A 
HETATM   24  C   UNL     1      -5.998  -0.805 -33.501  1.00  0.00     0.001 A 
HETATM   25  C   UNL     1      -6.141   0.344 -32.722  1.00  0.00     0.009 A 
ENDBRANCH  19  20
ENDBRANCH  15  19
ENDBRANCH   6  13
BRANCH   1  26
HETATM   26  O   UNL     1       1.150   8.559 -27.990  1.00  0.00    -0.356 OA
HETATM   27  C   UNL     1       1.569   7.933 -26.783  1.00  0.00     0.210 C 
ENDBRANCH   1  26
TORSDOF 4
ENDMDL
MODEL 7
REMARK VINA RESULT:      -8.2      1.997      2.959
REMARK  4 active torsions:
REMARK  status: ('A' for Active; 'I' for Inactive)
REMARK    1  A    between atoms: O_2  and  C_3 
REMARK    2  A    between atoms: C_8  and  C_9 
REMARK    3  A    between atoms: N_11  and  C_12 
REMARK    4  A    between atoms: C_12  and  C_13 
ROOT
HETATM    1  C   UNL     1      -6.329  -0.397 -33.363  1.00  0.00     0.069 A 
HETATM    2  C   UNL     1      -5.180  -0.174 -32.603  1.00  0.00     0.056 A 
HETATM    3  C   UNL     1      -4.664   1.119 -32.485  1.00  0.00     0.063 A 
HETATM    4  C   UNL     1      -5.269   2.206 -33.120  1.00  0.00     0.074 A 
HETATM    5  N   UNL     1      -4.781   3.518 -33.007  1.00  0.00    -0.234 NA
HETATM    6  C   UNL     1      -3.731   3.717 -32.278  1.00  0.00     0.113 A 
HETATM    7  N   UNL     1      -3.080   2.705 -31.617  1.00  0.00    -0.310 N 
HETATM    8  C   UNL     1      -3.467   1.390 -31.677  1.00  0.00     0.259 A 
HETATM    9  O   UNL     1      -2.851   0.507 -31.094  1.00  0.00    -0.267 OA
HETATM   10  C   UNL     1      -6.411   1.971 -33.887  1.00  0.00     0.035 A 
HETATM   11  C   UNL     1      -6.940   0.679 -34.009  1.00  0.00     0.039 A 
HETATM   12  H   UNL     1      -2.255   2.884 -31.062  1.00  0.00     0.170 HD
ENDROOT
BRANCH   6  13
HETATM   13  C   UNL     1      -3.151   5.094 -32.060  1.00  0.00     0.082 C 
HETATM   14  C   UNL     1      -1.737   5.105 -31.495  1.00  0.00     0.139 C 
HETATM   15  N   UNL     1      -1.163   6.305 -32.049  1.00  0.00    -0.347 N 
HETATM   16  C   UNL     1      -1.842   6.760 -33.160  1.00  0.00     0.220 C 
HETATM   17  O   UNL     1      -1.552   7.715 -33.860  1.00  0.00    -0.273 OA
HETATM   18  C   UNL     1      -3.022   5.851 -33.385  1.00  0.00     0.117 C 
BRANCH  15  19
HETATM   19  C   UNL     1       0.045   6.913 -31.524  1.00  0.00     0.164 C 
BRANCH  19  20
HETATM   20  C   UNL     1      -0.176   7.480 -30.142  1.00  0.00    -0.040 A 
HETATM   21  C   UNL     1       0.766   7.280 -29.123  1.00  0.00     0.009 A 
HETATM   22  C   UNL     1       0.547   7.803 -27.847  1.00  0.00     0.001 A 
HETATM   23  C   UNL     1      -0.613   8.528 -27.576  1.00  0.00     0.000 A 
HETATM   24  C   UNL     1      -1.556   8.732 -28.582  1.00  0.00     0.001 A 
HETATM   25  C   UNL     1      -1.339   8.212 -29.859  1.00  0.00     0.009 A 
ENDBRANCH  19  20
ENDBRANCH  15  19
ENDBRANCH   6  13
BRANCH   1  26
HETATM   26  O   UNL     1      -6.746  -1.698 -33.398  1.00  0.00    -0.356 OA
HETATM   27  C   UNL     1      -6.575  -2.398 -34.625  1.00  0.00     0.210 C 
ENDBRANCH   1  26
TORSDOF 4
ENDMDL
MODEL 8
REMARK VINA RESULT:      -8.0     16.361     18.403
REMARK  4 active torsions:
REMARK  status: ('A' for Active; 'I' for Inactive)
REMARK    1  A    between atoms: O_2  and  C_3 
REMARK    2  A    between atoms: C_8  and  C_9 
REMARK    3  A    between atoms: N_11  and  C_12 
REMARK    4  A    between atoms: C_12  and  C_13 
ROOT
HETATM    1  C   UNL     1      -5.030 -15.379 -31.346  1.00  0.00     0.069 A 
HETATM    2  C   UNL     1      -5.767 -14.450 -32.083  1.00  0.00     0.056 A 
HETATM    3  C   UNL     1      -5.552 -14.326 -33.457  1.00  0.00     0.063 A 
HETATM    4  C   UNL     1      -4.605 -15.108 -34.122  1.00  0.00     0.074 A 
HETATM    5  N   UNL     1      -4.379 -15.014 -35.505  1.00  0.00    -0.234 NA
HETATM    6  C   UNL     1      -5.086 -14.170 -36.182  1.00  0.00     0.113 A 
HETATM    7  N   UNL     1      -6.041 -13.367 -35.607  1.00  0.00    -0.310 N 
HETATM    8  C   UNL     1      -6.325 -13.371 -34.265  1.00  0.00     0.259 A 
HETATM    9  O   UNL     1      -7.167 -12.627 -33.779  1.00  0.00    -0.267 OA
HETATM   10  C   UNL     1      -3.865 -16.026 -33.375  1.00  0.00     0.035 A 
HETATM   11  C   UNL     1      -4.074 -16.163 -31.996  1.00  0.00     0.039 A 
HETATM   12  H   UNL     1      -6.574 -12.706 -36.156  1.00  0.00     0.170 HD
ENDROOT
BRANCH   6  13
HETATM   13  C   UNL     1      -4.948 -14.019 -37.679  1.00  0.00     0.082 C 
HETATM   14  C   UNL     1      -6.161 -14.476 -38.477  1.00  0.00     0.139 C 
HETATM   15  N   UNL     1      -6.143 -13.620 -39.636  1.00  0.00    -0.347 N 
HETATM   16  C   UNL     1      -5.393 -12.478 -39.445  1.00  0.00     0.220 C 
HETATM   17  O   UNL     1      -5.246 -11.555 -40.229  1.00  0.00    -0.273 OA
HETATM   18  C   UNL     1      -4.785 -12.547 -38.069  1.00  0.00     0.117 C 
BRANCH  15  19
HETATM   19  C   UNL     1      -6.898 -13.910 -40.840  1.00  0.00     0.164 C 
BRANCH  19  20
HETATM   20  C   UNL     1      -8.370 -13.634 -40.651  1.00  0.00    -0.040 A 
HETATM   21  C   UNL     1      -9.321 -14.649 -40.819  1.00  0.00     0.009 A 
HETATM   22  C   UNL     1     -10.680 -14.379 -40.647  1.00  0.00     0.001 A 
HETATM   23  C   UNL     1     -11.102 -13.094 -40.309  1.00  0.00     0.000 A 
HETATM   24  C   UNL     1     -10.165 -12.076 -40.140  1.00  0.00     0.001 A 
HETATM   25  C   UNL     1      -8.806 -12.344 -40.308  1.00  0.00     0.009 A 
ENDBRANCH  19  20
ENDBRANCH  15  19
ENDBRANCH   6  13
BRANCH   1  26
HETATM   26  O   UNL     1      -5.332 -15.420 -30.014  1.00  0.00    -0.356 OA
HETATM   27  C   UNL     1      -4.870 -16.549 -29.282  1.00  0.00     0.210 C 
ENDBRANCH   1  26
TORSDOF 4
ENDMDL
MODEL 9
REMARK VINA RESULT:      -7.9      2.500      8.908
REMARK  4 active torsions:
REMARK  status: ('A' for Active; 'I' for Inactive)
REMARK    1  A    between atoms: O_2  and  C_3 
REMARK    2  A    between atoms: C_8  and  C_9 
REMARK    3  A    between atoms: N_11  and  C_12 
REMARK    4  A    between atoms: C_12  and  C_13 
ROOT
HETATM    1  C   UNL     1      -1.953   8.099 -29.396  1.00  0.00     0.069 A 
HETATM    2  C   UNL     1      -1.303   7.104 -30.127  1.00  0.00     0.056 A 
HETATM    3  C   UNL     1      -2.045   6.075 -30.712  1.00  0.00     0.063 A 
HETATM    4  C   UNL     1      -3.433   6.008 -30.577  1.00  0.00     0.074 A 
HETATM    5  N   UNL     1      -4.206   4.993 -31.165  1.00  0.00    -0.234 NA
HETATM    6  C   UNL     1      -3.596   4.091 -31.864  1.00  0.00     0.113 A 
HETATM    7  N   UNL     1      -2.235   4.086 -32.050  1.00  0.00    -0.310 N 
HETATM    8  C   UNL     1      -1.393   5.023 -31.504  1.00  0.00     0.259 A 
HETATM    9  O   UNL     1      -0.181   4.978 -31.671  1.00  0.00    -0.267 OA
HETATM   10  C   UNL     1      -4.073   7.001 -29.834  1.00  0.00     0.035 A 
HETATM   11  C   UNL     1      -3.341   8.042 -29.246  1.00  0.00     0.039 A 
HETATM   12  H   UNL     1      -1.780   3.365 -32.591  1.00  0.00     0.170 HD
ENDROOT
BRANCH   6  13
HETATM   13  C   UNL     1      -4.337   2.981 -32.570  1.00  0.00     0.082 C 
HETATM   14  C   UNL     1      -4.759   1.827 -31.670  1.00  0.00     0.139 C 
HETATM   15  N   UNL     1      -5.970   1.347 -32.285  1.00  0.00    -0.347 N 
HETATM   16  C   UNL     1      -6.548   2.276 -33.125  1.00  0.00     0.220 C 
HETATM   17  O   UNL     1      -7.600   2.165 -33.733  1.00  0.00    -0.273 OA
HETATM   18  C   UNL     1      -5.657   3.489 -33.157  1.00  0.00     0.117 C 
BRANCH  15  19
HETATM   19  C   UNL     1      -6.543   0.049 -31.983  1.00  0.00     0.164 C 
BRANCH  19  20
HETATM   20  C   UNL     1      -6.128  -0.989 -32.997  1.00  0.00    -0.040 A 
HETATM   21  C   UNL     1      -4.795  -1.410 -33.092  1.00  0.00     0.009 A 
HETATM   22  C   UNL     1      -4.422  -2.367 -34.039  1.00  0.00     0.001 A 
HETATM   23  C   UNL     1      -5.375  -2.909 -34.899  1.00  0.00     0.000 A 
HETATM   24  C   UNL     1      -6.704  -2.498 -34.814  1.00  0.00     0.001 A 
HETATM   25  C   UNL     1      -7.080  -1.544 -33.868  1.00  0.00     0.009 A 
ENDBRANCH  19  20
ENDBRANCH  15  19
ENDBRANCH   6  13
BRANCH   1  26
HETATM   26  O   UNL     1      -1.128   9.059 -28.880  1.00  0.00    -0.356 OA
HETATM   27  C   UNL     1      -0.221   8.652 -27.863  1.00  0.00     0.210 C 
ENDBRANCH   1  26
TORSDOF 4
ENDMDL
MODEL 10
REMARK VINA RESULT:      -7.8      1.865      2.814
REMARK  4 active torsions:
REMARK  status: ('A' for Active; 'I' for Inactive)
REMARK    1  A    between atoms: O_2  and  C_3 
REMARK    2  A    between atoms: C_8  and  C_9 
REMARK    3  A    between atoms: N_11  and  C_12 
REMARK    4  A    between atoms: C_12  and  C_13 
ROOT
HETATM    1  C   UNL     1      -5.152  -3.187 -34.307  1.00  0.00     0.069 A 
HETATM    2  C   UNL     1      -6.212  -2.291 -34.170  1.00  0.00     0.056 A 
HETATM    3  C   UNL     1      -6.081  -1.181 -33.333  1.00  0.00     0.063 A 
HETATM    4  C   UNL     1      -4.907  -0.944 -32.614  1.00  0.00     0.074 A 
HETATM    5  N   UNL     1      -4.742   0.172 -31.776  1.00  0.00    -0.234 NA
HETATM    6  C   UNL     1      -5.721   1.010 -31.678  1.00  0.00     0.113 A 
HETATM    7  N   UNL     1      -6.906   0.854 -32.354  1.00  0.00    -0.310 N 
HETATM    8  C   UNL     1      -7.172  -0.208 -33.182  1.00  0.00     0.259 A 
HETATM    9  O   UNL     1      -8.248  -0.329 -33.753  1.00  0.00    -0.267 OA
HETATM   10  C   UNL     1      -3.856  -1.852 -32.748  1.00  0.00     0.035 A 
HETATM   11  C   UNL     1      -3.974  -2.967 -33.589  1.00  0.00     0.039 A 
HETATM   12  H   UNL     1      -7.662   1.518 -32.253  1.00  0.00     0.170 HD
ENDROOT
BRANCH   6  13
HETATM   13  C   UNL     1      -5.631   2.261 -30.836  1.00  0.00     0.082 C 
HETATM   14  C   UNL     1      -4.479   3.188 -31.199  1.00  0.00     0.139 C 
HETATM   15  N   UNL     1      -4.986   4.497 -30.872  1.00  0.00    -0.347 N 
HETATM   16  C   UNL     1      -6.363   4.531 -30.787  1.00  0.00     0.220 C 
HETATM   17  O   UNL     1      -7.063   5.508 -30.582  1.00  0.00    -0.273 OA
HETATM   18  C   UNL     1      -6.876   3.134 -31.016  1.00  0.00     0.117 C 
BRANCH  15  19
HETATM   19  C   UNL     1      -4.130   5.658 -30.724  1.00  0.00     0.164 C 
BRANCH  19  20
HETATM   20  C   UNL     1      -3.123   5.750 -31.845  1.00  0.00    -0.040 A 
HETATM   21  C   UNL     1      -1.771   5.454 -31.624  1.00  0.00     0.009 A 
HETATM   22  C   UNL     1      -0.848   5.549 -32.668  1.00  0.00     0.001 A 
HETATM   23  C   UNL     1      -1.265   5.942 -33.939  1.00  0.00     0.000 A 
HETATM   24  C   UNL     1      -2.608   6.239 -34.169  1.00  0.00     0.001 A 
HETATM   25  C   UNL     1      -3.532   6.143 -33.129  1.00  0.00     0.009 A 
ENDBRANCH  19  20
ENDBRANCH  15  19
ENDBRANCH   6  13
BRANCH   1  26
HETATM   26  O   UNL     1      -5.390  -4.228 -35.160  1.00  0.00    -0.356 OA
HETATM   27  C   UNL     1      -6.750  -4.528 -35.448  1.00  0.00     0.210 C 
ENDBRANCH   1  26
TORSDOF 4
ENDMDL
