MODEL 1
REMARK VINA RESULT:      -8.2      0.000      0.000
REMARK  9 active torsions:
REMARK  status: ('A' for Active; 'I' for Inactive)
REMARK    1  A    between atoms: C_2  and  C_3 
REMARK    2  A    between atoms: C_7  and  C_8 
REMARK    3  A    between atoms: C_8  and  C_9 
REMARK       I    between atoms: C_9  and  N_10 
REMARK    4  A    between atoms: N_10  and  C_11 
REMARK    5  A    between atoms: C_11  and  C_12 
REMARK    6  A    between atoms: C_12  and  C_13 
REMARK    7  A    between atoms: C_21  and  C_22 
REMARK    8  A    between atoms: C_32  and  C_33 
REMARK    9  A    between atoms: C_33  and  O_34 
ROOT
HETATM    1  C   UNL     1      -3.937   5.588 -31.437  1.00  0.00     0.051 C 
HETATM    2  N   UNL     1      -4.667   5.804 -30.291  1.00  0.00    -0.228 NA
HETATM    3  C   UNL     1      -5.830   5.274 -30.195  1.00  0.00     0.170 C 
HETATM    4  N   UNL     1      -6.418   4.186 -31.147  1.00  0.00    -0.318 N 
HETATM    5  C   UNL     1      -7.509   3.722 -30.619  1.00  0.00     0.011 C 
HETATM    6  C   UNL     1      -5.537   3.827 -32.291  1.00  0.00     0.166 C 
HETATM    7  S   UNL     1      -6.881   5.633 -28.859  1.00  0.00    -0.086 SA
HETATM    8  C   UNL     1      -8.188   4.653 -29.632  1.00  0.00     0.135 C 
HETATM    9  C   UNL     1      -4.382   4.789 -32.428  1.00  0.00     0.069 C 
ENDROOT
BRANCH   5  10
HETATM   10  C   UNL     1      -7.951   2.283 -30.726  1.00  0.00     0.156 C 
BRANCH  10  11
HETATM   11  C   UNL     1      -8.956   2.197 -31.874  1.00  0.00     0.222 C 
HETATM   12  N   UNL     1      -9.676   1.038 -31.987  1.00  0.00    -0.361 N 
HETATM   13  H   UNL     1      -9.559   0.310 -31.286  1.00  0.00     0.162 HD
HETATM   14  O   UNL     1      -9.048   3.111 -32.699  1.00  0.00    -0.273 OA
BRANCH  12  15
HETATM   15  C   UNL     1     -10.213   0.613 -33.274  1.00  0.00     0.124 C 
BRANCH  15  16
HETATM   16  C   UNL     1     -11.325   1.476 -33.887  1.00  0.00     0.053 C 
BRANCH  16  17
HETATM   17  C   UNL     1     -12.766   1.147 -33.509  1.00  0.00     0.189 C 
HETATM   18  N   UNL     1     -13.477   2.157 -32.629  1.00  0.00    -0.071 N 
HETATM   19  H   UNL     1     -13.144   1.975 -31.663  1.00  0.00     0.279 HD
HETATM   20  C   UNL     1     -13.276   3.618 -32.920  1.00  0.00     0.270 C 
HETATM   21  C   UNL     1     -14.951   1.785 -32.721  1.00  0.00     0.235 C 
HETATM   22  C   UNL     1     -15.083   0.949 -33.988  1.00  0.00     0.030 C 
HETATM   23  C   UNL     1     -13.729   1.015 -34.679  1.00  0.00     0.035 C 
ENDBRANCH  16  17
ENDBRANCH  15  16
ENDBRANCH  12  15
ENDBRANCH  10  11
ENDBRANCH   5  10
BRANCH   6  24
HETATM   24  C   UNL     1      -5.076   2.369 -32.225  1.00  0.00    -0.024 A 
HETATM   25  C   UNL     1      -5.492   1.409 -33.183  1.00  0.00    -0.053 A 
HETATM   26  C   UNL     1      -6.405   1.737 -34.341  1.00  0.00     0.049 C 
HETATM   27  C   UNL     1      -5.012   0.090 -33.095  1.00  0.00     0.014 A 
HETATM   28  C   UNL     1      -4.140  -0.305 -32.077  1.00  0.00    -0.061 A 
HETATM   29  C   UNL     1      -3.580  -1.700 -32.056  1.00  0.00     0.048 C 
HETATM   30  C   UNL     1      -3.724   0.640 -31.141  1.00  0.00     0.007 A 
HETATM   31  C   UNL     1      -4.184   1.958 -31.209  1.00  0.00     0.011 A 
ENDBRANCH   6  24
BRANCH   9  32
HETATM   32  C   UNL     1      -3.856   4.919 -33.807  1.00  0.00     0.293 C 
HETATM   33  O   UNL     1      -4.405   5.558 -34.682  1.00  0.00    -0.259 OA
BRANCH  32  34
HETATM   34  O   UNL     1      -2.606   4.400 -33.834  1.00  0.00    -0.323 OA
HETATM   35  C   UNL     1      -1.698   5.012 -34.755  1.00  0.00     0.213 C 
ENDBRANCH  32  34
ENDBRANCH   9  32
BRANCH   1  36
HETATM   36  C   UNL     1      -2.627   6.371 -31.458  1.00  0.00     0.056 C 
HETATM   37  C   UNL     1      -2.758   7.824 -31.912  1.00  0.00     0.011 C 
ENDBRANCH   1  36
TORSDOF 9
ENDMDL
MODEL 2
REMARK VINA RESULT:      -8.1      2.036      3.450
REMARK  9 active torsions:
REMARK  status: ('A' for Active; 'I' for Inactive)
REMARK    1  A    between atoms: C_2  and  C_3 
REMARK    2  A    between atoms: C_7  and  C_8 
REMARK    3  A    between atoms: C_8  and  C_9 
REMARK       I    between atoms: C_9  and  N_10 
REMARK    4  A    between atoms: N_10  and  C_11 
REMARK    5  A    between atoms: C_11  and  C_12 
REMARK    6  A    between atoms: C_12  and  C_13 
REMARK    7  A    between atoms: C_21  and  C_22 
REMARK    8  A    between atoms: C_32  and  C_33 
REMARK    9  A    between atoms: C_33  and  O_34 
ROOT
HETATM    1  C   UNL     1      -1.545   6.714 -30.877  1.00  0.00     0.051 C 
HETATM    2  N   UNL     1      -2.047   6.972 -29.623  1.00  0.00    -0.228 NA
HETATM    3  C   UNL     1      -3.318   6.965 -29.457  1.00  0.00     0.170 C 
HETATM    4  N   UNL     1      -4.370   6.439 -30.484  1.00  0.00    -0.318 N 
HETATM    5  C   UNL     1      -5.523   6.372 -29.894  1.00  0.00     0.011 C 
HETATM    6  C   UNL     1      -3.793   5.991 -31.781  1.00  0.00     0.166 C 
HETATM    7  S   UNL     1      -4.037   7.444 -27.949  1.00  0.00    -0.086 SA
HETATM    8  C   UNL     1      -5.679   7.276 -28.686  1.00  0.00     0.135 C 
HETATM    9  C   UNL     1      -2.345   6.394 -31.915  1.00  0.00     0.069 C 
ENDROOT
BRANCH   5  10
HETATM   10  C   UNL     1      -6.550   5.301 -30.172  1.00  0.00     0.156 C 
BRANCH  10  11
HETATM   11  C   UNL     1      -7.529   5.863 -31.203  1.00  0.00     0.222 C 
HETATM   12  N   UNL     1      -8.503   5.017 -31.663  1.00  0.00    -0.361 N 
HETATM   13  H   UNL     1      -8.574   4.081 -31.271  1.00  0.00     0.162 HD
HETATM   14  O   UNL     1      -7.388   7.006 -31.647  1.00  0.00    -0.273 OA
BRANCH  12  15
HETATM   15  C   UNL     1      -9.108   5.215 -32.974  1.00  0.00     0.124 C 
BRANCH  15  16
HETATM   16  C   UNL     1      -9.470   3.956 -33.774  1.00  0.00     0.053 C 
BRANCH  16  17
HETATM   17  C   UNL     1      -9.086   2.604 -33.179  1.00  0.00     0.189 C 
HETATM   18  N   UNL     1     -10.230   1.730 -32.703  1.00  0.00    -0.071 N 
HETATM   19  H   UNL     1     -10.502   2.103 -31.773  1.00  0.00     0.279 HD
HETATM   20  C   UNL     1     -11.467   1.656 -33.553  1.00  0.00     0.270 C 
HETATM   21  C   UNL     1      -9.615   0.349 -32.520  1.00  0.00     0.235 C 
HETATM   22  C   UNL     1      -8.336   0.358 -33.349  1.00  0.00     0.030 C 
HETATM   23  C   UNL     1      -8.345   1.669 -34.122  1.00  0.00     0.035 C 
ENDBRANCH  16  17
ENDBRANCH  15  16
ENDBRANCH  12  15
ENDBRANCH  10  11
ENDBRANCH   5  10
BRANCH   6  24
HETATM   24  C   UNL     1      -4.006   4.494 -32.015  1.00  0.00    -0.024 A 
HETATM   25  C   UNL     1      -4.828   4.012 -33.066  1.00  0.00    -0.053 A 
HETATM   26  C   UNL     1      -5.548   4.918 -34.037  1.00  0.00     0.049 C 
HETATM   27  C   UNL     1      -4.963   2.625 -33.260  1.00  0.00     0.014 A 
HETATM   28  C   UNL     1      -4.314   1.704 -32.432  1.00  0.00    -0.061 A 
HETATM   29  C   UNL     1      -4.412   0.231 -32.712  1.00  0.00     0.048 C 
HETATM   30  C   UNL     1      -3.499   2.178 -31.405  1.00  0.00     0.007 A 
HETATM   31  C   UNL     1      -3.346   3.551 -31.196  1.00  0.00     0.011 A 
ENDBRANCH   6  24
BRANCH   9  32
HETATM   32  C   UNL     1      -1.889   6.574 -33.313  1.00  0.00     0.293 C 
HETATM   33  O   UNL     1      -1.828   7.652 -33.870  1.00  0.00    -0.259 OA
BRANCH  32  34
HETATM   34  O   UNL     1      -1.375   5.399 -33.746  1.00  0.00    -0.323 OA
HETATM   35  C   UNL     1      -1.820   4.962 -35.034  1.00  0.00     0.213 C 
ENDBRANCH  32  34
ENDBRANCH   9  32
BRANCH   1  36
HETATM   36  C   UNL     1      -0.028   6.870 -30.949  1.00  0.00     0.056 C 
HETATM   37  C   UNL     1       0.753   5.562 -30.847  1.00  0.00     0.011 C 
ENDBRANCH   1  36
TORSDOF 9
ENDMDL
MODEL 3
REMARK VINA RESULT:      -8.0      3.400      5.763
REMARK  9 active torsions:
REMARK  status: ('A' for Active; 'I' for Inactive)
REMARK    1  A    between atoms: C_2  and  C_3 
REMARK    2  A    between atoms: C_7  and  C_8 
REMARK    3  A    between atoms: C_8  and  C_9 
REMARK       I    between atoms: C_9  and  N_10 
REMARK    4  A    between atoms: N_10  and  C_11 
REMARK    5  A    between atoms: C_11  and  C_12 
REMARK    6  A    between atoms: C_12  and  C_13 
REMARK    7  A    between atoms: C_21  and  C_22 
REMARK    8  A    between atoms: C_32  and  C_33 
REMARK    9  A    between atoms: C_33  and  O_34 
ROOT
HETATM    1  C   UNL     1      -2.794   4.286 -32.348  1.00  0.00     0.051 C 
HETATM    2  N   UNL     1      -2.796   2.911 -32.337  1.00  0.00    -0.228 NA
HETATM    3  C   UNL     1      -3.627   2.305 -31.573  1.00  0.00     0.170 C 
HETATM    4  N   UNL     1      -4.828   2.964 -30.825  1.00  0.00    -0.318 N 
HETATM    5  C   UNL     1      -5.578   2.023 -30.339  1.00  0.00     0.011 C 
HETATM    6  C   UNL     1      -4.922   4.440 -30.991  1.00  0.00     0.166 C 
HETATM    7  S   UNL     1      -3.581   0.579 -31.374  1.00  0.00    -0.086 SA
HETATM    8  C   UNL     1      -4.878   0.696 -30.120  1.00  0.00     0.135 C 
HETATM    9  C   UNL     1      -3.678   5.009 -31.629  1.00  0.00     0.069 C 
ENDROOT
BRANCH   5  10
HETATM   10  C   UNL     1      -7.082   2.106 -30.252  1.00  0.00     0.156 C 
BRANCH  10  11
HETATM   11  C   UNL     1      -7.647   1.586 -31.574  1.00  0.00     0.222 C 
HETATM   12  N   UNL     1      -7.039   0.489 -32.123  1.00  0.00    -0.361 N 
HETATM   13  H   UNL     1      -6.283   0.034 -31.617  1.00  0.00     0.162 HD
HETATM   14  O   UNL     1      -8.563   2.185 -32.145  1.00  0.00    -0.273 OA
BRANCH  12  15
HETATM   15  C   UNL     1      -7.092   0.245 -33.559  1.00  0.00     0.124 C 
BRANCH  15  16
HETATM   16  C   UNL     1      -5.846  -0.371 -34.210  1.00  0.00     0.053 C 
BRANCH  16  17
HETATM   17  C   UNL     1      -5.972  -1.777 -34.791  1.00  0.00     0.189 C 
HETATM   18  N   UNL     1      -4.779  -2.693 -34.598  1.00  0.00    -0.071 N 
HETATM   19  H   UNL     1      -4.090  -2.416 -35.323  1.00  0.00     0.279 HD
HETATM   20  C   UNL     1      -4.082  -2.680 -33.266  1.00  0.00     0.270 C 
HETATM   21  C   UNL     1      -5.302  -4.086 -34.921  1.00  0.00     0.235 C 
HETATM   22  C   UNL     1      -6.817  -3.995 -34.788  1.00  0.00     0.030 C 
HETATM   23  C   UNL     1      -7.108  -2.613 -34.223  1.00  0.00     0.035 C 
ENDBRANCH  16  17
ENDBRANCH  15  16
ENDBRANCH  12  15
ENDBRANCH  10  11
ENDBRANCH   5  10
BRANCH   6  24
HETATM   24  C   UNL     1      -6.197   4.853 -31.730  1.00  0.00    -0.024 A 
HETATM   25  C   UNL     1      -7.268   5.504 -31.066  1.00  0.00    -0.053 A 
HETATM   26  C   UNL     1      -7.243   5.849 -29.595  1.00  0.00     0.049 C 
HETATM   27  C   UNL     1      -8.404   5.894 -31.799  1.00  0.00     0.014 A 
HETATM   28  C   UNL     1      -8.510   5.646 -33.170  1.00  0.00    -0.061 A 
HETATM   29  C   UNL     1      -9.699   6.144 -33.942  1.00  0.00     0.048 C 
HETATM   30  C   UNL     1      -7.453   5.014 -33.825  1.00  0.00     0.007 A 
HETATM   31  C   UNL     1      -6.313   4.621 -33.119  1.00  0.00     0.011 A 
ENDBRANCH   6  24
BRANCH   9  32
HETATM   32  C   UNL     1      -3.398   6.419 -31.271  1.00  0.00     0.293 C 
HETATM   33  O   UNL     1      -3.833   7.371 -31.887  1.00  0.00    -0.259 OA
BRANCH  32  34
HETATM   34  O   UNL     1      -2.784   6.436 -30.064  1.00  0.00    -0.323 OA
HETATM   35  C   UNL     1      -1.529   7.120 -30.015  1.00  0.00     0.213 C 
ENDBRANCH  32  34
ENDBRANCH   9  32
BRANCH   1  36
HETATM   36  C   UNL     1      -1.680   4.868 -33.215  1.00  0.00     0.056 C 
HETATM   37  C   UNL     1      -2.040   5.033 -34.690  1.00  0.00     0.011 C 
ENDBRANCH   1  36
TORSDOF 9
ENDMDL
MODEL 4
REMARK VINA RESULT:      -7.9      2.785      8.183
REMARK  9 active torsions:
REMARK  status: ('A' for Active; 'I' for Inactive)
REMARK    1  A    between atoms: C_2  and  C_3 
REMARK    2  A    between atoms: C_7  and  C_8 
REMARK    3  A    between atoms: C_8  and  C_9 
REMARK       I    between atoms: C_9  and  N_10 
REMARK    4  A    between atoms: N_10  and  C_11 
REMARK    5  A    between atoms: C_11  and  C_12 
REMARK    6  A    between atoms: C_12  and  C_13 
REMARK    7  A    between atoms: C_21  and  C_22 
REMARK    8  A    between atoms: C_32  and  C_33 
REMARK    9  A    between atoms: C_33  and  O_34 
ROOT
HETATM    1  C   UNL     1      -8.763   4.115 -33.791  1.00  0.00     0.051 C 
HETATM    2  N   UNL     1      -7.812   5.109 -33.823  1.00  0.00    -0.228 NA
HETATM    3  C   UNL     1      -6.888   5.102 -32.935  1.00  0.00     0.170 C 
HETATM    4  N   UNL     1      -6.572   3.929 -31.955  1.00  0.00    -0.318 N 
HETATM    5  C   UNL     1      -5.442   4.177 -31.366  1.00  0.00     0.011 C 
HETATM    6  C   UNL     1      -7.506   2.775 -32.054  1.00  0.00     0.166 C 
HETATM    7  S   UNL     1      -5.752   6.410 -32.802  1.00  0.00    -0.086 SA
HETATM    8  C   UNL     1      -5.050   5.642 -31.324  1.00  0.00     0.135 C 
HETATM    9  C   UNL     1      -8.713   3.107 -32.897  1.00  0.00     0.069 C 
ENDROOT
BRANCH   5  10
HETATM   10  C   UNL     1      -4.436   3.116 -30.995  1.00  0.00     0.156 C 
BRANCH  10  11
HETATM   11  C   UNL     1      -3.124   3.462 -31.699  1.00  0.00     0.222 C 
HETATM   12  N   UNL     1      -2.192   4.157 -30.976  1.00  0.00    -0.361 N 
HETATM   13  H   UNL     1      -2.379   4.368 -29.998  1.00  0.00     0.162 HD
HETATM   14  O   UNL     1      -2.958   3.187 -32.891  1.00  0.00    -0.273 OA
BRANCH  12  15
HETATM   15  C   UNL     1      -1.205   4.999 -31.639  1.00  0.00     0.124 C 
BRANCH  15  16
HETATM   16  C   UNL     1      -1.480   6.509 -31.670  1.00  0.00     0.053 C 
BRANCH  16  17
HETATM   17  C   UNL     1      -0.734   7.385 -30.668  1.00  0.00     0.189 C 
HETATM   18  N   UNL     1      -1.573   8.024 -29.578  1.00  0.00    -0.071 N 
HETATM   19  H   UNL     1      -2.026   8.848 -30.017  1.00  0.00     0.279 HD
HETATM   20  C   UNL     1      -2.646   7.194 -28.931  1.00  0.00     0.270 C 
HETATM   21  C   UNL     1      -0.566   8.507 -28.543  1.00  0.00     0.235 C 
HETATM   22  C   UNL     1       0.707   7.712 -28.810  1.00  0.00     0.030 C 
HETATM   23  C   UNL     1       0.344   6.676 -29.863  1.00  0.00     0.035 C 
ENDBRANCH  16  17
ENDBRANCH  15  16
ENDBRANCH  12  15
ENDBRANCH  10  11
ENDBRANCH   5  10
BRANCH   6  24
HETATM   24  C   UNL     1      -6.796   1.504 -32.527  1.00  0.00    -0.024 A 
HETATM   25  C   UNL     1      -6.422   0.476 -31.624  1.00  0.00    -0.053 A 
HETATM   26  C   UNL     1      -6.694   0.540 -30.139  1.00  0.00     0.049 C 
HETATM   27  C   UNL     1      -5.803  -0.687 -32.115  1.00  0.00     0.014 A 
HETATM   28  C   UNL     1      -5.535  -0.854 -33.477  1.00  0.00    -0.061 A 
HETATM   29  C   UNL     1      -4.946  -2.141 -33.983  1.00  0.00     0.048 C 
HETATM   30  C   UNL     1      -5.911   0.152 -34.366  1.00  0.00     0.007 A 
HETATM   31  C   UNL     1      -6.531   1.315 -33.902  1.00  0.00     0.011 A 
ENDBRANCH   6  24
BRANCH   9  32
HETATM   32  C   UNL     1      -9.928   2.331 -32.553  1.00  0.00     0.293 C 
HETATM   33  O   UNL     1     -10.781   2.719 -31.781  1.00  0.00    -0.259 OA
BRANCH  32  34
HETATM   34  O   UNL     1     -10.004   1.269 -33.389  1.00  0.00    -0.323 OA
HETATM   35  C   UNL     1     -10.054  -0.015 -32.761  1.00  0.00     0.213 C 
ENDBRANCH  32  34
ENDBRANCH   9  32
BRANCH   1  36
HETATM   36  C   UNL     1      -9.860   4.315 -34.834  1.00  0.00     0.056 C 
HETATM   37  C   UNL     1     -10.072   5.763 -35.268  1.00  0.00     0.011 C 
ENDBRANCH   1  36
TORSDOF 9
ENDMDL
MODEL 5
REMARK VINA RESULT:      -7.8      3.291      8.421
REMARK  9 active torsions:
REMARK  status: ('A' for Active; 'I' for Inactive)
REMARK    1  A    between atoms: C_2  and  C_3 
REMARK    2  A    between atoms: C_7  and  C_8 
REMARK    3  A    between atoms: C_8  and  C_9 
REMARK       I    between atoms: C_9  and  N_10 
REMARK    4  A    between atoms: N_10  and  C_11 
REMARK    5  A    between atoms: C_11  and  C_12 
REMARK    6  A    between atoms: C_12  and  C_13 
REMARK    7  A    between atoms: C_21  and  C_22 
REMARK    8  A    between atoms: C_32  and  C_33 
REMARK    9  A    between atoms: C_33  and  O_34 
ROOT
HETATM    1  C   UNL     1      -7.805   2.023 -33.627  1.00  0.00     0.051 C 
HETATM    2  N   UNL     1      -8.750   2.973 -33.937  1.00  0.00    -0.228 NA
HETATM    3  C   UNL     1      -8.678   4.119 -33.367  1.00  0.00     0.170 C 
HETATM    4  N   UNL     1      -7.470   4.649 -32.533  1.00  0.00    -0.318 N 
HETATM    5  C   UNL     1      -7.648   5.915 -32.309  1.00  0.00     0.011 C 
HETATM    6  C   UNL     1      -6.367   3.667 -32.353  1.00  0.00     0.166 C 
HETATM    7  S   UNL     1      -9.923   5.313 -33.575  1.00  0.00    -0.086 SA
HETATM    8  C   UNL     1      -9.090   6.381 -32.379  1.00  0.00     0.135 C 
HETATM    9  C   UNL     1      -6.777   2.283 -32.793  1.00  0.00     0.069 C 
ENDROOT
BRANCH   5  10
HETATM   10  C   UNL     1      -6.529   6.927 -32.261  1.00  0.00     0.156 C 
BRANCH  10  11
HETATM   11  C   UNL     1      -5.928   6.879 -30.856  1.00  0.00     0.222 C 
HETATM   12  N   UNL     1      -4.738   7.528 -30.664  1.00  0.00    -0.361 N 
HETATM   13  H   UNL     1      -4.330   8.054 -31.433  1.00  0.00     0.162 HD
HETATM   14  O   UNL     1      -6.467   6.218 -29.964  1.00  0.00    -0.273 OA
BRANCH  12  15
HETATM   15  C   UNL     1      -3.823   7.117 -29.607  1.00  0.00     0.124 C 
BRANCH  15  16
HETATM   16  C   UNL     1      -2.367   6.846 -30.008  1.00  0.00     0.053 C 
BRANCH  16  17
HETATM   17  C   UNL     1      -1.305   6.926 -28.914  1.00  0.00     0.189 C 
HETATM   18  N   UNL     1      -0.385   5.727 -28.784  1.00  0.00    -0.071 N 
HETATM   19  H   UNL     1      -0.924   5.012 -28.258  1.00  0.00     0.279 HD
HETATM   20  C   UNL     1       0.130   5.087 -30.042  1.00  0.00     0.270 C 
HETATM   21  C   UNL     1       0.767   6.213 -27.914  1.00  0.00     0.235 C 
HETATM   22  C   UNL     1       0.732   7.734 -28.003  1.00  0.00     0.030 C 
HETATM   23  C   UNL     1      -0.315   8.071 -29.055  1.00  0.00     0.035 C 
ENDBRANCH  16  17
ENDBRANCH  15  16
ENDBRANCH  12  15
ENDBRANCH  10  11
ENDBRANCH   5  10
BRANCH   6  24
HETATM   24  C   UNL     1      -5.071   4.132 -33.023  1.00  0.00    -0.024 A 
HETATM   25  C   UNL     1      -3.826   4.103 -32.343  1.00  0.00    -0.053 A 
HETATM   26  C   UNL     1      -3.670   3.611 -30.924  1.00  0.00     0.049 C 
HETATM   27  C   UNL     1      -2.660   4.509 -33.016  1.00  0.00     0.014 A 
HETATM   28  C   UNL     1      -2.697   4.953 -34.341  1.00  0.00    -0.061 A 
HETATM   29  C   UNL     1      -1.425   5.304 -35.060  1.00  0.00     0.048 C 
HETATM   30  C   UNL     1      -3.919   4.973 -35.012  1.00  0.00     0.007 A 
HETATM   31  C   UNL     1      -5.090   4.570 -34.366  1.00  0.00     0.011 A 
ENDBRANCH   6  24
BRANCH   9  32
HETATM   32  C   UNL     1      -6.057   1.186 -32.105  1.00  0.00     0.293 C 
HETATM   33  O   UNL     1      -6.465   0.634 -31.102  1.00  0.00    -0.259 OA
BRANCH  32  34
HETATM   34  O   UNL     1      -5.028   0.794 -32.892  1.00  0.00    -0.323 OA
HETATM   35  C   UNL     1      -4.639  -0.578 -32.771  1.00  0.00     0.213 C 
ENDBRANCH  32  34
ENDBRANCH   9  32
BRANCH   1  36
HETATM   36  C   UNL     1      -8.082   0.677 -34.291  1.00  0.00     0.056 C 
HETATM   37  C   UNL     1      -7.242   0.394 -35.535  1.00  0.00     0.011 C 
ENDBRANCH   1  36
TORSDOF 9
ENDMDL
MODEL 6
REMARK VINA RESULT:      -7.8      2.692      5.230
REMARK  9 active torsions:
REMARK  status: ('A' for Active; 'I' for Inactive)
REMARK    1  A    between atoms: C_2  and  C_3 
REMARK    2  A    between atoms: C_7  and  C_8 
REMARK    3  A    between atoms: C_8  and  C_9 
REMARK       I    between atoms: C_9  and  N_10 
REMARK    4  A    between atoms: N_10  and  C_11 
REMARK    5  A    between atoms: C_11  and  C_12 
REMARK    6  A    between atoms: C_12  and  C_13 
REMARK    7  A    between atoms: C_21  and  C_22 
REMARK    8  A    between atoms: C_32  and  C_33 
REMARK    9  A    between atoms: C_33  and  O_34 
ROOT
HETATM    1  C   UNL     1      -6.391  -0.652 -33.996  1.00  0.00     0.051 C 
HETATM    2  N   UNL     1      -7.738  -0.384 -33.911  1.00  0.00    -0.228 NA
HETATM    3  C   UNL     1      -8.148   0.414 -32.996  1.00  0.00     0.170 C 
HETATM    4  N   UNL     1      -7.245   1.326 -32.108  1.00  0.00    -0.318 N 
HETATM    5  C   UNL     1      -8.005   2.156 -31.463  1.00  0.00     0.011 C 
HETATM    6  C   UNL     1      -5.784   1.157 -32.337  1.00  0.00     0.166 C 
HETATM    7  S   UNL     1      -9.843   0.673 -32.714  1.00  0.00    -0.086 SA
HETATM    8  C   UNL     1      -9.441   1.701 -31.283  1.00  0.00     0.135 C 
HETATM    9  C   UNL     1      -5.491  -0.054 -33.189  1.00  0.00     0.069 C 
ENDROOT
BRANCH   5  10
HETATM   10  C   UNL     1      -7.620   3.581 -31.148  1.00  0.00     0.156 C 
BRANCH  10  11
HETATM   11  C   UNL     1      -8.575   4.494 -31.919  1.00  0.00     0.222 C 
HETATM   12  N   UNL     1      -8.670   4.298 -33.270  1.00  0.00    -0.361 N 
HETATM   13  H   UNL     1      -8.154   3.533 -33.699  1.00  0.00     0.162 HD
HETATM   14  O   UNL     1      -9.169   5.410 -31.344  1.00  0.00    -0.273 OA
BRANCH  12  15
HETATM   15  C   UNL     1      -9.069   5.384 -34.157  1.00  0.00     0.124 C 
BRANCH  15  16
HETATM   16  C   UNL     1     -10.372   5.199 -34.946  1.00  0.00     0.053 C 
BRANCH  16  17
HETATM   17  C   UNL     1     -11.161   3.913 -34.720  1.00  0.00     0.189 C 
HETATM   18  N   UNL     1     -12.101   3.902 -33.529  1.00  0.00    -0.071 N 
HETATM   19  H   UNL     1     -11.504   3.724 -32.699  1.00  0.00     0.279 HD
HETATM   20  C   UNL     1     -12.918   5.134 -33.259  1.00  0.00     0.270 C 
HETATM   21  C   UNL     1     -13.002   2.695 -33.756  1.00  0.00     0.235 C 
HETATM   22  C   UNL     1     -12.896   2.379 -35.243  1.00  0.00     0.030 C 
HETATM   23  C   UNL     1     -12.087   3.512 -35.857  1.00  0.00     0.035 C 
ENDBRANCH  16  17
ENDBRANCH  15  16
ENDBRANCH  12  15
ENDBRANCH  10  11
ENDBRANCH   5  10
BRANCH   6  24
HETATM   24  C   UNL     1      -5.140   2.429 -32.891  1.00  0.00    -0.024 A 
HETATM   25  C   UNL     1      -3.963   2.980 -32.321  1.00  0.00    -0.053 A 
HETATM   26  C   UNL     1      -3.248   2.365 -31.142  1.00  0.00     0.049 C 
HETATM   27  C   UNL     1      -3.392   4.133 -32.891  1.00  0.00     0.014 A 
HETATM   28  C   UNL     1      -3.962   4.759 -34.002  1.00  0.00    -0.061 A 
HETATM   29  C   UNL     1      -3.286   5.942 -34.638  1.00  0.00     0.048 C 
HETATM   30  C   UNL     1      -5.113   4.213 -34.568  1.00  0.00     0.007 A 
HETATM   31  C   UNL     1      -5.697   3.066 -34.022  1.00  0.00     0.011 A 
ENDBRANCH   6  24
BRANCH   9  32
HETATM   32  C   UNL     1      -4.158  -0.657 -32.954  1.00  0.00     0.293 C 
HETATM   33  O   UNL     1      -3.132  -0.240 -33.452  1.00  0.00    -0.259 OA
BRANCH  32  34
HETATM   34  O   UNL     1      -4.274  -1.570 -31.962  1.00  0.00    -0.323 OA
HETATM   35  C   UNL     1      -3.261  -2.579 -31.923  1.00  0.00     0.213 C 
ENDBRANCH  32  34
ENDBRANCH   9  32
BRANCH   1  36
HETATM   36  C   UNL     1      -6.064  -1.702 -35.055  1.00  0.00     0.056 C 
HETATM   37  C   UNL     1      -6.515  -3.120 -34.708  1.00  0.00     0.011 C 
ENDBRANCH   1  36
TORSDOF 9
ENDMDL
MODEL 7
REMARK VINA RESULT:      -7.8      2.412      4.530
REMARK  9 active torsions:
REMARK  status: ('A' for Active; 'I' for Inactive)
REMARK    1  A    between atoms: C_2  and  C_3 
REMARK    2  A    between atoms: C_7  and  C_8 
REMARK    3  A    between atoms: C_8  and  C_9 
REMARK       I    between atoms: C_9  and  N_10 
REMARK    4  A    between atoms: N_10  and  C_11 
REMARK    5  A    between atoms: C_11  and  C_12 
REMARK    6  A    between atoms: C_12  and  C_13 
REMARK    7  A    between atoms: C_21  and  C_22 
REMARK    8  A    between atoms: C_32  and  C_33 
REMARK    9  A    between atoms: C_33  and  O_34 
ROOT
HETATM    1  C   UNL     1      -2.572   4.489 -32.420  1.00  0.00     0.051 C 
HETATM    2  N   UNL     1      -2.715   3.144 -32.670  1.00  0.00    -0.228 NA
HETATM    3  C   UNL     1      -3.514   2.465 -31.932  1.00  0.00     0.170 C 
HETATM    4  N   UNL     1      -4.550   3.055 -30.924  1.00  0.00    -0.318 N 
HETATM    5  C   UNL     1      -5.334   2.098 -30.533  1.00  0.00     0.011 C 
HETATM    6  C   UNL     1      -4.508   4.537 -30.794  1.00  0.00     0.166 C 
HETATM    7  S   UNL     1      -3.626   0.736 -32.072  1.00  0.00    -0.086 SA
HETATM    8  C   UNL     1      -4.755   0.702 -30.661  1.00  0.00     0.135 C 
HETATM    9  C   UNL     1      -3.290   5.120 -31.469  1.00  0.00     0.069 C 
ENDROOT
BRANCH   5  10
HETATM   10  C   UNL     1      -6.803   2.282 -30.237  1.00  0.00     0.156 C 
BRANCH  10  11
HETATM   11  C   UNL     1      -7.578   1.860 -31.486  1.00  0.00     0.222 C 
HETATM   12  N   UNL     1      -8.698   1.096 -31.296  1.00  0.00    -0.361 N 
HETATM   13  H   UNL     1      -9.001   0.886 -30.348  1.00  0.00     0.162 HD
HETATM   14  O   UNL     1      -7.156   2.140 -32.612  1.00  0.00    -0.273 OA
BRANCH  12  15
HETATM   15  C   UNL     1      -9.179   0.200 -32.340  1.00  0.00     0.124 C 
BRANCH  15  16
HETATM   16  C   UNL     1     -10.454   0.617 -33.086  1.00  0.00     0.053 C 
BRANCH  16  17
HETATM   17  C   UNL     1     -10.406   1.902 -33.908  1.00  0.00     0.189 C 
HETATM   18  N   UNL     1     -11.347   1.975 -35.095  1.00  0.00    -0.071 N 
HETATM   19  H   UNL     1     -10.890   1.431 -35.852  1.00  0.00     0.279 HD
HETATM   20  C   UNL     1     -12.745   1.452 -34.926  1.00  0.00     0.270 C 
HETATM   21  C   UNL     1     -11.364   3.447 -35.487  1.00  0.00     0.235 C 
HETATM   22  C   UNL     1     -10.871   4.203 -34.260  1.00  0.00     0.030 C 
HETATM   23  C   UNL     1     -10.756   3.171 -33.148  1.00  0.00     0.035 C 
ENDBRANCH  16  17
ENDBRANCH  15  16
ENDBRANCH  12  15
ENDBRANCH  10  11
ENDBRANCH   5  10
BRANCH   6  24
HETATM   24  C   UNL     1      -5.807   5.190 -31.270  1.00  0.00    -0.024 A 
HETATM   25  C   UNL     1      -6.701   5.821 -30.367  1.00  0.00    -0.053 A 
HETATM   26  C   UNL     1      -6.450   5.909 -28.880  1.00  0.00     0.049 C 
HETATM   27  C   UNL     1      -7.865   6.437 -30.861  1.00  0.00     0.014 A 
HETATM   28  C   UNL     1      -8.172   6.434 -32.225  1.00  0.00    -0.061 A 
HETATM   29  C   UNL     1      -9.381   7.169 -32.732  1.00  0.00     0.048 C 
HETATM   30  C   UNL     1      -7.289   5.822 -33.113  1.00  0.00     0.007 A 
HETATM   31  C   UNL     1      -6.124   5.208 -32.647  1.00  0.00     0.011 A 
ENDBRANCH   6  24
BRANCH   9  32
HETATM   32  C   UNL     1      -2.828   6.403 -30.889  1.00  0.00     0.293 C 
HETATM   33  O   UNL     1      -1.993   6.485 -30.010  1.00  0.00    -0.259 OA
BRANCH  32  34
HETATM   34  O   UNL     1      -3.325   7.412 -31.641  1.00  0.00    -0.323 OA
HETATM   35  C   UNL     1      -4.016   8.440 -30.925  1.00  0.00     0.213 C 
ENDBRANCH  32  34
ENDBRANCH   9  32
BRANCH   1  36
HETATM   36  C   UNL     1      -1.507   5.142 -33.298  1.00  0.00     0.056 C 
HETATM   37  C   UNL     1      -1.810   5.115 -34.794  1.00  0.00     0.011 C 
ENDBRANCH   1  36
TORSDOF 9
ENDMDL
MODEL 8
REMARK VINA RESULT:      -7.5      3.425      5.820
REMARK  9 active torsions:
REMARK  status: ('A' for Active; 'I' for Inactive)
REMARK    1  A    between atoms: C_2  and  C_3 
REMARK    2  A    between atoms: C_7  and  C_8 
REMARK    3  A    between atoms: C_8  and  C_9 
REMARK       I    between atoms: C_9  and  N_10 
REMARK    4  A    between atoms: N_10  and  C_11 
REMARK    5  A    between atoms: C_11  and  C_12 
REMARK    6  A    between atoms: C_12  and  C_13 
REMARK    7  A    between atoms: C_21  and  C_22 
REMARK    8  A    between atoms: C_32  and  C_33 
REMARK    9  A    between atoms: C_33  and  O_34 
ROOT
HETATM    1  C   UNL     1      -4.684   7.948 -30.168  1.00  0.00     0.051 C 
HETATM    2  N   UNL     1      -3.602   8.111 -31.000  1.00  0.00    -0.228 NA
HETATM    3  C   UNL     1      -3.032   7.067 -31.478  1.00  0.00     0.170 C 
HETATM    4  N   UNL     1      -3.594   5.612 -31.417  1.00  0.00    -0.318 N 
HETATM    5  C   UNL     1      -2.875   4.860 -32.193  1.00  0.00     0.011 C 
HETATM    6  C   UNL     1      -4.868   5.475 -30.661  1.00  0.00     0.166 C 
HETATM    7  S   UNL     1      -1.562   7.179 -32.398  1.00  0.00    -0.086 SA
HETATM    8  C   UNL     1      -1.474   5.375 -32.465  1.00  0.00     0.135 C 
HETATM    9  C   UNL     1      -5.197   6.731 -29.891  1.00  0.00     0.069 C 
ENDROOT
BRANCH   5  10
HETATM   10  C   UNL     1      -3.430   3.716 -33.005  1.00  0.00     0.156 C 
BRANCH  10  11
HETATM   11  C   UNL     1      -3.318   2.452 -32.152  1.00  0.00     0.222 C 
HETATM   12  N   UNL     1      -3.955   1.331 -32.612  1.00  0.00    -0.361 N 
HETATM   13  H   UNL     1      -4.426   1.361 -33.513  1.00  0.00     0.162 HD
HETATM   14  O   UNL     1      -2.738   2.478 -31.063  1.00  0.00    -0.273 OA
BRANCH  12  15
HETATM   15  C   UNL     1      -4.390   0.287 -31.692  1.00  0.00     0.124 C 
BRANCH  15  16
HETATM   16  C   UNL     1      -5.802  -0.280 -31.895  1.00  0.00     0.053 C 
BRANCH  16  17
HETATM   17  C   UNL     1      -6.601   0.220 -33.095  1.00  0.00     0.189 C 
HETATM   18  N   UNL     1      -6.254  -0.396 -34.437  1.00  0.00    -0.071 N 
HETATM   19  H   UNL     1      -5.396   0.091 -34.759  1.00  0.00     0.279 HD
HETATM   20  C   UNL     1      -5.997  -1.876 -34.492  1.00  0.00     0.270 C 
HETATM   21  C   UNL     1      -7.411  -0.014 -35.351  1.00  0.00     0.235 C 
HETATM   22  C   UNL     1      -8.565   0.344 -34.422  1.00  0.00     0.030 C 
HETATM   23  C   UNL     1      -8.101  -0.012 -33.017  1.00  0.00     0.035 C 
ENDBRANCH  16  17
ENDBRANCH  15  16
ENDBRANCH  12  15
ENDBRANCH  10  11
ENDBRANCH   5  10
BRANCH   6  24
HETATM   24  C   UNL     1      -6.022   5.023 -31.559  1.00  0.00    -0.024 A 
HETATM   25  C   UNL     1      -6.771   3.851 -31.280  1.00  0.00    -0.053 A 
HETATM   26  C   UNL     1      -6.508   2.964 -30.086  1.00  0.00     0.049 C 
HETATM   27  C   UNL     1      -7.844   3.498 -32.120  1.00  0.00     0.014 A 
HETATM   28  C   UNL     1      -8.186   4.270 -33.233  1.00  0.00    -0.061 A 
HETATM   29  C   UNL     1      -9.385   3.914 -34.065  1.00  0.00     0.048 C 
HETATM   30  C   UNL     1      -7.454   5.426 -33.503  1.00  0.00     0.007 A 
HETATM   31  C   UNL     1      -6.387   5.799 -32.681  1.00  0.00     0.011 A 
ENDBRANCH   6  24
BRANCH   9  32
HETATM   32  C   UNL     1      -6.020   6.507 -28.680  1.00  0.00     0.293 C 
HETATM   33  O   UNL     1      -7.212   6.731 -28.623  1.00  0.00    -0.259 OA
BRANCH  32  34
HETATM   34  O   UNL     1      -5.269   5.835 -27.775  1.00  0.00    -0.323 OA
HETATM   35  C   UNL     1      -4.648   6.636 -26.766  1.00  0.00     0.213 C 
ENDBRANCH  32  34
ENDBRANCH   9  32
BRANCH   1  36
HETATM   36  C   UNL     1      -5.186   9.268 -29.587  1.00  0.00     0.056 C 
HETATM   37  C   UNL     1      -4.152  10.040 -28.771  1.00  0.00     0.011 C 
ENDBRANCH   1  36
TORSDOF 9
ENDMDL
MODEL 9
REMARK VINA RESULT:      -7.5      2.892      7.162
REMARK  9 active torsions:
REMARK  status: ('A' for Active; 'I' for Inactive)
REMARK    1  A    between atoms: C_2  and  C_3 
REMARK    2  A    between atoms: C_7  and  C_8 
REMARK    3  A    between atoms: C_8  and  C_9 
REMARK       I    between atoms: C_9  and  N_10 
REMARK    4  A    between atoms: N_10  and  C_11 
REMARK    5  A    between atoms: C_11  and  C_12 
REMARK    6  A    between atoms: C_12  and  C_13 
REMARK    7  A    between atoms: C_21  and  C_22 
REMARK    8  A    between atoms: C_32  and  C_33 
REMARK    9  A    between atoms: C_33  and  O_34 
ROOT
HETATM    1  C   UNL     1      -7.131  -0.138 -34.179  1.00  0.00     0.051 C 
HETATM    2  N   UNL     1      -8.383   0.288 -34.556  1.00  0.00    -0.228 NA
HETATM    3  C   UNL     1      -8.958   1.196 -33.857  1.00  0.00     0.170 C 
HETATM    4  N   UNL     1      -8.279   2.064 -32.752  1.00  0.00    -0.318 N 
HETATM    5  C   UNL     1      -9.090   3.023 -32.425  1.00  0.00     0.011 C 
HETATM    6  C   UNL     1      -6.860   1.711 -32.476  1.00  0.00     0.166 C 
HETATM    7  S   UNL     1     -10.602   1.669 -34.163  1.00  0.00    -0.086 SA
HETATM    8  C   UNL     1     -10.554   2.751 -32.716  1.00  0.00     0.135 C 
HETATM    9  C   UNL     1      -6.470   0.413 -33.140  1.00  0.00     0.069 C 
ENDROOT
BRANCH   5  10
HETATM   10  C   UNL     1      -8.641   4.414 -32.050  1.00  0.00     0.156 C 
BRANCH  10  11
HETATM   11  C   UNL     1      -8.551   4.470 -30.524  1.00  0.00     0.222 C 
HETATM   12  N   UNL     1      -8.490   5.711 -29.949  1.00  0.00    -0.361 N 
HETATM   13  H   UNL     1      -8.560   6.537 -30.539  1.00  0.00     0.162 HD
HETATM   14  O   UNL     1      -8.462   3.433 -29.861  1.00  0.00    -0.273 OA
BRANCH  12  15
HETATM   15  C   UNL     1      -7.866   5.901 -28.645  1.00  0.00     0.124 C 
BRANCH  15  16
HETATM   16  C   UNL     1      -6.332   5.942 -28.603  1.00  0.00     0.053 C 
BRANCH  16  17
HETATM   17  C   UNL     1      -5.614   6.718 -29.704  1.00  0.00     0.189 C 
HETATM   18  N   UNL     1      -5.913   8.202 -29.785  1.00  0.00    -0.071 N 
HETATM   19  H   UNL     1      -6.825   8.281 -30.275  1.00  0.00     0.279 HD
HETATM   20  C   UNL     1      -6.008   8.978 -28.501  1.00  0.00     0.270 C 
HETATM   21  C   UNL     1      -4.822   8.771 -30.681  1.00  0.00     0.235 C 
HETATM   22  C   UNL     1      -3.698   7.742 -30.661  1.00  0.00     0.030 C 
HETATM   23  C   UNL     1      -4.096   6.705 -29.621  1.00  0.00     0.035 C 
ENDBRANCH  16  17
ENDBRANCH  15  16
ENDBRANCH  12  15
ENDBRANCH  10  11
ENDBRANCH   5  10
BRANCH   6  24
HETATM   24  C   UNL     1      -5.906   2.855 -32.829  1.00  0.00    -0.024 A 
HETATM   25  C   UNL     1      -4.988   3.381 -31.884  1.00  0.00    -0.053 A 
HETATM   26  C   UNL     1      -4.866   2.861 -30.471  1.00  0.00     0.049 C 
HETATM   27  C   UNL     1      -4.110   4.410 -32.269  1.00  0.00     0.014 A 
HETATM   28  C   UNL     1      -4.125   4.938 -33.563  1.00  0.00    -0.061 A 
HETATM   29  C   UNL     1      -3.121   5.980 -33.969  1.00  0.00     0.048 C 
HETATM   30  C   UNL     1      -5.021   4.416 -34.494  1.00  0.00     0.007 A 
HETATM   31  C   UNL     1      -5.901   3.391 -34.136  1.00  0.00     0.011 A 
ENDBRANCH   6  24
BRANCH   9  32
HETATM   32  C   UNL     1      -5.379  -0.319 -32.456  1.00  0.00     0.293 C 
HETATM   33  O   UNL     1      -5.564  -1.157 -31.596  1.00  0.00    -0.259 OA
BRANCH  32  34
HETATM   34  O   UNL     1      -4.218  -0.046 -33.095  1.00  0.00    -0.323 OA
HETATM   35  C   UNL     1      -3.023  -0.318 -32.358  1.00  0.00     0.213 C 
ENDBRANCH  32  34
ENDBRANCH   9  32
BRANCH   1  36
HETATM   36  C   UNL     1      -6.621  -1.297 -35.033  1.00  0.00     0.056 C 
HETATM   37  C   UNL     1      -7.056  -2.681 -34.554  1.00  0.00     0.011 C 
ENDBRANCH   1  36
TORSDOF 9
ENDMDL
MODEL 10
REMARK VINA RESULT:      -7.3      4.502      6.652
REMARK  9 active torsions:
REMARK  status: ('A' for Active; 'I' for Inactive)
REMARK    1  A    between atoms: C_2  and  C_3 
REMARK    2  A    between atoms: C_7  and  C_8 
REMARK    3  A    between atoms: C_8  and  C_9 
REMARK       I    between atoms: C_9  and  N_10 
REMARK    4  A    between atoms: N_10  and  C_11 
REMARK    5  A    between atoms: C_11  and  C_12 
REMARK    6  A    between atoms: C_12  and  C_13 
REMARK    7  A    between atoms: C_21  and  C_22 
REMARK    8  A    between atoms: C_32  and  C_33 
REMARK    9  A    between atoms: C_33  and  O_34 
ROOT
HETATM    1  C   UNL     1      -7.803   0.102 -33.206  1.00  0.00     0.051 C 
HETATM    2  N   UNL     1      -8.989   0.503 -33.776  1.00  0.00    -0.228 NA
HETATM    3  C   UNL     1      -9.526   1.594 -33.370  1.00  0.00     0.170 C 
HETATM    4  N   UNL     1      -8.844   2.664 -32.462  1.00  0.00    -0.318 N 
HETATM    5  C   UNL     1      -9.589   3.727 -32.447  1.00  0.00     0.011 C 
HETATM    6  C   UNL     1      -7.480   2.297 -31.994  1.00  0.00     0.166 C 
HETATM    7  S   UNL     1     -11.101   2.084 -33.916  1.00  0.00    -0.086 SA
HETATM    8  C   UNL     1     -11.050   3.490 -32.780  1.00  0.00     0.135 C 
HETATM    9  C   UNL     1      -7.163   0.850 -32.284  1.00  0.00     0.069 C 
ENDROOT
BRANCH   5  10
HETATM   10  C   UNL     1      -9.047   5.134 -32.390  1.00  0.00     0.156 C 
BRANCH  10  11
HETATM   11  C   UNL     1      -9.351   5.796 -33.734  1.00  0.00     0.222 C 
HETATM   12  N   UNL     1     -10.170   6.894 -33.717  1.00  0.00    -0.361 N 
HETATM   13  H   UNL     1     -10.497   7.256 -32.825  1.00  0.00     0.162 HD
HETATM   14  O   UNL     1      -8.931   5.306 -34.786  1.00  0.00    -0.273 OA
BRANCH  12  15
HETATM   15  C   UNL     1     -10.957   7.258 -34.889  1.00  0.00     0.124 C 
BRANCH  15  16
HETATM   16  C   UNL     1     -10.776   8.678 -35.440  1.00  0.00     0.053 C 
BRANCH  16  17
HETATM   17  C   UNL     1     -10.667   8.843 -36.953  1.00  0.00     0.189 C 
HETATM   18  N   UNL     1     -11.962   9.110 -37.695  1.00  0.00    -0.071 N 
HETATM   19  H   UNL     1     -12.428   8.187 -37.792  1.00  0.00     0.279 HD
HETATM   20  C   UNL     1     -12.947  10.065 -37.081  1.00  0.00     0.270 C 
HETATM   21  C   UNL     1     -11.530   9.591 -39.073  1.00  0.00     0.235 C 
HETATM   22  C   UNL     1     -10.087  10.055 -38.910  1.00  0.00     0.030 C 
HETATM   23  C   UNL     1      -9.792   9.996 -37.419  1.00  0.00     0.035 C 
ENDBRANCH  16  17
ENDBRANCH  15  16
ENDBRANCH  12  15
ENDBRANCH  10  11
ENDBRANCH   5  10
BRANCH   6  24
HETATM   24  C   UNL     1      -6.412   3.249 -32.538  1.00  0.00    -0.024 A 
HETATM   25  C   UNL     1      -5.550   3.976 -31.678  1.00  0.00    -0.053 A 
HETATM   26  C   UNL     1      -5.603   3.871 -30.172  1.00  0.00     0.049 C 
HETATM   27  C   UNL     1      -4.563   4.811 -32.230  1.00  0.00     0.014 A 
HETATM   28  C   UNL     1      -4.415   4.953 -33.613  1.00  0.00    -0.061 A 
HETATM   29  C   UNL     1      -3.300   5.790 -34.175  1.00  0.00     0.048 C 
HETATM   30  C   UNL     1      -5.256   4.232 -34.459  1.00  0.00     0.007 A 
HETATM   31  C   UNL     1      -6.242   3.392 -33.933  1.00  0.00     0.011 A 
ENDBRANCH   6  24
BRANCH   9  32
HETATM   32  C   UNL     1      -6.183   0.242 -31.355  1.00  0.00     0.293 C 
HETATM   33  O   UNL     1      -6.492  -0.360 -30.346  1.00  0.00    -0.259 OA
BRANCH  32  34
HETATM   34  O   UNL     1      -4.960   0.295 -31.933  1.00  0.00    -0.323 OA
HETATM   35  C   UNL     1      -4.155  -0.879 -31.795  1.00  0.00     0.213 C 
ENDBRANCH  32  34
ENDBRANCH   9  32
BRANCH   1  36
HETATM   36  C   UNL     1      -7.343  -1.266 -33.704  1.00  0.00     0.056 C 
HETATM   37  C   UNL     1      -6.440  -1.227 -34.936  1.00  0.00     0.011 C 
ENDBRANCH   1  36
TORSDOF 9
ENDMDL
