MODEL 1
REMARK VINA RESULT:     -10.0      0.000      0.000
REMARK  7 active torsions:
REMARK  status: ('A' for Active; 'I' for Inactive)
REMARK    1  A    between atoms: C_4  and  C_14 
REMARK    2  A    between atoms: C_7  and  C_8 
REMARK       I    between atoms: C_14  and  N_16 
REMARK    3  A    between atoms: N_16  and  C_17 
REMARK    4  A    between atoms: C_17  and  C_18 
REMARK    5  A    between atoms: C_22  and  C_24 
REMARK       I    between atoms: C_24  and  N_26 
REMARK    6  A    between atoms: N_26  and  C_27 
REMARK    7  A    between atoms: C_27  and  C_28 
ROOT
HETATM    1  C   UNL     1      -4.307   5.488 -33.980  1.00  0.00    -0.040 A 
HETATM    2  C   UNL     1      -3.419   5.076 -34.982  1.00  0.00     0.009 A 
HETATM    3  C   UNL     1      -2.104   5.541 -34.994  1.00  0.00     0.002 A 
HETATM    4  C   UNL     1      -1.657   6.405 -33.994  1.00  0.00     0.017 A 
HETATM    5  C   UNL     1      -2.524   6.809 -32.972  1.00  0.00     0.032 A 
HETATM    6  C   UNL     1      -3.851   6.365 -32.983  1.00  0.00     0.026 A 
ENDROOT
BRANCH   1   7
HETATM    7  C   UNL     1      -5.719   4.961 -33.928  1.00  0.00     0.161 C 
BRANCH   7   8
HETATM    8  N   UNL     1      -5.736   3.529 -34.126  1.00  0.00    -0.353 N 
HETATM    9  C   UNL     1      -5.931   2.647 -33.087  1.00  0.00     0.251 C 
HETATM   10  O   UNL     1      -6.119   2.981 -31.923  1.00  0.00    -0.268 OA
HETATM   11  H   UNL     1      -5.628   3.180 -35.069  1.00  0.00     0.163 HD
BRANCH   9  12
HETATM   12  C   UNL     1      -5.905   1.211 -33.456  1.00  0.00     0.032 A 
HETATM   13  C   UNL     1      -5.001   0.328 -32.853  1.00  0.00     0.024 A 
HETATM   14  C   UNL     1      -4.991  -1.035 -33.200  1.00  0.00    -0.050 A 
HETATM   15  C   UNL     1      -4.009  -1.949 -32.514  1.00  0.00     0.049 C 
HETATM   16  C   UNL     1      -5.917  -1.506 -34.156  1.00  0.00    -0.017 A 
HETATM   17  C   UNL     1      -6.822  -0.609 -34.748  1.00  0.00     0.014 A 
HETATM   18  C   UNL     1      -6.824   0.742 -34.396  1.00  0.00     0.018 A 
BRANCH  16  19
HETATM   19  C   UNL     1      -5.982  -2.903 -34.537  1.00  0.00     0.011 A 
HETATM   20  C   UNL     1      -4.962  -3.845 -34.791  1.00  0.00     0.152 A 
HETATM   21  N   UNL     1      -5.445  -5.044 -35.122  1.00  0.00    -0.187 NA
HETATM   22  N   UNL     1      -6.777  -4.875 -35.072  1.00  0.00    -0.289 N 
HETATM   23  H   UNL     1      -7.371  -5.668 -35.290  1.00  0.00     0.188 HD
HETATM   24  C   UNL     1      -7.150  -3.610 -34.720  1.00  0.00     0.123 A 
ENDBRANCH  16  19
ENDBRANCH   9  12
ENDBRANCH   7   8
ENDBRANCH   1   7
BRANCH   5  25
HETATM   25  C   UNL     1      -1.996   7.710 -31.910  1.00  0.00     0.251 C 
HETATM   26  O   UNL     1      -1.823   8.910 -32.118  1.00  0.00    -0.268 OA
HETATM   27  N   UNL     1      -1.699   7.157 -30.680  1.00  0.00    -0.355 N 
HETATM   28  H   UNL     1      -1.667   6.141 -30.620  1.00  0.00     0.162 HD
BRANCH  27  29
HETATM   29  C   UNL     1      -0.966   7.888 -29.653  1.00  0.00     0.155 C 
BRANCH  29  30
HETATM   30  C   UNL     1       0.190   7.094 -28.994  1.00  0.00     0.203 C 
HETATM   31  C   UNL     1       1.003   7.939 -28.018  1.00  0.00     0.036 C 
HETATM   32  C   UNL     1       0.275   7.772 -26.696  1.00  0.00     0.029 C 
HETATM   33  C   UNL     1      -0.095   6.304 -26.685  1.00  0.00     0.233 C 
HETATM   34  N   UNL     1      -0.333   5.979 -28.121  1.00  0.00    -0.069 N 
HETATM   35  H   UNL     1      -1.355   5.851 -28.298  1.00  0.00     0.277 HD
HETATM   36  H   UNL     1       0.072   5.074 -28.382  1.00  0.00     0.277 HD
ENDBRANCH  29  30
ENDBRANCH  27  29
ENDBRANCH   5  25
TORSDOF 7
ENDMDL
MODEL 2
REMARK VINA RESULT:     -10.0      1.478      2.147
REMARK  7 active torsions:
REMARK  status: ('A' for Active; 'I' for Inactive)
REMARK    1  A    between atoms: C_4  and  C_14 
REMARK    2  A    between atoms: C_7  and  C_8 
REMARK       I    between atoms: C_14  and  N_16 
REMARK    3  A    between atoms: N_16  and  C_17 
REMARK    4  A    between atoms: C_17  and  C_18 
REMARK    5  A    between atoms: C_22  and  C_24 
REMARK       I    between atoms: C_24  and  N_26 
REMARK    6  A    between atoms: N_26  and  C_27 
REMARK    7  A    between atoms: C_27  and  C_28 
ROOT
HETATM    1  C   UNL     1      -3.555   4.941 -33.042  1.00  0.00    -0.040 A 
HETATM    2  C   UNL     1      -3.172   5.143 -34.373  1.00  0.00     0.009 A 
HETATM    3  C   UNL     1      -1.904   5.641 -34.675  1.00  0.00     0.002 A 
HETATM    4  C   UNL     1      -0.999   5.922 -33.651  1.00  0.00     0.017 A 
HETATM    5  C   UNL     1      -1.357   5.704 -32.315  1.00  0.00     0.032 A 
HETATM    6  C   UNL     1      -2.641   5.235 -32.016  1.00  0.00     0.026 A 
ENDROOT
BRANCH   1   7
HETATM    7  C   UNL     1      -4.905   4.362 -32.700  1.00  0.00     0.161 C 
BRANCH   7   8
HETATM    8  N   UNL     1      -4.948   2.952 -33.013  1.00  0.00    -0.353 N 
HETATM    9  C   UNL     1      -4.524   1.990 -32.124  1.00  0.00     0.251 C 
HETATM   10  O   UNL     1      -4.092   2.227 -31.002  1.00  0.00    -0.268 OA
HETATM   11  H   UNL     1      -5.332   2.676 -33.907  1.00  0.00     0.163 HD
BRANCH   9  12
HETATM   12  C   UNL     1      -4.621   0.590 -32.605  1.00  0.00     0.032 A 
HETATM   13  C   UNL     1      -5.672   0.186 -33.437  1.00  0.00     0.024 A 
HETATM   14  C   UNL     1      -5.752  -1.141 -33.899  1.00  0.00    -0.050 A 
HETATM   15  C   UNL     1      -6.893  -1.524 -34.805  1.00  0.00     0.049 C 
HETATM   16  C   UNL     1      -4.748  -2.058 -33.523  1.00  0.00    -0.017 A 
HETATM   17  C   UNL     1      -3.696  -1.637 -32.691  1.00  0.00     0.014 A 
HETATM   18  C   UNL     1      -3.627  -0.317 -32.239  1.00  0.00     0.018 A 
BRANCH  16  19
HETATM   19  C   UNL     1      -4.751  -3.431 -33.986  1.00  0.00     0.011 A 
HETATM   20  C   UNL     1      -5.673  -4.139 -34.787  1.00  0.00     0.152 A 
HETATM   21  N   UNL     1      -5.308  -5.407 -34.988  1.00  0.00    -0.187 NA
HETATM   22  N   UNL     1      -4.145  -5.512 -34.323  1.00  0.00    -0.289 N 
HETATM   23  H   UNL     1      -3.665  -6.406 -34.331  1.00  0.00     0.188 HD
HETATM   24  C   UNL     1      -3.765  -4.353 -33.710  1.00  0.00     0.123 A 
ENDBRANCH  16  19
ENDBRANCH   9  12
ENDBRANCH   7   8
ENDBRANCH   1   7
BRANCH   5  25
HETATM   25  C   UNL     1      -0.349   5.992 -31.256  1.00  0.00     0.251 C 
HETATM   26  O   UNL     1       0.528   6.839 -31.423  1.00  0.00    -0.268 OA
HETATM   27  N   UNL     1      -0.425   5.276 -30.079  1.00  0.00    -0.355 N 
HETATM   28  H   UNL     1      -1.032   4.459 -30.067  1.00  0.00     0.162 HD
BRANCH  27  29
HETATM   29  C   UNL     1       0.636   5.307 -29.078  1.00  0.00     0.155 C 
BRANCH  29  30
HETATM   30  C   UNL     1       0.264   6.037 -27.763  1.00  0.00     0.203 C 
HETATM   31  C   UNL     1       1.049   7.330 -27.566  1.00  0.00     0.036 C 
HETATM   32  C   UNL     1       0.203   8.381 -28.264  1.00  0.00     0.029 C 
HETATM   33  C   UNL     1      -1.212   7.998 -27.885  1.00  0.00     0.233 C 
HETATM   34  N   UNL     1      -1.169   6.512 -27.781  1.00  0.00    -0.069 N 
HETATM   35  H   UNL     1      -1.668   6.077 -28.590  1.00  0.00     0.277 HD
HETATM   36  H   UNL     1      -1.689   6.169 -26.965  1.00  0.00     0.277 HD
ENDBRANCH  29  30
ENDBRANCH  27  29
ENDBRANCH   5  25
TORSDOF 7
ENDMDL
MODEL 3
REMARK VINA RESULT:      -9.9      1.373      1.651
REMARK  7 active torsions:
REMARK  status: ('A' for Active; 'I' for Inactive)
REMARK    1  A    between atoms: C_4  and  C_14 
REMARK    2  A    between atoms: C_7  and  C_8 
REMARK       I    between atoms: C_14  and  N_16 
REMARK    3  A    between atoms: N_16  and  C_17 
REMARK    4  A    between atoms: C_17  and  C_18 
REMARK    5  A    between atoms: C_22  and  C_24 
REMARK       I    between atoms: C_24  and  N_26 
REMARK    6  A    between atoms: N_26  and  C_27 
REMARK    7  A    between atoms: C_27  and  C_28 
ROOT
HETATM    1  C   UNL     1      -3.658   5.153 -32.305  1.00  0.00    -0.040 A 
HETATM    2  C   UNL     1      -3.363   5.365 -33.658  1.00  0.00     0.009 A 
HETATM    3  C   UNL     1      -2.116   5.858 -34.040  1.00  0.00     0.002 A 
HETATM    4  C   UNL     1      -1.143   6.125 -33.076  1.00  0.00     0.017 A 
HETATM    5  C   UNL     1      -1.412   5.898 -31.722  1.00  0.00     0.032 A 
HETATM    6  C   UNL     1      -2.676   5.434 -31.341  1.00  0.00     0.026 A 
ENDROOT
BRANCH   1   7
HETATM    7  C   UNL     1      -4.986   4.579 -31.879  1.00  0.00     0.161 C 
BRANCH   7   8
HETATM    8  N   UNL     1      -5.109   3.206 -32.311  1.00  0.00    -0.353 N 
HETATM    9  C   UNL     1      -5.840   2.848 -33.421  1.00  0.00     0.251 C 
HETATM   10  O   UNL     1      -6.432   3.641 -34.144  1.00  0.00    -0.268 OA
HETATM   11  H   UNL     1      -4.613   2.498 -31.786  1.00  0.00     0.163 HD
BRANCH   9  12
HETATM   12  C   UNL     1      -5.878   1.396 -33.719  1.00  0.00     0.032 A 
HETATM   13  C   UNL     1      -5.046   0.499 -33.037  1.00  0.00     0.024 A 
HETATM   14  C   UNL     1      -5.096  -0.879 -33.316  1.00  0.00    -0.050 A 
HETATM   15  C   UNL     1      -4.192  -1.807 -32.546  1.00  0.00     0.049 C 
HETATM   16  C   UNL     1      -6.008  -1.349 -34.285  1.00  0.00    -0.017 A 
HETATM   17  C   UNL     1      -6.840  -0.437 -34.958  1.00  0.00     0.014 A 
HETATM   18  C   UNL     1      -6.783   0.928 -34.671  1.00  0.00     0.018 A 
BRANCH  16  19
HETATM   19  C   UNL     1      -6.134  -2.758 -34.601  1.00  0.00     0.011 A 
HETATM   20  C   UNL     1      -5.225  -3.662 -35.193  1.00  0.00     0.152 A 
HETATM   21  N   UNL     1      -5.731  -4.891 -35.314  1.00  0.00    -0.187 NA
HETATM   22  N   UNL     1      -6.965  -4.778 -34.791  1.00  0.00    -0.289 N 
HETATM   23  H   UNL     1      -7.556  -5.603 -34.773  1.00  0.00     0.188 HD
HETATM   24  C   UNL     1      -7.252  -3.521 -34.345  1.00  0.00     0.123 A 
ENDBRANCH  16  19
ENDBRANCH   9  12
ENDBRANCH   7   8
ENDBRANCH   1   7
BRANCH   5  25
HETATM   25  C   UNL     1      -0.334   6.171 -30.730  1.00  0.00     0.251 C 
HETATM   26  O   UNL     1       0.712   6.729 -31.061  1.00  0.00    -0.268 OA
HETATM   27  N   UNL     1      -0.540   5.775 -29.424  1.00  0.00    -0.355 N 
HETATM   28  H   UNL     1      -1.321   5.148 -29.244  1.00  0.00     0.162 HD
BRANCH  27  29
HETATM   29  C   UNL     1       0.528   5.779 -28.431  1.00  0.00     0.155 C 
BRANCH  29  30
HETATM   30  C   UNL     1       0.277   6.706 -27.214  1.00  0.00     0.203 C 
HETATM   31  C   UNL     1       1.529   7.466 -26.786  1.00  0.00     0.036 C 
HETATM   32  C   UNL     1       1.492   8.732 -27.624  1.00  0.00     0.029 C 
HETATM   33  C   UNL     1       0.028   9.119 -27.609  1.00  0.00     0.233 C 
HETATM   34  N   UNL     1      -0.691   7.814 -27.555  1.00  0.00    -0.069 N 
HETATM   35  H   UNL     1      -1.141   7.611 -28.476  1.00  0.00     0.277 HD
HETATM   36  H   UNL     1      -1.481   7.838 -26.901  1.00  0.00     0.277 HD
ENDBRANCH  29  30
ENDBRANCH  27  29
ENDBRANCH   5  25
TORSDOF 7
ENDMDL
MODEL 4
REMARK VINA RESULT:      -9.2      2.319     11.135
REMARK  7 active torsions:
REMARK  status: ('A' for Active; 'I' for Inactive)
REMARK    1  A    between atoms: C_4  and  C_14 
REMARK    2  A    between atoms: C_7  and  C_8 
REMARK       I    between atoms: C_14  and  N_16 
REMARK    3  A    between atoms: N_16  and  C_17 
REMARK    4  A    between atoms: C_17  and  C_18 
REMARK    5  A    between atoms: C_22  and  C_24 
REMARK       I    between atoms: C_24  and  N_26 
REMARK    6  A    between atoms: N_26  and  C_27 
REMARK    7  A    between atoms: C_27  and  C_28 
ROOT
HETATM    1  C   UNL     1      -4.456   2.564 -32.004  1.00  0.00    -0.040 A 
HETATM    2  C   UNL     1      -4.836   2.823 -30.681  1.00  0.00     0.009 A 
HETATM    3  C   UNL     1      -5.903   2.132 -30.106  1.00  0.00     0.002 A 
HETATM    4  C   UNL     1      -6.586   1.161 -30.838  1.00  0.00     0.017 A 
HETATM    5  C   UNL     1      -6.205   0.873 -32.154  1.00  0.00     0.032 A 
HETATM    6  C   UNL     1      -5.155   1.591 -32.738  1.00  0.00     0.026 A 
ENDROOT
BRANCH   1   7
HETATM    7  C   UNL     1      -3.278   3.271 -32.627  1.00  0.00     0.161 C 
BRANCH   7   8
HETATM    8  N   UNL     1      -2.579   4.061 -31.640  1.00  0.00    -0.353 N 
HETATM    9  C   UNL     1      -1.540   4.900 -31.975  1.00  0.00     0.251 C 
HETATM   10  O   UNL     1      -1.125   5.067 -33.116  1.00  0.00    -0.268 OA
HETATM   11  H   UNL     1      -2.893   4.007 -30.680  1.00  0.00     0.163 HD
BRANCH   9  12
HETATM   12  C   UNL     1      -0.919   5.630 -30.842  1.00  0.00     0.032 A 
HETATM   13  C   UNL     1      -1.402   6.882 -30.441  1.00  0.00     0.024 A 
HETATM   14  C   UNL     1      -0.816   7.563 -29.358  1.00  0.00    -0.050 A 
HETATM   15  C   UNL     1      -1.380   8.901 -28.954  1.00  0.00     0.049 C 
HETATM   16  C   UNL     1       0.258   6.960 -28.670  1.00  0.00    -0.017 A 
HETATM   17  C   UNL     1       0.728   5.700 -29.081  1.00  0.00     0.014 A 
HETATM   18  C   UNL     1       0.138   5.033 -30.156  1.00  0.00     0.018 A 
BRANCH  16  19
HETATM   19  C   UNL     1       0.888   7.591 -27.527  1.00  0.00     0.011 A 
HETATM   20  C   UNL     1       1.863   8.609 -27.449  1.00  0.00     0.152 A 
HETATM   21  N   UNL     1       2.186   8.913 -26.191  1.00  0.00    -0.187 NA
HETATM   22  N   UNL     1       1.410   8.095 -25.459  1.00  0.00    -0.289 N 
HETATM   23  H   UNL     1       1.481   8.143 -24.447  1.00  0.00     0.188 HD
HETATM   24  C   UNL     1       0.610   7.286 -26.213  1.00  0.00     0.123 A 
ENDBRANCH  16  19
ENDBRANCH   9  12
ENDBRANCH   7   8
ENDBRANCH   1   7
BRANCH   5  25
HETATM   25  C   UNL     1      -6.944  -0.191 -32.889  1.00  0.00     0.251 C 
HETATM   26  O   UNL     1      -8.175  -0.208 -32.921  1.00  0.00    -0.268 OA
HETATM   27  N   UNL     1      -6.208  -1.165 -33.534  1.00  0.00    -0.355 N 
HETATM   28  H   UNL     1      -5.216  -1.222 -33.313  1.00  0.00     0.162 HD
BRANCH  27  29
HETATM   29  C   UNL     1      -6.820  -2.371 -34.080  1.00  0.00     0.155 C 
BRANCH  29  30
HETATM   30  C   UNL     1      -5.932  -3.149 -35.084  1.00  0.00     0.203 C 
HETATM   31  C   UNL     1      -4.443  -2.895 -34.872  1.00  0.00     0.036 C 
HETATM   32  C   UNL     1      -4.034  -3.948 -33.856  1.00  0.00     0.029 C 
HETATM   33  C   UNL     1      -4.788  -5.181 -34.309  1.00  0.00     0.233 C 
HETATM   34  N   UNL     1      -6.052  -4.641 -34.885  1.00  0.00    -0.069 N 
HETATM   35  H   UNL     1      -6.855  -4.843 -34.248  1.00  0.00     0.277 HD
HETATM   36  H   UNL     1      -6.311  -5.117 -35.757  1.00  0.00     0.277 HD
ENDBRANCH  29  30
ENDBRANCH  27  29
ENDBRANCH   5  25
TORSDOF 7
ENDMDL
MODEL 5
REMARK VINA RESULT:      -9.1      2.093     10.342
REMARK  7 active torsions:
REMARK  status: ('A' for Active; 'I' for Inactive)
REMARK    1  A    between atoms: C_4  and  C_14 
REMARK    2  A    between atoms: C_7  and  C_8 
REMARK       I    between atoms: C_14  and  N_16 
REMARK    3  A    between atoms: N_16  and  C_17 
REMARK    4  A    between atoms: C_17  and  C_18 
REMARK    5  A    between atoms: C_22  and  C_24 
REMARK       I    between atoms: C_24  and  N_26 
REMARK    6  A    between atoms: N_26  and  C_27 
REMARK    7  A    between atoms: C_27  and  C_28 
ROOT
HETATM    1  C   UNL     1      -4.993   5.074 -33.839  1.00  0.00    -0.040 A 
HETATM    2  C   UNL     1      -5.745   5.958 -33.056  1.00  0.00     0.009 A 
HETATM    3  C   UNL     1      -7.052   5.637 -32.688  1.00  0.00     0.002 A 
HETATM    4  C   UNL     1      -7.613   4.421 -33.081  1.00  0.00     0.017 A 
HETATM    5  C   UNL     1      -6.867   3.516 -33.845  1.00  0.00     0.032 A 
HETATM    6  C   UNL     1      -5.568   3.856 -34.238  1.00  0.00     0.026 A 
ENDROOT
BRANCH   1   7
HETATM    7  C   UNL     1      -3.564   5.386 -34.208  1.00  0.00     0.161 C 
BRANCH   7   8
HETATM    8  N   UNL     1      -2.813   5.790 -33.042  1.00  0.00    -0.353 N 
HETATM    9  C   UNL     1      -1.982   6.888 -33.048  1.00  0.00     0.251 C 
HETATM   10  O   UNL     1      -1.812   7.621 -34.015  1.00  0.00    -0.268 OA
HETATM   11  H   UNL     1      -2.934   5.256 -32.192  1.00  0.00     0.163 HD
BRANCH   9  12
HETATM   12  C   UNL     1      -1.272   7.158 -31.774  1.00  0.00     0.032 A 
HETATM   13  C   UNL     1      -1.853   7.957 -30.782  1.00  0.00     0.024 A 
HETATM   14  C   UNL     1      -1.178   8.200 -29.571  1.00  0.00    -0.050 A 
HETATM   15  C   UNL     1      -1.850   9.055 -28.528  1.00  0.00     0.049 C 
HETATM   16  C   UNL     1       0.088   7.612 -29.363  1.00  0.00    -0.017 A 
HETATM   17  C   UNL     1       0.655   6.807 -30.366  1.00  0.00     0.014 A 
HETATM   18  C   UNL     1      -0.024   6.573 -31.563  1.00  0.00     0.018 A 
BRANCH  16  19
HETATM   19  C   UNL     1       0.824   7.794 -28.127  1.00  0.00     0.011 A 
HETATM   20  C   UNL     1       1.670   8.838 -27.696  1.00  0.00     0.152 A 
HETATM   21  N   UNL     1       2.164   8.625 -26.475  1.00  0.00    -0.187 NA
HETATM   22  N   UNL     1       1.626   7.446 -26.117  1.00  0.00    -0.289 N 
HETATM   23  H   UNL     1       1.861   7.068 -25.205  1.00  0.00     0.188 HD
HETATM   24  C   UNL     1       0.811   6.910 -27.071  1.00  0.00     0.123 A 
ENDBRANCH  16  19
ENDBRANCH   9  12
ENDBRANCH   7   8
ENDBRANCH   1   7
BRANCH   5  25
HETATM   25  C   UNL     1      -7.496   2.218 -34.218  1.00  0.00     0.251 C 
HETATM   26  O   UNL     1      -8.675   1.982 -33.960  1.00  0.00    -0.268 OA
HETATM   27  N   UNL     1      -6.713   1.280 -34.861  1.00  0.00    -0.355 N 
HETATM   28  H   UNL     1      -5.707   1.439 -34.871  1.00  0.00     0.162 HD
BRANCH  27  29
HETATM   29  C   UNL     1      -7.151  -0.096 -35.061  1.00  0.00     0.155 C 
BRANCH  29  30
HETATM   30  C   UNL     1      -6.881  -1.042 -33.864  1.00  0.00     0.203 C 
HETATM   31  C   UNL     1      -5.644  -1.911 -34.069  1.00  0.00     0.036 C 
HETATM   32  C   UNL     1      -4.508  -1.065 -33.520  1.00  0.00     0.029 C 
HETATM   33  C   UNL     1      -5.105  -0.445 -32.274  1.00  0.00     0.233 C 
HETATM   34  N   UNL     1      -6.545  -0.267 -32.612  1.00  0.00    -0.069 N 
HETATM   35  H   UNL     1      -6.759   0.745 -32.763  1.00  0.00     0.277 HD
HETATM   36  H   UNL     1      -7.158  -0.528 -31.832  1.00  0.00     0.277 HD
ENDBRANCH  29  30
ENDBRANCH  27  29
ENDBRANCH   5  25
TORSDOF 7
ENDMDL
MODEL 6
REMARK VINA RESULT:      -8.9      4.206      7.413
REMARK  7 active torsions:
REMARK  status: ('A' for Active; 'I' for Inactive)
REMARK    1  A    between atoms: C_4  and  C_14 
REMARK    2  A    between atoms: C_7  and  C_8 
REMARK       I    between atoms: C_14  and  N_16 
REMARK    3  A    between atoms: N_16  and  C_17 
REMARK    4  A    between atoms: C_17  and  C_18 
REMARK    5  A    between atoms: C_22  and  C_24 
REMARK       I    between atoms: C_24  and  N_26 
REMARK    6  A    between atoms: N_26  and  C_27 
REMARK    7  A    between atoms: C_27  and  C_28 
ROOT
HETATM    1  C   UNL     1      -6.585   4.735 -30.288  1.00  0.00    -0.040 A 
HETATM    2  C   UNL     1      -6.655   5.892 -29.501  1.00  0.00     0.009 A 
HETATM    3  C   UNL     1      -7.887   6.484 -29.224  1.00  0.00     0.002 A 
HETATM    4  C   UNL     1      -9.064   5.915 -29.713  1.00  0.00     0.017 A 
HETATM    5  C   UNL     1      -9.015   4.746 -30.481  1.00  0.00     0.032 A 
HETATM    6  C   UNL     1      -7.774   4.175 -30.783  1.00  0.00     0.026 A 
ENDROOT
BRANCH   1   7
HETATM    7  C   UNL     1      -5.266   4.058 -30.560  1.00  0.00     0.161 C 
BRANCH   7   8
HETATM    8  N   UNL     1      -5.471   2.783 -31.207  1.00  0.00    -0.353 N 
HETATM    9  C   UNL     1      -4.518   2.210 -32.018  1.00  0.00     0.251 C 
HETATM   10  O   UNL     1      -3.422   2.705 -32.254  1.00  0.00    -0.268 OA
HETATM   11  H   UNL     1      -6.338   2.294 -31.026  1.00  0.00     0.163 HD
BRANCH   9  12
HETATM   12  C   UNL     1      -4.891   0.906 -32.618  1.00  0.00     0.032 A 
HETATM   13  C   UNL     1      -5.816   0.834 -33.667  1.00  0.00     0.024 A 
HETATM   14  C   UNL     1      -6.156  -0.406 -34.239  1.00  0.00    -0.050 A 
HETATM   15  C   UNL     1      -7.145  -0.431 -35.375  1.00  0.00     0.049 C 
HETATM   16  C   UNL     1      -5.541  -1.578 -33.750  1.00  0.00    -0.017 A 
HETATM   17  C   UNL     1      -4.611  -1.490 -32.700  1.00  0.00     0.014 A 
HETATM   18  C   UNL     1      -4.280  -0.254 -32.141  1.00  0.00     0.018 A 
BRANCH  16  19
HETATM   19  C   UNL     1      -5.822  -2.884 -34.313  1.00  0.00     0.011 A 
HETATM   20  C   UNL     1      -4.965  -3.861 -34.865  1.00  0.00     0.152 A 
HETATM   21  N   UNL     1      -5.626  -4.944 -35.281  1.00  0.00    -0.187 NA
HETATM   22  N   UNL     1      -6.907  -4.665 -34.987  1.00  0.00    -0.289 N 
HETATM   23  H   UNL     1      -7.615  -5.357 -35.217  1.00  0.00     0.188 HD
HETATM   24  C   UNL     1      -7.077  -3.445 -34.400  1.00  0.00     0.123 A 
ENDBRANCH  16  19
ENDBRANCH   9  12
ENDBRANCH   7   8
ENDBRANCH   1   7
BRANCH   5  25
HETATM   25  C   UNL     1     -10.298   4.158 -30.959  1.00  0.00     0.251 C 
HETATM   26  O   UNL     1     -11.204   3.881 -30.174  1.00  0.00    -0.268 OA
HETATM   27  N   UNL     1     -10.441   3.928 -32.312  1.00  0.00    -0.355 N 
HETATM   28  H   UNL     1      -9.602   3.984 -32.886  1.00  0.00     0.162 HD
BRANCH  27  29
HETATM   29  C   UNL     1     -11.547   3.149 -32.858  1.00  0.00     0.155 C 
BRANCH  29  30
HETATM   30  C   UNL     1     -11.123   2.003 -33.810  1.00  0.00     0.203 C 
HETATM   31  C   UNL     1      -9.611   1.804 -33.855  1.00  0.00     0.036 C 
HETATM   32  C   UNL     1      -9.338   0.825 -32.727  1.00  0.00     0.029 C 
HETATM   33  C   UNL     1     -10.484  -0.159 -32.834  1.00  0.00     0.233 C 
HETATM   34  N   UNL     1     -11.625   0.665 -33.322  1.00  0.00    -0.069 N 
HETATM   35  H   UNL     1     -12.319   0.814 -32.555  1.00  0.00     0.277 HD
HETATM   36  H   UNL     1     -12.168   0.180 -34.046  1.00  0.00     0.277 HD
ENDBRANCH  29  30
ENDBRANCH  27  29
ENDBRANCH   5  25
TORSDOF 7
ENDMDL
MODEL 7
REMARK VINA RESULT:      -8.9      3.381      4.716
REMARK  7 active torsions:
REMARK  status: ('A' for Active; 'I' for Inactive)
REMARK    1  A    between atoms: C_4  and  C_14 
REMARK    2  A    between atoms: C_7  and  C_8 
REMARK       I    between atoms: C_14  and  N_16 
REMARK    3  A    between atoms: N_16  and  C_17 
REMARK    4  A    between atoms: C_17  and  C_18 
REMARK    5  A    between atoms: C_22  and  C_24 
REMARK       I    between atoms: C_24  and  N_26 
REMARK    6  A    between atoms: N_26  and  C_27 
REMARK    7  A    between atoms: C_27  and  C_28 
ROOT
HETATM    1  C   UNL     1      -3.196   3.537 -32.556  1.00  0.00    -0.040 A 
HETATM    2  C   UNL     1      -3.504   4.298 -33.691  1.00  0.00     0.009 A 
HETATM    3  C   UNL     1      -2.870   5.521 -33.914  1.00  0.00     0.002 A 
HETATM    4  C   UNL     1      -1.907   5.985 -33.018  1.00  0.00     0.017 A 
HETATM    5  C   UNL     1      -1.570   5.226 -31.890  1.00  0.00     0.032 A 
HETATM    6  C   UNL     1      -2.232   4.017 -31.654  1.00  0.00     0.026 A 
ENDROOT
BRANCH   1   7
HETATM    7  C   UNL     1      -3.840   2.194 -32.323  1.00  0.00     0.161 C 
BRANCH   7   8
HETATM    8  N   UNL     1      -5.254   2.249 -32.616  1.00  0.00    -0.353 N 
HETATM    9  C   UNL     1      -5.944   1.165 -33.110  1.00  0.00     0.251 C 
HETATM   10  O   UNL     1      -5.443   0.069 -33.332  1.00  0.00    -0.268 OA
HETATM   11  H   UNL     1      -5.746   3.111 -32.419  1.00  0.00     0.163 HD
BRANCH   9  12
HETATM   12  C   UNL     1      -7.386   1.392 -33.370  1.00  0.00     0.032 A 
HETATM   13  C   UNL     1      -7.860   2.653 -33.754  1.00  0.00     0.024 A 
HETATM   14  C   UNL     1      -9.228   2.858 -34.011  1.00  0.00    -0.050 A 
HETATM   15  C   UNL     1      -9.687   4.229 -34.435  1.00  0.00     0.049 C 
HETATM   16  C   UNL     1     -10.118   1.769 -33.890  1.00  0.00    -0.017 A 
HETATM   17  C   UNL     1      -9.627   0.508 -33.509  1.00  0.00     0.014 A 
HETATM   18  C   UNL     1      -8.267   0.316 -33.258  1.00  0.00     0.018 A 
BRANCH  16  19
HETATM   19  C   UNL     1     -11.534   1.902 -34.169  1.00  0.00     0.011 A 
HETATM   20  C   UNL     1     -12.296   1.538 -35.300  1.00  0.00     0.152 A 
HETATM   21  N   UNL     1     -13.590   1.835 -35.163  1.00  0.00    -0.187 NA
HETATM   22  N   UNL     1     -13.660   2.383 -33.938  1.00  0.00    -0.289 N 
HETATM   23  H   UNL     1     -14.566   2.696 -33.602  1.00  0.00     0.188 HD
HETATM   24  C   UNL     1     -12.455   2.441 -33.298  1.00  0.00     0.123 A 
ENDBRANCH  16  19
ENDBRANCH   9  12
ENDBRANCH   7   8
ENDBRANCH   1   7
BRANCH   5  25
HETATM   25  C   UNL     1      -0.517   5.748 -30.975  1.00  0.00     0.251 C 
HETATM   26  O   UNL     1       0.193   6.701 -31.295  1.00  0.00    -0.268 OA
HETATM   27  N   UNL     1      -0.355   5.126 -29.753  1.00  0.00    -0.355 N 
HETATM   28  H   UNL     1      -0.819   4.230 -29.620  1.00  0.00     0.162 HD
BRANCH  27  29
HETATM   29  C   UNL     1       0.786   5.397 -28.886  1.00  0.00     0.155 C 
BRANCH  29  30
HETATM   30  C   UNL     1       0.448   6.201 -27.605  1.00  0.00     0.203 C 
HETATM   31  C   UNL     1       1.051   7.602 -27.613  1.00  0.00     0.036 C 
HETATM   32  C   UNL     1      -0.007   8.451 -28.297  1.00  0.00     0.029 C 
HETATM   33  C   UNL     1      -1.304   7.919 -27.725  1.00  0.00     0.233 C 
HETATM   34  N   UNL     1      -1.033   6.471 -27.497  1.00  0.00    -0.069 N 
HETATM   35  H   UNL     1      -1.544   5.893 -28.202  1.00  0.00     0.277 HD
HETATM   36  H   UNL     1      -1.411   6.146 -26.600  1.00  0.00     0.277 HD
ENDBRANCH  29  30
ENDBRANCH  27  29
ENDBRANCH   5  25
TORSDOF 7
ENDMDL
MODEL 8
REMARK VINA RESULT:      -8.9      2.270      2.938
REMARK  7 active torsions:
REMARK  status: ('A' for Active; 'I' for Inactive)
REMARK    1  A    between atoms: C_4  and  C_14 
REMARK    2  A    between atoms: C_7  and  C_8 
REMARK       I    between atoms: C_14  and  N_16 
REMARK    3  A    between atoms: N_16  and  C_17 
REMARK    4  A    between atoms: C_17  and  C_18 
REMARK    5  A    between atoms: C_22  and  C_24 
REMARK       I    between atoms: C_24  and  N_26 
REMARK    6  A    between atoms: N_26  and  C_27 
REMARK    7  A    between atoms: C_27  and  C_28 
ROOT
HETATM    1  C   UNL     1      -7.093   4.945 -30.948  1.00  0.00    -0.040 A 
HETATM    2  C   UNL     1      -7.778   4.740 -29.743  1.00  0.00     0.009 A 
HETATM    3  C   UNL     1      -7.200   5.117 -28.531  1.00  0.00     0.002 A 
HETATM    4  C   UNL     1      -5.944   5.723 -28.511  1.00  0.00     0.017 A 
HETATM    5  C   UNL     1      -5.255   5.956 -29.707  1.00  0.00     0.032 A 
HETATM    6  C   UNL     1      -5.824   5.546 -30.918  1.00  0.00     0.026 A 
ENDROOT
BRANCH   1   7
HETATM    7  C   UNL     1      -7.722   4.583 -32.270  1.00  0.00     0.161 C 
BRANCH   7   8
HETATM    8  N   UNL     1      -7.434   3.209 -32.612  1.00  0.00    -0.353 N 
HETATM    9  C   UNL     1      -6.515   2.870 -33.579  1.00  0.00     0.251 C 
HETATM   10  O   UNL     1      -5.856   3.680 -34.221  1.00  0.00    -0.268 OA
HETATM   11  H   UNL     1      -7.910   2.482 -32.094  1.00  0.00     0.163 HD
BRANCH   9  12
HETATM   12  C   UNL     1      -6.348   1.416 -33.819  1.00  0.00     0.032 A 
HETATM   13  C   UNL     1      -5.487   0.650 -33.024  1.00  0.00     0.024 A 
HETATM   14  C   UNL     1      -5.342  -0.732 -33.250  1.00  0.00    -0.050 A 
HETATM   15  C   UNL     1      -4.415  -1.517 -32.359  1.00  0.00     0.049 C 
HETATM   16  C   UNL     1      -6.089  -1.339 -34.282  1.00  0.00    -0.017 A 
HETATM   17  C   UNL     1      -6.953  -0.558 -35.068  1.00  0.00     0.014 A 
HETATM   18  C   UNL     1      -7.090   0.812 -34.834  1.00  0.00     0.018 A 
BRANCH  16  19
HETATM   19  C   UNL     1      -6.012  -2.762 -34.549  1.00  0.00     0.011 A 
HETATM   20  C   UNL     1      -4.901  -3.619 -34.698  1.00  0.00     0.152 A 
HETATM   21  N   UNL     1      -5.258  -4.882 -34.943  1.00  0.00    -0.187 NA
HETATM   22  N   UNL     1      -6.601  -4.836 -34.942  1.00  0.00    -0.289 N 
HETATM   23  H   UNL     1      -7.112  -5.698 -35.111  1.00  0.00     0.188 HD
HETATM   24  C   UNL     1      -7.102  -3.589 -34.705  1.00  0.00     0.123 A 
ENDBRANCH  16  19
ENDBRANCH   9  12
ENDBRANCH   7   8
ENDBRANCH   1   7
BRANCH   5  25
HETATM   25  C   UNL     1      -3.928   6.630 -29.641  1.00  0.00     0.251 C 
HETATM   26  O   UNL     1      -3.798   7.734 -29.111  1.00  0.00    -0.268 OA
HETATM   27  N   UNL     1      -2.844   5.982 -30.198  1.00  0.00    -0.355 N 
HETATM   28  H   UNL     1      -3.035   5.179 -30.793  1.00  0.00     0.162 HD
BRANCH  27  29
HETATM   29  C   UNL     1      -1.559   6.643 -30.397  1.00  0.00     0.155 C 
BRANCH  29  30
HETATM   30  C   UNL     1      -0.501   6.343 -29.304  1.00  0.00     0.203 C 
HETATM   31  C   UNL     1       0.579   7.418 -29.221  1.00  0.00     0.036 C 
HETATM   32  C   UNL     1       0.010   8.431 -28.242  1.00  0.00     0.029 C 
HETATM   33  C   UNL     1      -0.630   7.566 -27.177  1.00  0.00     0.233 C 
HETATM   34  N   UNL     1      -1.110   6.369 -27.923  1.00  0.00    -0.069 N 
HETATM   35  H   UNL     1      -2.152   6.386 -28.004  1.00  0.00     0.277 HD
HETATM   36  H   UNL     1      -0.924   5.498 -27.413  1.00  0.00     0.277 HD
ENDBRANCH  29  30
ENDBRANCH  27  29
ENDBRANCH   5  25
TORSDOF 7
ENDMDL
MODEL 9
REMARK VINA RESULT:      -8.8      4.497      7.589
REMARK  7 active torsions:
REMARK  status: ('A' for Active; 'I' for Inactive)
REMARK    1  A    between atoms: C_4  and  C_14 
REMARK    2  A    between atoms: C_7  and  C_8 
REMARK       I    between atoms: C_14  and  N_16 
REMARK    3  A    between atoms: N_16  and  C_17 
REMARK    4  A    between atoms: C_17  and  C_18 
REMARK    5  A    between atoms: C_22  and  C_24 
REMARK       I    between atoms: C_24  and  N_26 
REMARK    6  A    between atoms: N_26  and  C_27 
REMARK    7  A    between atoms: C_27  and  C_28 
ROOT
HETATM    1  C   UNL     1      -5.014  -1.268 -33.142  1.00  0.00    -0.040 A 
HETATM    2  C   UNL     1      -3.968  -2.137 -32.806  1.00  0.00     0.009 A 
HETATM    3  C   UNL     1      -2.894  -1.685 -32.038  1.00  0.00     0.002 A 
HETATM    4  C   UNL     1      -2.866  -0.367 -31.580  1.00  0.00     0.017 A 
HETATM    5  C   UNL     1      -3.914   0.508 -31.887  1.00  0.00     0.032 A 
HETATM    6  C   UNL     1      -4.972   0.059 -32.684  1.00  0.00     0.026 A 
ENDROOT
BRANCH   1   7
HETATM    7  C   UNL     1      -6.202  -1.753 -33.934  1.00  0.00     0.161 C 
BRANCH   7   8
HETATM    8  N   UNL     1      -7.353  -0.915 -33.689  1.00  0.00    -0.353 N 
HETATM    9  C   UNL     1      -7.687   0.133 -34.517  1.00  0.00     0.251 C 
HETATM   10  O   UNL     1      -7.065   0.443 -35.526  1.00  0.00    -0.268 OA
HETATM   11  H   UNL     1      -7.940  -1.135 -32.895  1.00  0.00     0.163 HD
BRANCH   9  12
HETATM   12  C   UNL     1      -8.890   0.904 -34.117  1.00  0.00     0.032 A 
HETATM   13  C   UNL     1      -9.043   2.245 -34.491  1.00  0.00     0.024 A 
HETATM   14  C   UNL     1     -10.192   2.966 -34.118  1.00  0.00    -0.050 A 
HETATM   15  C   UNL     1     -10.319   4.402 -34.556  1.00  0.00     0.049 C 
HETATM   16  C   UNL     1     -11.198   2.314 -33.373  1.00  0.00    -0.017 A 
HETATM   17  C   UNL     1     -11.032   0.967 -33.009  1.00  0.00     0.014 A 
HETATM   18  C   UNL     1      -9.888   0.260 -33.386  1.00  0.00     0.018 A 
BRANCH  16  19
HETATM   19  C   UNL     1     -12.421   2.988 -32.981  1.00  0.00     0.011 A 
HETATM   20  C   UNL     1     -12.712   3.816 -31.876  1.00  0.00     0.152 A 
HETATM   21  N   UNL     1     -13.976   4.243 -31.876  1.00  0.00    -0.187 NA
HETATM   22  N   UNL     1     -14.496   3.695 -32.988  1.00  0.00    -0.289 N 
HETATM   23  H   UNL     1     -15.470   3.881 -33.206  1.00  0.00     0.188 HD
HETATM   24  C   UNL     1     -13.602   2.938 -33.688  1.00  0.00     0.123 A 
ENDBRANCH  16  19
ENDBRANCH   9  12
ENDBRANCH   7   8
ENDBRANCH   1   7
BRANCH   5  25
HETATM   25  C   UNL     1      -3.855   1.898 -31.354  1.00  0.00     0.251 C 
HETATM   26  O   UNL     1      -2.780   2.440 -31.101  1.00  0.00    -0.268 OA
HETATM   27  N   UNL     1      -5.047   2.563 -31.145  1.00  0.00    -0.355 N 
HETATM   28  H   UNL     1      -5.901   2.011 -31.177  1.00  0.00     0.162 HD
BRANCH  27  29
HETATM   29  C   UNL     1      -5.119   3.824 -30.416  1.00  0.00     0.155 C 
BRANCH  29  30
HETATM   30  C   UNL     1      -6.444   4.050 -29.644  1.00  0.00     0.203 C 
HETATM   31  C   UNL     1      -7.366   5.047 -30.340  1.00  0.00     0.036 C 
HETATM   32  C   UNL     1      -8.187   4.187 -31.286  1.00  0.00     0.029 C 
HETATM   33  C   UNL     1      -8.482   2.950 -30.464  1.00  0.00     0.233 C 
HETATM   34  N   UNL     1      -7.279   2.793 -29.599  1.00  0.00    -0.069 N 
HETATM   35  H   UNL     1      -6.703   1.983 -29.923  1.00  0.00     0.277 HD
HETATM   36  H   UNL     1      -7.528   2.541 -28.636  1.00  0.00     0.277 HD
ENDBRANCH  29  30
ENDBRANCH  27  29
ENDBRANCH   5  25
TORSDOF 7
ENDMDL
MODEL 10
REMARK VINA RESULT:      -8.8      3.305      5.335
REMARK  7 active torsions:
REMARK  status: ('A' for Active; 'I' for Inactive)
REMARK    1  A    between atoms: C_4  and  C_14 
REMARK    2  A    between atoms: C_7  and  C_8 
REMARK       I    between atoms: C_14  and  N_16 
REMARK    3  A    between atoms: N_16  and  C_17 
REMARK    4  A    between atoms: C_17  and  C_18 
REMARK    5  A    between atoms: C_22  and  C_24 
REMARK       I    between atoms: C_24  and  N_26 
REMARK    6  A    between atoms: N_26  and  C_27 
REMARK    7  A    between atoms: C_27  and  C_28 
ROOT
HETATM    1  C   UNL     1      -0.569   6.255 -30.591  1.00  0.00    -0.040 A 
HETATM    2  C   UNL     1       0.623   6.844 -30.153  1.00  0.00     0.009 A 
HETATM    3  C   UNL     1       0.618   7.731 -29.076  1.00  0.00     0.002 A 
HETATM    4  C   UNL     1      -0.574   8.021 -28.413  1.00  0.00     0.017 A 
HETATM    5  C   UNL     1      -1.772   7.425 -28.823  1.00  0.00     0.032 A 
HETATM    6  C   UNL     1      -1.767   6.561 -29.924  1.00  0.00     0.026 A 
ENDROOT
BRANCH   1   7
HETATM    7  C   UNL     1      -0.575   5.262 -31.725  1.00  0.00     0.161 C 
BRANCH   7   8
HETATM    8  N   UNL     1      -1.809   4.510 -31.739  1.00  0.00    -0.353 N 
HETATM    9  C   UNL     1      -2.464   4.196 -32.908  1.00  0.00     0.251 C 
HETATM   10  O   UNL     1      -2.068   4.501 -34.026  1.00  0.00    -0.268 OA
HETATM   11  H   UNL     1      -2.176   4.187 -30.853  1.00  0.00     0.163 HD
BRANCH   9  12
HETATM   12  C   UNL     1      -3.725   3.432 -32.747  1.00  0.00     0.032 A 
HETATM   13  C   UNL     1      -3.752   2.227 -32.033  1.00  0.00     0.024 A 
HETATM   14  C   UNL     1      -4.954   1.514 -31.874  1.00  0.00    -0.050 A 
HETATM   15  C   UNL     1      -4.935   0.231 -31.086  1.00  0.00     0.049 C 
HETATM   16  C   UNL     1      -6.140   2.038 -32.432  1.00  0.00    -0.017 A 
HETATM   17  C   UNL     1      -6.099   3.251 -33.141  1.00  0.00     0.014 A 
HETATM   18  C   UNL     1      -4.899   3.951 -33.292  1.00  0.00     0.018 A 
BRANCH  16  19
HETATM   19  C   UNL     1      -7.418   1.372 -32.281  1.00  0.00     0.011 A 
HETATM   20  C   UNL     1      -8.046   0.378 -33.062  1.00  0.00     0.152 A 
HETATM   21  N   UNL     1      -9.239   0.026 -32.579  1.00  0.00    -0.187 NA
HETATM   22  N   UNL     1      -9.374   0.788 -31.481  1.00  0.00    -0.289 N 
HETATM   23  H   UNL     1     -10.224   0.696 -30.933  1.00  0.00     0.188 HD
HETATM   24  C   UNL     1      -8.307   1.609 -31.255  1.00  0.00     0.123 A 
ENDBRANCH  16  19
ENDBRANCH   9  12
ENDBRANCH   7   8
ENDBRANCH   1   7
BRANCH   5  25
HETATM   25  C   UNL     1      -3.017   7.743 -28.068  1.00  0.00     0.251 C 
HETATM   26  O   UNL     1      -2.977   8.340 -26.993  1.00  0.00    -0.268 OA
HETATM   27  N   UNL     1      -4.222   7.344 -28.610  1.00  0.00    -0.355 N 
HETATM   28  H   UNL     1      -4.190   6.687 -29.386  1.00  0.00     0.162 HD
BRANCH  27  29
HETATM   29  C   UNL     1      -5.469   7.393 -27.856  1.00  0.00     0.155 C 
BRANCH  29  30
HETATM   30  C   UNL     1      -6.222   6.042 -27.760  1.00  0.00     0.203 C 
HETATM   31  C   UNL     1      -7.380   5.943 -28.749  1.00  0.00     0.036 C 
HETATM   32  C   UNL     1      -6.740   5.378 -30.006  1.00  0.00     0.029 C 
HETATM   33  C   UNL     1      -5.785   4.332 -29.470  1.00  0.00     0.233 C 
HETATM   34  N   UNL     1      -5.336   4.887 -28.161  1.00  0.00    -0.069 N 
HETATM   35  H   UNL     1      -4.347   5.216 -28.228  1.00  0.00     0.277 HD
HETATM   36  H   UNL     1      -5.302   4.168 -27.430  1.00  0.00     0.277 HD
ENDBRANCH  29  30
ENDBRANCH  27  29
ENDBRANCH   5  25
TORSDOF 7
ENDMDL
