MODEL 1
REMARK VINA RESULT:      -9.3      0.000      0.000
REMARK  5 active torsions:
REMARK  status: ('A' for Active; 'I' for Inactive)
REMARK    1  A    between atoms: C_7  and  C_8 
REMARK    2  A    between atoms: N_9  and  C_10 
REMARK    3  A    between atoms: C_10  and  C_11 
REMARK       I    between atoms: C_11  and  N_12 
REMARK    4  A    between atoms: N_12  and  C_13 
REMARK    5  A    between atoms: C_13  and  C_14 
ROOT
HETATM    1  C   UNL     1      -6.373   3.278 -33.286  1.00  0.00     0.158 C 
HETATM    2  N   UNL     1      -5.502   4.438 -33.374  1.00  0.00    -0.326 N 
HETATM    3  C   UNL     1      -5.939   5.448 -32.530  1.00  0.00     0.255 C 
HETATM    4  O   UNL     1      -5.551   6.601 -32.491  1.00  0.00    -0.267 OA
HETATM    5  C   UNL     1      -6.996   4.887 -31.679  1.00  0.00     0.040 A 
HETATM    6  C   UNL     1      -7.250   3.586 -32.110  1.00  0.00    -0.015 A 
HETATM    7  C   UNL     1      -7.687   5.483 -30.641  1.00  0.00     0.017 A 
HETATM    8  C   UNL     1      -8.678   4.725 -30.014  1.00  0.00     0.001 A 
HETATM    9  C   UNL     1      -8.953   3.413 -30.439  1.00  0.00     0.001 A 
HETATM   10  C   UNL     1      -8.243   2.836 -31.497  1.00  0.00     0.011 A 
ENDROOT
BRANCH   1  11
HETATM   11  C   UNL     1      -5.648   1.999 -33.002  1.00  0.00     0.004 A 
HETATM   12  C   UNL     1      -4.610   1.847 -32.080  1.00  0.00     0.017 A 
HETATM   13  C   UNL     1      -4.001   2.847 -31.154  1.00  0.00     0.069 C 
HETATM   14  N   UNL     1      -4.158   0.549 -32.161  1.00  0.00    -0.354 N 
HETATM   15  C   UNL     1      -3.041  -0.005 -31.421  1.00  0.00     0.156 C 
HETATM   16  C   UNL     1      -4.919  -0.173 -33.057  1.00  0.00     0.045 A 
HETATM   17  C   UNL     1      -5.854   0.707 -33.604  1.00  0.00     0.001 A 
HETATM   18  C   UNL     1      -4.855  -1.527 -33.432  1.00  0.00     0.030 A 
HETATM   19  C   UNL     1      -6.751   0.204 -34.574  1.00  0.00     0.014 A 
HETATM   20  C   UNL     1      -6.695  -1.140 -34.955  1.00  0.00     0.001 A 
HETATM   21  C   UNL     1      -5.758  -1.994 -34.390  1.00  0.00     0.002 A 
ENDBRANCH   1  11
BRANCH   2  22
HETATM   22  C   UNL     1      -4.747   4.701 -34.591  1.00  0.00     0.229 C 
BRANCH  22  23
HETATM   23  C   UNL     1      -3.339   5.283 -34.406  1.00  0.00     0.235 C 
HETATM   24  N   UNL     1      -2.433   4.471 -33.763  1.00  0.00    -0.357 N 
HETATM   25  H   UNL     1      -2.780   3.605 -33.346  1.00  0.00     0.162 HD
HETATM   26  O   UNL     1      -3.094   6.463 -34.667  1.00  0.00    -0.272 OA
BRANCH  24  27
HETATM   27  C   UNL     1      -1.139   4.965 -33.326  1.00  0.00     0.154 C 
BRANCH  27  28
HETATM   28  C   UNL     1      -1.154   5.489 -31.883  1.00  0.00     0.139 C 
HETATM   29  O   UNL     1      -0.360   4.647 -31.024  1.00  0.00    -0.384 OA
HETATM   30  C   UNL     1      -0.028   5.449 -29.887  1.00  0.00     0.168 C 
HETATM   31  C   UNL     1       0.192   6.848 -30.421  1.00  0.00     0.029 C 
HETATM   32  C   UNL     1      -0.544   6.878 -31.746  1.00  0.00     0.035 C 
ENDBRANCH  27  28
ENDBRANCH  24  27
ENDBRANCH  22  23
ENDBRANCH   2  22
TORSDOF 5
ENDMDL
MODEL 2
REMARK VINA RESULT:      -9.2      3.714      6.809
REMARK  5 active torsions:
REMARK  status: ('A' for Active; 'I' for Inactive)
REMARK    1  A    between atoms: C_7  and  C_8 
REMARK    2  A    between atoms: N_9  and  C_10 
REMARK    3  A    between atoms: C_10  and  C_11 
REMARK       I    between atoms: C_11  and  N_12 
REMARK    4  A    between atoms: N_12  and  C_13 
REMARK    5  A    between atoms: C_13  and  C_14 
ROOT
HETATM    1  C   UNL     1      -7.004  -0.278 -32.027  1.00  0.00     0.158 C 
HETATM    2  N   UNL     1      -5.915   0.241 -31.216  1.00  0.00    -0.326 N 
HETATM    3  C   UNL     1      -4.715  -0.365 -31.556  1.00  0.00     0.255 C 
HETATM    4  O   UNL     1      -3.655  -0.296 -30.961  1.00  0.00    -0.267 OA
HETATM    5  C   UNL     1      -4.945  -1.148 -32.777  1.00  0.00     0.040 A 
HETATM    6  C   UNL     1      -6.305  -1.088 -33.078  1.00  0.00    -0.015 A 
HETATM    7  C   UNL     1      -4.040  -1.869 -33.533  1.00  0.00     0.017 A 
HETATM    8  C   UNL     1      -4.537  -2.558 -34.641  1.00  0.00     0.001 A 
HETATM    9  C   UNL     1      -5.907  -2.514 -34.956  1.00  0.00     0.001 A 
HETATM   10  C   UNL     1      -6.803  -1.782 -34.171  1.00  0.00     0.011 A 
ENDROOT
BRANCH   1  11
HETATM   11  C   UNL     1      -7.803   0.785 -32.717  1.00  0.00     0.004 A 
HETATM   12  C   UNL     1      -7.298   2.003 -33.178  1.00  0.00     0.017 A 
HETATM   13  C   UNL     1      -5.903   2.531 -33.148  1.00  0.00     0.069 C 
HETATM   14  N   UNL     1      -8.351   2.733 -33.684  1.00  0.00    -0.354 N 
HETATM   15  C   UNL     1      -8.270   4.085 -34.201  1.00  0.00     0.156 C 
HETATM   16  C   UNL     1      -9.517   1.999 -33.634  1.00  0.00     0.045 A 
HETATM   17  C   UNL     1      -9.209   0.779 -33.028  1.00  0.00     0.001 A 
HETATM   18  C   UNL     1     -10.818   2.313 -34.068  1.00  0.00     0.030 A 
HETATM   19  C   UNL     1     -10.255  -0.154 -32.845  1.00  0.00     0.014 A 
HETATM   20  C   UNL     1     -11.552   0.149 -33.271  1.00  0.00     0.001 A 
HETATM   21  C   UNL     1     -11.828   1.368 -33.876  1.00  0.00     0.002 A 
ENDBRANCH   1  11
BRANCH   2  22
HETATM   22  C   UNL     1      -6.178   0.779 -29.889  1.00  0.00     0.229 C 
BRANCH  22  23
HETATM   23  C   UNL     1      -6.163   2.308 -29.758  1.00  0.00     0.235 C 
HETATM   24  N   UNL     1      -7.395   2.915 -29.671  1.00  0.00    -0.357 N 
HETATM   25  H   UNL     1      -8.224   2.337 -29.822  1.00  0.00     0.162 HD
HETATM   26  O   UNL     1      -5.121   2.952 -29.894  1.00  0.00    -0.272 OA
BRANCH  24  27
HETATM   27  C   UNL     1      -7.544   4.357 -29.763  1.00  0.00     0.154 C 
BRANCH  27  28
HETATM   28  C   UNL     1      -9.009   4.801 -29.872  1.00  0.00     0.139 C 
HETATM   29  O   UNL     1      -9.150   5.865 -30.833  1.00  0.00    -0.384 OA
HETATM   30  C   UNL     1     -10.526   5.859 -31.225  1.00  0.00     0.168 C 
HETATM   31  C   UNL     1     -10.938   4.403 -31.257  1.00  0.00     0.029 C 
HETATM   32  C   UNL     1      -9.932   3.697 -30.370  1.00  0.00     0.035 C 
ENDBRANCH  27  28
ENDBRANCH  24  27
ENDBRANCH  22  23
ENDBRANCH   2  22
TORSDOF 5
ENDMDL
MODEL 3
REMARK VINA RESULT:      -9.0      3.535      6.896
REMARK  5 active torsions:
REMARK  status: ('A' for Active; 'I' for Inactive)
REMARK    1  A    between atoms: C_7  and  C_8 
REMARK    2  A    between atoms: N_9  and  C_10 
REMARK    3  A    between atoms: C_10  and  C_11 
REMARK       I    between atoms: C_11  and  N_12 
REMARK    4  A    between atoms: N_12  and  C_13 
REMARK    5  A    between atoms: C_13  and  C_14 
ROOT
HETATM    1  C   UNL     1      -7.061  -0.225 -32.001  1.00  0.00     0.158 C 
HETATM    2  N   UNL     1      -5.937   0.222 -31.196  1.00  0.00    -0.326 N 
HETATM    3  C   UNL     1      -4.770  -0.424 -31.577  1.00  0.00     0.255 C 
HETATM    4  O   UNL     1      -3.698  -0.419 -31.001  1.00  0.00    -0.267 OA
HETATM    5  C   UNL     1      -5.056  -1.158 -32.817  1.00  0.00     0.040 A 
HETATM    6  C   UNL     1      -6.417  -1.030 -33.089  1.00  0.00    -0.015 A 
HETATM    7  C   UNL     1      -4.197  -1.894 -33.611  1.00  0.00     0.017 A 
HETATM    8  C   UNL     1      -4.743  -2.525 -34.730  1.00  0.00     0.001 A 
HETATM    9  C   UNL     1      -6.116  -2.414 -35.017  1.00  0.00     0.001 A 
HETATM   10  C   UNL     1      -6.965  -1.668 -34.192  1.00  0.00     0.011 A 
ENDROOT
BRANCH   1  11
HETATM   11  C   UNL     1      -7.826   0.893 -32.643  1.00  0.00     0.004 A 
HETATM   12  C   UNL     1      -9.180   0.853 -32.983  1.00  0.00     0.017 A 
HETATM   13  C   UNL     1     -10.185  -0.231 -32.778  1.00  0.00     0.069 C 
HETATM   14  N   UNL     1      -9.492   2.037 -33.614  1.00  0.00    -0.354 N 
HETATM   15  C   UNL     1     -10.779   2.373 -34.189  1.00  0.00     0.156 C 
HETATM   16  C   UNL     1      -8.399   2.879 -33.631  1.00  0.00     0.045 A 
HETATM   17  C   UNL     1      -7.340   2.189 -33.038  1.00  0.00     0.001 A 
HETATM   18  C   UNL     1      -8.258   4.188 -34.127  1.00  0.00     0.030 A 
HETATM   19  C   UNL     1      -6.090   2.842 -32.950  1.00  0.00     0.014 A 
HETATM   20  C   UNL     1      -5.938   4.143 -33.441  1.00  0.00     0.001 A 
HETATM   21  C   UNL     1      -7.011   4.806 -34.021  1.00  0.00     0.002 A 
ENDBRANCH   1  11
BRANCH   2  22
HETATM   22  C   UNL     1      -6.152   0.728 -29.848  1.00  0.00     0.229 C 
BRANCH  22  23
HETATM   23  C   UNL     1      -6.066   2.251 -29.671  1.00  0.00     0.235 C 
HETATM   24  N   UNL     1      -7.260   2.898 -29.452  1.00  0.00    -0.357 N 
HETATM   25  H   UNL     1      -8.121   2.355 -29.545  1.00  0.00     0.162 HD
HETATM   26  O   UNL     1      -5.016   2.862 -29.881  1.00  0.00    -0.272 OA
BRANCH  24  27
HETATM   27  C   UNL     1      -7.362   4.346 -29.484  1.00  0.00     0.154 C 
BRANCH  27  28
HETATM   28  C   UNL     1      -8.791   4.841 -29.747  1.00  0.00     0.139 C 
HETATM   29  O   UNL     1      -8.807   5.820 -30.804  1.00  0.00    -0.384 OA
HETATM   30  C   UNL     1     -10.148   5.837 -31.302  1.00  0.00     0.168 C 
HETATM   31  C   UNL     1     -10.628   4.403 -31.242  1.00  0.00     0.029 C 
HETATM   32  C   UNL     1      -9.727   3.736 -30.220  1.00  0.00     0.035 C 
ENDBRANCH  27  28
ENDBRANCH  24  27
ENDBRANCH  22  23
ENDBRANCH   2  22
TORSDOF 5
ENDMDL
MODEL 4
REMARK VINA RESULT:      -9.0      2.769      5.751
REMARK  5 active torsions:
REMARK  status: ('A' for Active; 'I' for Inactive)
REMARK    1  A    between atoms: C_7  and  C_8 
REMARK    2  A    between atoms: N_9  and  C_10 
REMARK    3  A    between atoms: C_10  and  C_11 
REMARK       I    between atoms: C_11  and  N_12 
REMARK    4  A    between atoms: N_12  and  C_13 
REMARK    5  A    between atoms: C_13  and  C_14 
ROOT
HETATM    1  C   UNL     1      -6.963  -0.114 -31.975  1.00  0.00     0.158 C 
HETATM    2  N   UNL     1      -5.875   0.382 -31.149  1.00  0.00    -0.326 N 
HETATM    3  C   UNL     1      -4.686  -0.260 -31.461  1.00  0.00     0.255 C 
HETATM    4  O   UNL     1      -3.636  -0.215 -30.848  1.00  0.00    -0.267 OA
HETATM    5  C   UNL     1      -4.916  -1.048 -32.679  1.00  0.00     0.040 A 
HETATM    6  C   UNL     1      -6.268  -0.953 -33.005  1.00  0.00    -0.015 A 
HETATM    7  C   UNL     1      -4.018  -1.801 -33.411  1.00  0.00     0.017 A 
HETATM    8  C   UNL     1      -4.513  -2.486 -34.522  1.00  0.00     0.001 A 
HETATM    9  C   UNL     1      -5.876  -2.408 -34.863  1.00  0.00     0.001 A 
HETATM   10  C   UNL     1      -6.765  -1.643 -34.100  1.00  0.00     0.011 A 
ENDROOT
BRANCH   1  11
HETATM   11  C   UNL     1      -7.719   0.964 -32.688  1.00  0.00     0.004 A 
HETATM   12  C   UNL     1      -7.177   2.171 -33.134  1.00  0.00     0.017 A 
HETATM   13  C   UNL     1      -5.772   2.672 -33.062  1.00  0.00     0.069 C 
HETATM   14  N   UNL     1      -8.199   2.922 -33.672  1.00  0.00    -0.354 N 
HETATM   15  C   UNL     1      -8.075   4.271 -34.186  1.00  0.00     0.156 C 
HETATM   16  C   UNL     1      -9.381   2.211 -33.657  1.00  0.00     0.045 A 
HETATM   17  C   UNL     1      -9.115   0.986 -33.041  1.00  0.00     0.001 A 
HETATM   18  C   UNL     1     -10.661   2.551 -34.130  1.00  0.00     0.030 A 
HETATM   19  C   UNL     1     -10.185   0.074 -32.890  1.00  0.00     0.014 A 
HETATM   20  C   UNL     1     -11.462   0.403 -33.355  1.00  0.00     0.001 A 
HETATM   21  C   UNL     1     -11.695   1.626 -33.967  1.00  0.00     0.002 A 
ENDBRANCH   1  11
BRANCH   2  22
HETATM   22  C   UNL     1      -6.147   0.939 -29.831  1.00  0.00     0.229 C 
BRANCH  22  23
HETATM   23  C   UNL     1      -6.472   2.438 -29.780  1.00  0.00     0.235 C 
HETATM   24  N   UNL     1      -5.403   3.276 -29.556  1.00  0.00    -0.357 N 
HETATM   25  H   UNL     1      -4.505   2.852 -29.319  1.00  0.00     0.162 HD
HETATM   26  O   UNL     1      -7.636   2.842 -29.770  1.00  0.00    -0.272 OA
BRANCH  24  27
HETATM   27  C   UNL     1      -5.586   4.687 -29.267  1.00  0.00     0.154 C 
BRANCH  27  28
HETATM   28  C   UNL     1      -4.884   5.603 -30.279  1.00  0.00     0.139 C 
HETATM   29  O   UNL     1      -3.901   4.871 -31.036  1.00  0.00    -0.384 OA
HETATM   30  C   UNL     1      -3.682   5.627 -32.230  1.00  0.00     0.168 C 
HETATM   31  C   UNL     1      -5.030   6.200 -32.607  1.00  0.00     0.029 C 
HETATM   32  C   UNL     1      -5.834   6.178 -31.322  1.00  0.00     0.035 C 
ENDBRANCH  27  28
ENDBRANCH  24  27
ENDBRANCH  22  23
ENDBRANCH   2  22
TORSDOF 5
ENDMDL
MODEL 5
REMARK VINA RESULT:      -8.9      2.456      6.142
REMARK  5 active torsions:
REMARK  status: ('A' for Active; 'I' for Inactive)
REMARK    1  A    between atoms: C_7  and  C_8 
REMARK    2  A    between atoms: N_9  and  C_10 
REMARK    3  A    between atoms: C_10  and  C_11 
REMARK       I    between atoms: C_11  and  N_12 
REMARK    4  A    between atoms: N_12  and  C_13 
REMARK    5  A    between atoms: C_13  and  C_14 
ROOT
HETATM    1  C   UNL     1      -4.888   2.746 -31.579  1.00  0.00     0.158 C 
HETATM    2  N   UNL     1      -6.150   3.457 -31.468  1.00  0.00    -0.326 N 
HETATM    3  C   UNL     1      -6.040   4.741 -31.979  1.00  0.00     0.255 C 
HETATM    4  O   UNL     1      -6.845   5.650 -31.880  1.00  0.00    -0.267 OA
HETATM    5  C   UNL     1      -4.744   4.836 -32.661  1.00  0.00     0.040 A 
HETATM    6  C   UNL     1      -4.055   3.644 -32.444  1.00  0.00    -0.015 A 
HETATM    7  C   UNL     1      -4.213   5.890 -33.379  1.00  0.00     0.017 A 
HETATM    8  C   UNL     1      -2.928   5.727 -33.901  1.00  0.00     0.001 A 
HETATM    9  C   UNL     1      -2.215   4.533 -33.687  1.00  0.00     0.001 A 
HETATM   10  C   UNL     1      -2.773   3.484 -32.950  1.00  0.00     0.011 A 
ENDROOT
BRANCH   1  11
HETATM   11  C   UNL     1      -5.001   1.418 -32.263  1.00  0.00     0.004 A 
HETATM   12  C   UNL     1      -4.186   0.311 -32.016  1.00  0.00     0.017 A 
HETATM   13  C   UNL     1      -3.073   0.144 -31.036  1.00  0.00     0.069 C 
HETATM   14  N   UNL     1      -4.553  -0.688 -32.890  1.00  0.00    -0.354 N 
HETATM   15  C   UNL     1      -3.911  -1.982 -33.012  1.00  0.00     0.156 C 
HETATM   16  C   UNL     1      -5.633  -0.292 -33.651  1.00  0.00     0.045 A 
HETATM   17  C   UNL     1      -5.932   1.023 -33.288  1.00  0.00     0.001 A 
HETATM   18  C   UNL     1      -6.365  -0.983 -34.633  1.00  0.00     0.030 A 
HETATM   19  C   UNL     1      -7.003   1.666 -33.948  1.00  0.00     0.014 A 
HETATM   20  C   UNL     1      -7.737   0.989 -34.927  1.00  0.00     0.001 A 
HETATM   21  C   UNL     1      -7.420  -0.320 -35.264  1.00  0.00     0.002 A 
ENDBRANCH   1  11
BRANCH   2  22
HETATM   22  C   UNL     1      -7.104   3.102 -30.426  1.00  0.00     0.229 C 
BRANCH  22  23
HETATM   23  C   UNL     1      -8.552   2.868 -30.880  1.00  0.00     0.235 C 
HETATM   24  N   UNL     1      -9.350   3.987 -30.940  1.00  0.00    -0.357 N 
HETATM   25  H   UNL     1      -8.976   4.861 -30.567  1.00  0.00     0.162 HD
HETATM   26  O   UNL     1      -9.005   1.729 -31.014  1.00  0.00    -0.272 OA
BRANCH  24  27
HETATM   27  C   UNL     1     -10.786   3.891 -31.138  1.00  0.00     0.154 C 
BRANCH  27  28
HETATM   28  C   UNL     1     -11.194   3.993 -32.614  1.00  0.00     0.139 C 
HETATM   29  O   UNL     1     -10.082   4.418 -33.425  1.00  0.00    -0.384 OA
HETATM   30  C   UNL     1     -10.392   4.009 -34.761  1.00  0.00     0.168 C 
HETATM   31  C   UNL     1     -11.099   2.677 -34.629  1.00  0.00     0.029 C 
HETATM   32  C   UNL     1     -11.625   2.657 -33.207  1.00  0.00     0.035 C 
ENDBRANCH  27  28
ENDBRANCH  24  27
ENDBRANCH  22  23
ENDBRANCH   2  22
TORSDOF 5
ENDMDL
MODEL 6
REMARK VINA RESULT:      -8.9      2.440      6.253
REMARK  5 active torsions:
REMARK  status: ('A' for Active; 'I' for Inactive)
REMARK    1  A    between atoms: C_7  and  C_8 
REMARK    2  A    between atoms: N_9  and  C_10 
REMARK    3  A    between atoms: C_10  and  C_11 
REMARK       I    between atoms: C_11  and  N_12 
REMARK    4  A    between atoms: N_12  and  C_13 
REMARK    5  A    between atoms: C_13  and  C_14 
ROOT
HETATM    1  C   UNL     1      -4.009   3.489 -31.464  1.00  0.00     0.158 C 
HETATM    2  N   UNL     1      -5.021   4.367 -30.901  1.00  0.00    -0.326 N 
HETATM    3  C   UNL     1      -4.772   5.689 -31.242  1.00  0.00     0.255 C 
HETATM    4  O   UNL     1      -5.312   6.684 -30.796  1.00  0.00    -0.267 OA
HETATM    5  C   UNL     1      -3.700   5.692 -32.246  1.00  0.00     0.040 A 
HETATM    6  C   UNL     1      -3.249   4.381 -32.399  1.00  0.00    -0.015 A 
HETATM    7  C   UNL     1      -3.155   6.758 -32.935  1.00  0.00     0.017 A 
HETATM    8  C   UNL     1      -2.109   6.483 -33.818  1.00  0.00     0.001 A 
HETATM    9  C   UNL     1      -1.637   5.168 -33.980  1.00  0.00     0.001 A 
HETATM   10  C   UNL     1      -2.202   4.107 -33.266  1.00  0.00     0.011 A 
ENDROOT
BRANCH   1  11
HETATM   11  C   UNL     1      -4.572   2.353 -32.262  1.00  0.00     0.004 A 
HETATM   12  C   UNL     1      -5.601   2.457 -33.199  1.00  0.00     0.017 A 
HETATM   13  C   UNL     1      -6.351   3.661 -33.665  1.00  0.00     0.069 C 
HETATM   14  N   UNL     1      -5.883   1.191 -33.662  1.00  0.00    -0.354 N 
HETATM   15  C   UNL     1      -6.935   0.848 -34.598  1.00  0.00     0.156 C 
HETATM   16  C   UNL     1      -5.018   0.270 -33.108  1.00  0.00     0.045 A 
HETATM   17  C   UNL     1      -4.190   0.965 -32.223  1.00  0.00     0.001 A 
HETATM   18  C   UNL     1      -4.901  -1.117 -33.311  1.00  0.00     0.030 A 
HETATM   19  C   UNL     1      -3.216   0.230 -31.510  1.00  0.00     0.014 A 
HETATM   20  C   UNL     1      -3.094  -1.150 -31.703  1.00  0.00     0.001 A 
HETATM   21  C   UNL     1      -3.927  -1.813 -32.594  1.00  0.00     0.002 A 
ENDBRANCH   1  11
BRANCH   2  22
HETATM   22  C   UNL     1      -5.734   3.987 -29.690  1.00  0.00     0.229 C 
BRANCH  22  23
HETATM   23  C   UNL     1      -7.259   3.863 -29.808  1.00  0.00     0.235 C 
HETATM   24  N   UNL     1      -7.723   2.709 -30.396  1.00  0.00    -0.357 N 
HETATM   25  H   UNL     1      -7.038   2.080 -30.821  1.00  0.00     0.162 HD
HETATM   26  O   UNL     1      -8.002   4.811 -29.547  1.00  0.00    -0.272 OA
BRANCH  24  27
HETATM   27  C   UNL     1      -9.117   2.549 -30.771  1.00  0.00     0.154 C 
BRANCH  27  28
HETATM   28  C   UNL     1      -9.302   1.730 -32.056  1.00  0.00     0.139 C 
HETATM   29  O   UNL     1      -9.501   0.336 -31.751  1.00  0.00    -0.384 OA
HETATM   30  C   UNL     1     -10.141  -0.229 -32.898  1.00  0.00     0.168 C 
HETATM   31  C   UNL     1     -11.081   0.840 -33.413  1.00  0.00     0.029 C 
HETATM   32  C   UNL     1     -10.535   2.138 -32.852  1.00  0.00     0.035 C 
ENDBRANCH  27  28
ENDBRANCH  24  27
ENDBRANCH  22  23
ENDBRANCH   2  22
TORSDOF 5
ENDMDL
MODEL 7
REMARK VINA RESULT:      -8.7      2.792      7.392
REMARK  5 active torsions:
REMARK  status: ('A' for Active; 'I' for Inactive)
REMARK    1  A    between atoms: C_7  and  C_8 
REMARK    2  A    between atoms: N_9  and  C_10 
REMARK    3  A    between atoms: C_10  and  C_11 
REMARK       I    between atoms: C_11  and  N_12 
REMARK    4  A    between atoms: N_12  and  C_13 
REMARK    5  A    between atoms: C_13  and  C_14 
ROOT
HETATM    1  C   UNL     1      -5.927   2.832 -32.543  1.00  0.00     0.158 C 
HETATM    2  N   UNL     1      -5.185   2.029 -31.586  1.00  0.00    -0.326 N 
HETATM    3  C   UNL     1      -3.819   2.223 -31.733  1.00  0.00     0.255 C 
HETATM    4  O   UNL     1      -2.920   1.581 -31.222  1.00  0.00    -0.267 OA
HETATM    5  C   UNL     1      -3.630   3.351 -32.654  1.00  0.00     0.040 A 
HETATM    6  C   UNL     1      -4.883   3.734 -33.129  1.00  0.00    -0.015 A 
HETATM    7  C   UNL     1      -2.456   3.960 -33.055  1.00  0.00     0.017 A 
HETATM    8  C   UNL     1      -2.559   5.003 -33.977  1.00  0.00     0.001 A 
HETATM    9  C   UNL     1      -3.814   5.399 -34.473  1.00  0.00     0.001 A 
HETATM   10  C   UNL     1      -4.987   4.762 -34.055  1.00  0.00     0.011 A 
ENDROOT
BRANCH   1  11
HETATM   11  C   UNL     1      -6.984   3.691 -31.919  1.00  0.00     0.004 A 
HETATM   12  C   UNL     1      -8.246   3.941 -32.463  1.00  0.00     0.017 A 
HETATM   13  C   UNL     1      -8.864   3.424 -33.719  1.00  0.00     0.069 C 
HETATM   14  N   UNL     1      -8.895   4.830 -31.635  1.00  0.00    -0.354 N 
HETATM   15  C   UNL     1     -10.205   5.404 -31.873  1.00  0.00     0.156 C 
HETATM   16  C   UNL     1      -8.124   5.110 -30.526  1.00  0.00     0.045 A 
HETATM   17  C   UNL     1      -6.920   4.419 -30.678  1.00  0.00     0.001 A 
HETATM   18  C   UNL     1      -8.387   5.920 -29.407  1.00  0.00     0.030 A 
HETATM   19  C   UNL     1      -5.942   4.559 -29.667  1.00  0.00     0.014 A 
HETATM   20  C   UNL     1      -6.193   5.363 -28.551  1.00  0.00     0.001 A 
HETATM   21  C   UNL     1      -7.402   6.035 -28.424  1.00  0.00     0.002 A 
ENDBRANCH   1  11
BRANCH   2  22
HETATM   22  C   UNL     1      -5.753   0.794 -31.064  1.00  0.00     0.229 C 
BRANCH  22  23
HETATM   23  C   UNL     1      -6.576  -0.047 -32.050  1.00  0.00     0.235 C 
HETATM   24  N   UNL     1      -5.852  -0.785 -32.958  1.00  0.00    -0.357 N 
HETATM   25  H   UNL     1      -4.842  -0.632 -33.001  1.00  0.00     0.162 HD
HETATM   26  O   UNL     1      -7.801   0.069 -32.125  1.00  0.00    -0.272 OA
BRANCH  24  27
HETATM   27  C   UNL     1      -6.488  -1.450 -34.082  1.00  0.00     0.154 C 
BRANCH  27  28
HETATM   28  C   UNL     1      -5.611  -2.546 -34.703  1.00  0.00     0.139 C 
HETATM   29  O   UNL     1      -4.491  -2.851 -33.850  1.00  0.00    -0.384 OA
HETATM   30  C   UNL     1      -4.050  -4.157 -34.233  1.00  0.00     0.168 C 
HETATM   31  C   UNL     1      -5.305  -4.931 -34.573  1.00  0.00     0.029 C 
HETATM   32  C   UNL     1      -6.344  -3.870 -34.877  1.00  0.00     0.035 C 
ENDBRANCH  27  28
ENDBRANCH  24  27
ENDBRANCH  22  23
ENDBRANCH   2  22
TORSDOF 5
ENDMDL
MODEL 8
REMARK VINA RESULT:      -8.6      2.716      5.867
REMARK  5 active torsions:
REMARK  status: ('A' for Active; 'I' for Inactive)
REMARK    1  A    between atoms: C_7  and  C_8 
REMARK    2  A    between atoms: N_9  and  C_10 
REMARK    3  A    between atoms: C_10  and  C_11 
REMARK       I    between atoms: C_11  and  N_12 
REMARK    4  A    between atoms: N_12  and  C_13 
REMARK    5  A    between atoms: C_13  and  C_14 
ROOT
HETATM    1  C   UNL     1      -7.050  -0.006 -31.843  1.00  0.00     0.158 C 
HETATM    2  N   UNL     1      -5.945   0.521 -31.060  1.00  0.00    -0.326 N 
HETATM    3  C   UNL     1      -4.752  -0.088 -31.420  1.00  0.00     0.255 C 
HETATM    4  O   UNL     1      -3.680  -0.013 -30.848  1.00  0.00    -0.267 OA
HETATM    5  C   UNL     1      -5.007  -0.882 -32.628  1.00  0.00     0.040 A 
HETATM    6  C   UNL     1      -6.373  -0.825 -32.901  1.00  0.00    -0.015 A 
HETATM    7  C   UNL     1      -4.118  -1.611 -33.395  1.00  0.00     0.017 A 
HETATM    8  C   UNL     1      -4.638  -2.310 -34.486  1.00  0.00     0.001 A 
HETATM    9  C   UNL     1      -6.014  -2.270 -34.773  1.00  0.00     0.001 A 
HETATM   10  C   UNL     1      -6.894  -1.529 -33.976  1.00  0.00     0.011 A 
ENDROOT
BRANCH   1  11
HETATM   11  C   UNL     1      -7.864   1.051 -32.526  1.00  0.00     0.004 A 
HETATM   12  C   UNL     1      -9.214   0.937 -32.864  1.00  0.00     0.017 A 
HETATM   13  C   UNL     1     -10.169  -0.183 -32.618  1.00  0.00     0.069 C 
HETATM   14  N   UNL     1      -9.579   2.081 -33.540  1.00  0.00    -0.354 N 
HETATM   15  C   UNL     1     -10.880   2.337 -34.126  1.00  0.00     0.156 C 
HETATM   16  C   UNL     1      -8.526   2.970 -33.589  1.00  0.00     0.045 A 
HETATM   17  C   UNL     1      -7.437   2.352 -32.970  1.00  0.00     0.001 A 
HETATM   18  C   UNL     1      -8.443   4.265 -34.134  1.00  0.00     0.030 A 
HETATM   19  C   UNL     1      -6.217   3.064 -32.908  1.00  0.00     0.014 A 
HETATM   20  C   UNL     1      -6.124   4.351 -33.448  1.00  0.00     0.001 A 
HETATM   21  C   UNL     1      -7.225   4.943 -34.053  1.00  0.00     0.002 A 
ENDBRANCH   1  11
BRANCH   2  22
HETATM   22  C   UNL     1      -6.180   1.071 -29.733  1.00  0.00     0.229 C 
BRANCH  22  23
HETATM   23  C   UNL     1      -6.519   2.567 -29.666  1.00  0.00     0.235 C 
HETATM   24  N   UNL     1      -5.453   3.416 -29.478  1.00  0.00    -0.357 N 
HETATM   25  H   UNL     1      -4.542   3.001 -29.274  1.00  0.00     0.162 HD
HETATM   26  O   UNL     1      -7.687   2.957 -29.615  1.00  0.00    -0.272 OA
BRANCH  24  27
HETATM   27  C   UNL     1      -5.642   4.824 -29.179  1.00  0.00     0.154 C 
BRANCH  27  28
HETATM   28  C   UNL     1      -4.592   5.724 -29.845  1.00  0.00     0.139 C 
HETATM   29  O   UNL     1      -3.832   4.988 -30.823  1.00  0.00    -0.384 OA
HETATM   30  C   UNL     1      -3.272   5.967 -31.703  1.00  0.00     0.168 C 
HETATM   31  C   UNL     1      -4.323   7.047 -31.839  1.00  0.00     0.029 C 
HETATM   32  C   UNL     1      -5.205   6.886 -30.617  1.00  0.00     0.035 C 
ENDBRANCH  27  28
ENDBRANCH  24  27
ENDBRANCH  22  23
ENDBRANCH   2  22
TORSDOF 5
ENDMDL
MODEL 9
REMARK VINA RESULT:      -8.6      3.328      4.715
REMARK  5 active torsions:
REMARK  status: ('A' for Active; 'I' for Inactive)
REMARK    1  A    between atoms: C_7  and  C_8 
REMARK    2  A    between atoms: N_9  and  C_10 
REMARK    3  A    between atoms: C_10  and  C_11 
REMARK       I    between atoms: C_11  and  N_12 
REMARK    4  A    between atoms: N_12  and  C_13 
REMARK    5  A    between atoms: C_13  and  C_14 
ROOT
HETATM    1  C   UNL     1     -10.065   2.483 -34.267  1.00  0.00     0.158 C 
HETATM    2  N   UNL     1     -10.207   3.899 -33.969  1.00  0.00    -0.326 N 
HETATM    3  C   UNL     1     -11.528   4.213 -33.686  1.00  0.00     0.255 C 
HETATM    4  O   UNL     1     -12.018   5.322 -33.573  1.00  0.00    -0.267 OA
HETATM    5  C   UNL     1     -12.267   2.950 -33.564  1.00  0.00     0.040 A 
HETATM    6  C   UNL     1     -11.398   1.910 -33.891  1.00  0.00    -0.015 A 
HETATM    7  C   UNL     1     -13.591   2.745 -33.225  1.00  0.00     0.017 A 
HETATM    8  C   UNL     1     -14.052   1.427 -33.217  1.00  0.00     0.001 A 
HETATM    9  C   UNL     1     -13.192   0.365 -33.550  1.00  0.00     0.001 A 
HETATM   10  C   UNL     1     -11.858   0.601 -33.896  1.00  0.00     0.011 A 
ENDROOT
BRANCH   1  11
HETATM   11  C   UNL     1      -9.017   1.796 -33.446  1.00  0.00     0.004 A 
HETATM   12  C   UNL     1      -8.748   2.054 -32.100  1.00  0.00     0.017 A 
HETATM   13  C   UNL     1      -9.415   2.999 -31.157  1.00  0.00     0.069 C 
HETATM   14  N   UNL     1      -7.673   1.277 -31.727  1.00  0.00    -0.354 N 
HETATM   15  C   UNL     1      -7.030   1.293 -30.428  1.00  0.00     0.156 C 
HETATM   16  C   UNL     1      -7.278   0.465 -32.770  1.00  0.00     0.045 A 
HETATM   17  C   UNL     1      -8.095   0.771 -33.861  1.00  0.00     0.001 A 
HETATM   18  C   UNL     1      -6.266  -0.509 -32.841  1.00  0.00     0.030 A 
HETATM   19  C   UNL     1      -7.874   0.075 -35.071  1.00  0.00     0.014 A 
HETATM   20  C   UNL     1      -6.868  -0.894 -35.153  1.00  0.00     0.001 A 
HETATM   21  C   UNL     1      -6.075  -1.181 -34.050  1.00  0.00     0.002 A 
ENDBRANCH   1  11
BRANCH   2  22
HETATM   22  C   UNL     1      -9.268   4.865 -34.522  1.00  0.00     0.229 C 
BRANCH  22  23
HETATM   23  C   UNL     1      -8.285   5.503 -33.531  1.00  0.00     0.235 C 
HETATM   24  N   UNL     1      -6.982   5.069 -33.615  1.00  0.00    -0.357 N 
HETATM   25  H   UNL     1      -6.781   4.278 -34.229  1.00  0.00     0.162 HD
HETATM   26  O   UNL     1      -8.679   6.228 -32.615  1.00  0.00    -0.272 OA
BRANCH  24  27
HETATM   27  C   UNL     1      -5.995   5.418 -32.609  1.00  0.00     0.154 C 
BRANCH  27  28
HETATM   28  C   UNL     1      -5.331   4.190 -31.970  1.00  0.00     0.139 C 
HETATM   29  O   UNL     1      -5.023   3.198 -32.968  1.00  0.00    -0.384 OA
HETATM   30  C   UNL     1      -4.004   2.371 -32.398  1.00  0.00     0.168 C 
HETATM   31  C   UNL     1      -3.126   3.300 -31.587  1.00  0.00     0.029 C 
HETATM   32  C   UNL     1      -3.996   4.510 -31.309  1.00  0.00     0.035 C 
ENDBRANCH  27  28
ENDBRANCH  24  27
ENDBRANCH  22  23
ENDBRANCH   2  22
TORSDOF 5
ENDMDL
MODEL 10
REMARK VINA RESULT:      -8.5      3.816      7.276
REMARK  5 active torsions:
REMARK  status: ('A' for Active; 'I' for Inactive)
REMARK    1  A    between atoms: C_7  and  C_8 
REMARK    2  A    between atoms: N_9  and  C_10 
REMARK    3  A    between atoms: C_10  and  C_11 
REMARK       I    between atoms: C_11  and  N_12 
REMARK    4  A    between atoms: N_12  and  C_13 
REMARK    5  A    between atoms: C_13  and  C_14 
ROOT
HETATM    1  C   UNL     1      -5.676   0.790 -33.693  1.00  0.00     0.158 C 
HETATM    2  N   UNL     1      -6.762  -0.131 -33.981  1.00  0.00    -0.326 N 
HETATM    3  C   UNL     1      -6.366  -1.443 -33.767  1.00  0.00     0.255 C 
HETATM    4  O   UNL     1      -6.962  -2.457 -34.080  1.00  0.00    -0.267 OA
HETATM    5  C   UNL     1      -5.058  -1.407 -33.101  1.00  0.00     0.040 A 
HETATM    6  C   UNL     1      -4.645  -0.077 -33.035  1.00  0.00    -0.015 A 
HETATM    7  C   UNL     1      -4.294  -2.455 -32.626  1.00  0.00     0.017 A 
HETATM    8  C   UNL     1      -3.057  -2.141 -32.059  1.00  0.00     0.001 A 
HETATM    9  C   UNL     1      -2.620  -0.805 -31.990  1.00  0.00     0.001 A 
HETATM   10  C   UNL     1      -3.411   0.237 -32.484  1.00  0.00     0.011 A 
ENDROOT
BRANCH   1  11
HETATM   11  C   UNL     1      -6.047   1.879 -32.732  1.00  0.00     0.004 A 
HETATM   12  C   UNL     1      -6.659   1.687 -31.492  1.00  0.00     0.017 A 
HETATM   13  C   UNL     1      -7.052   0.420 -30.807  1.00  0.00     0.069 C 
HETATM   14  N   UNL     1      -6.902   2.927 -30.943  1.00  0.00    -0.354 N 
HETATM   15  C   UNL     1      -7.587   3.176 -29.691  1.00  0.00     0.156 C 
HETATM   16  C   UNL     1      -6.400   3.922 -31.756  1.00  0.00     0.045 A 
HETATM   17  C   UNL     1      -5.866   3.299 -32.886  1.00  0.00     0.001 A 
HETATM   18  C   UNL     1      -6.380   5.318 -31.590  1.00  0.00     0.030 A 
HETATM   19  C   UNL     1      -5.298   4.118 -33.889  1.00  0.00     0.014 A 
HETATM   20  C   UNL     1      -5.274   5.507 -33.734  1.00  0.00     0.001 A 
HETATM   21  C   UNL     1      -5.809   6.099 -32.597  1.00  0.00     0.002 A 
ENDBRANCH   1  11
BRANCH   2  22
HETATM   22  C   UNL     1      -7.801   0.233 -34.934  1.00  0.00     0.229 C 
BRANCH  22  23
HETATM   23  C   UNL     1      -9.119   0.750 -34.340  1.00  0.00     0.235 C 
HETATM   24  N   UNL     1      -9.617   1.904 -34.900  1.00  0.00    -0.357 N 
HETATM   25  H   UNL     1      -9.029   2.401 -35.571  1.00  0.00     0.162 HD
HETATM   26  O   UNL     1      -9.601   0.252 -33.321  1.00  0.00    -0.272 OA
BRANCH  24  27
HETATM   27  C   UNL     1     -10.727   2.625 -34.303  1.00  0.00     0.154 C 
BRANCH  27  28
HETATM   28  C   UNL     1     -10.620   4.145 -34.482  1.00  0.00     0.139 C 
HETATM   29  O   UNL     1     -11.465   4.833 -33.539  1.00  0.00    -0.384 OA
HETATM   30  C   UNL     1     -10.940   6.160 -33.437  1.00  0.00     0.168 C 
HETATM   31  C   UNL     1      -9.437   6.016 -33.535  1.00  0.00     0.029 C 
HETATM   32  C   UNL     1      -9.219   4.680 -34.218  1.00  0.00     0.035 C 
ENDBRANCH  27  28
ENDBRANCH  24  27
ENDBRANCH  22  23
ENDBRANCH   2  22
TORSDOF 5
ENDMDL
