MODEL 1
REMARK VINA RESULT:      -9.2      0.000      0.000
REMARK  7 active torsions:
REMARK  status: ('A' for Active; 'I' for Inactive)
REMARK       I    between atoms: N_2  and  C_3 
REMARK    1  A    between atoms: C_3  and  C_4 
REMARK    2  A    between atoms: C_4  and  O_5 
REMARK    3  A    between atoms: O_5  and  C_6 
REMARK    4  A    between atoms: C_9  and  N_10 
REMARK    5  A    between atoms: N_10  and  C_11 
REMARK    6  A    between atoms: C_14  and  C_15 
REMARK    7  A    between atoms: C_18  and  O_19 
ROOT
HETATM    1  C   UNL     1      -7.750   1.844 -33.821  1.00  0.00     0.161 A 
HETATM    2  N   UNL     1      -7.871   1.078 -34.923  1.00  0.00    -0.131 NA
HETATM    3  N   UNL     1      -7.339  -0.180 -34.981  1.00  0.00    -0.147 NA
HETATM    4  C   UNL     1      -6.702  -0.701 -33.912  1.00  0.00     0.100 A 
HETATM    5  C   UNL     1      -6.594   0.012 -32.702  1.00  0.00     0.009 A 
HETATM    6  C   UNL     1      -7.141   1.320 -32.653  1.00  0.00     0.024 A 
HETATM    7  C   UNL     1      -5.990  -0.519 -31.533  1.00  0.00     0.015 A 
HETATM    8  C   UNL     1      -5.907   0.214 -30.349  1.00  0.00     0.001 A 
HETATM    9  C   UNL     1      -6.441   1.490 -30.296  1.00  0.00     0.001 A 
HETATM   10  C   UNL     1      -7.054   2.032 -31.426  1.00  0.00     0.016 A 
ENDROOT
BRANCH   1  11
HETATM   11  N   UNL     1      -8.311   3.153 -33.793  1.00  0.00    -0.339 N 
HETATM   12  H   UNL     1      -7.966   3.670 -34.596  1.00  0.00     0.167 HD
BRANCH  11  13
HETATM   13  C   UNL     1      -9.653   3.546 -33.576  1.00  0.00     0.033 A 
HETATM   14  C   UNL     1     -10.500   3.615 -34.690  1.00  0.00     0.032 A 
HETATM   15  C   UNL     1     -11.852   3.946 -34.551  1.00  0.00     0.039 A 
HETATM   16  C   UNL     1     -12.393   4.202 -33.292  1.00  0.00     0.069 A 
HETATM   17  C   UNL     1     -11.563   4.132 -32.175  1.00  0.00     0.039 A 
HETATM   18  C   UNL     1     -10.207   3.801 -32.318  1.00  0.00     0.032 A 
BRANCH  16  19
HETATM   19  O   UNL     1     -13.728   4.497 -33.286  1.00  0.00    -0.342 OA
BRANCH  19  20
HETATM   20  C   UNL     1     -14.491   3.988 -32.193  1.00  0.00     0.278 C 
BRANCH  20  21
HETATM   21  C   UNL     1     -14.973   2.564 -32.468  1.00  0.00     0.241 C 
HETATM   22  N   UNL     1     -14.752   2.121 -33.754  1.00  0.00    -0.364 N 
HETATM   23  C   UNL     1     -15.046   0.771 -34.155  1.00  0.00     0.149 C 
HETATM   24  H   UNL     1     -14.161   2.705 -34.338  1.00  0.00     0.161 HD
HETATM   25  O   UNL     1     -15.524   1.883 -31.605  1.00  0.00    -0.271 OA
ENDBRANCH  20  21
ENDBRANCH  19  20
ENDBRANCH  16  19
ENDBRANCH  11  13
ENDBRANCH   1  11
BRANCH   4  26
HETATM   26  C   UNL     1      -6.156  -2.045 -34.151  1.00  0.00    -0.005 A 
HETATM   27  C   UNL     1      -6.982  -3.115 -34.546  1.00  0.00     0.016 A 
HETATM   28  C   UNL     1      -6.458  -4.394 -34.753  1.00  0.00     0.037 A 
HETATM   29  C   UNL     1      -5.100  -4.616 -34.555  1.00  0.00     0.065 A 
HETATM   30  C   UNL     1      -4.263  -3.584 -34.151  1.00  0.00     0.037 A 
HETATM   31  C   UNL     1      -4.790  -2.307 -33.945  1.00  0.00     0.016 A 
BRANCH  29  32
HETATM   32  O   UNL     1      -4.546  -5.847 -34.739  1.00  0.00    -0.361 OA
HETATM   33  H   UNL     1      -3.959  -5.813 -35.512  1.00  0.00     0.217 HD
ENDBRANCH  29  32
ENDBRANCH   4  26
TORSDOF 7
ENDMDL
MODEL 2
REMARK VINA RESULT:      -9.1      1.564      2.170
REMARK  7 active torsions:
REMARK  status: ('A' for Active; 'I' for Inactive)
REMARK       I    between atoms: N_2  and  C_3 
REMARK    1  A    between atoms: C_3  and  C_4 
REMARK    2  A    between atoms: C_4  and  O_5 
REMARK    3  A    between atoms: O_5  and  C_6 
REMARK    4  A    between atoms: C_9  and  N_10 
REMARK    5  A    between atoms: N_10  and  C_11 
REMARK    6  A    between atoms: C_14  and  C_15 
REMARK    7  A    between atoms: C_18  and  O_19 
ROOT
HETATM    1  C   UNL     1      -8.605   1.196 -34.065  1.00  0.00     0.161 A 
HETATM    2  N   UNL     1      -8.472   0.297 -35.061  1.00  0.00    -0.131 NA
HETATM    3  N   UNL     1      -7.582  -0.737 -34.976  1.00  0.00    -0.147 NA
HETATM    4  C   UNL     1      -6.831  -0.901 -33.867  1.00  0.00     0.100 A 
HETATM    5  C   UNL     1      -6.962  -0.044 -32.758  1.00  0.00     0.009 A 
HETATM    6  C   UNL     1      -7.881   1.032 -32.857  1.00  0.00     0.024 A 
HETATM    7  C   UNL     1      -6.241  -0.215 -31.548  1.00  0.00     0.015 A 
HETATM    8  C   UNL     1      -6.401   0.650 -30.466  1.00  0.00     0.001 A 
HETATM    9  C   UNL     1      -7.299   1.701 -30.557  1.00  0.00     0.001 A 
HETATM   10  C   UNL     1      -8.032   1.885 -31.730  1.00  0.00     0.016 A 
ENDROOT
BRANCH   1  11
HETATM   11  N   UNL     1      -9.538   2.265 -34.185  1.00  0.00    -0.339 N 
HETATM   12  H   UNL     1      -9.333   2.779 -35.037  1.00  0.00     0.167 HD
BRANCH  11  13
HETATM   13  C   UNL     1     -10.944   2.247 -34.024  1.00  0.00     0.033 A 
HETATM   14  C   UNL     1     -11.560   1.007 -33.812  1.00  0.00     0.032 A 
HETATM   15  C   UNL     1     -12.938   0.912 -33.595  1.00  0.00     0.039 A 
HETATM   16  C   UNL     1     -13.731   2.057 -33.568  1.00  0.00     0.069 A 
HETATM   17  C   UNL     1     -13.131   3.298 -33.772  1.00  0.00     0.039 A 
HETATM   18  C   UNL     1     -11.749   3.389 -33.992  1.00  0.00     0.032 A 
BRANCH  16  19
HETATM   19  O   UNL     1     -15.059   1.834 -33.329  1.00  0.00    -0.342 OA
BRANCH  19  20
HETATM   20  C   UNL     1     -15.550   2.210 -32.043  1.00  0.00     0.278 C 
BRANCH  20  21
HETATM   21  C   UNL     1     -16.923   2.875 -32.145  1.00  0.00     0.241 C 
HETATM   22  N   UNL     1     -16.887   4.225 -32.419  1.00  0.00    -0.364 N 
HETATM   23  C   UNL     1     -18.086   4.985 -32.653  1.00  0.00     0.149 C 
HETATM   24  H   UNL     1     -15.985   4.610 -32.681  1.00  0.00     0.161 HD
HETATM   25  O   UNL     1     -17.966   2.246 -31.981  1.00  0.00    -0.271 OA
ENDBRANCH  20  21
ENDBRANCH  19  20
ENDBRANCH  16  19
ENDBRANCH  11  13
ENDBRANCH   1  11
BRANCH   4  26
HETATM   26  C   UNL     1      -5.898  -2.036 -33.951  1.00  0.00    -0.005 A 
HETATM   27  C   UNL     1      -4.591  -1.953 -33.435  1.00  0.00     0.016 A 
HETATM   28  C   UNL     1      -3.706  -3.029 -33.536  1.00  0.00     0.037 A 
HETATM   29  C   UNL     1      -4.120  -4.198 -34.167  1.00  0.00     0.065 A 
HETATM   30  C   UNL     1      -5.398  -4.303 -34.698  1.00  0.00     0.037 A 
HETATM   31  C   UNL     1      -6.281  -3.226 -34.595  1.00  0.00     0.016 A 
BRANCH  29  32
HETATM   32  O   UNL     1      -3.289  -5.270 -34.293  1.00  0.00    -0.361 OA
HETATM   33  H   UNL     1      -3.719  -5.934 -34.857  1.00  0.00     0.217 HD
ENDBRANCH  29  32
ENDBRANCH   4  26
TORSDOF 7
ENDMDL
MODEL 3
REMARK VINA RESULT:      -9.0      4.960      7.159
REMARK  7 active torsions:
REMARK  status: ('A' for Active; 'I' for Inactive)
REMARK       I    between atoms: N_2  and  C_3 
REMARK    1  A    between atoms: C_3  and  C_4 
REMARK    2  A    between atoms: C_4  and  O_5 
REMARK    3  A    between atoms: O_5  and  C_6 
REMARK    4  A    between atoms: C_9  and  N_10 
REMARK    5  A    between atoms: N_10  and  C_11 
REMARK    6  A    between atoms: C_14  and  C_15 
REMARK    7  A    between atoms: C_18  and  O_19 
ROOT
HETATM    1  C   UNL     1      -6.550   2.473 -33.484  1.00  0.00     0.161 A 
HETATM    2  N   UNL     1      -6.611   1.875 -34.690  1.00  0.00    -0.131 NA
HETATM    3  N   UNL     1      -6.399   0.532 -34.833  1.00  0.00    -0.147 NA
HETATM    4  C   UNL     1      -6.152  -0.238 -33.753  1.00  0.00     0.100 A 
HETATM    5  C   UNL     1      -6.139   0.302 -32.453  1.00  0.00     0.009 A 
HETATM    6  C   UNL     1      -6.351   1.697 -32.313  1.00  0.00     0.024 A 
HETATM    7  C   UNL     1      -5.947  -0.479 -31.284  1.00  0.00     0.015 A 
HETATM    8  C   UNL     1      -5.948   0.090 -30.010  1.00  0.00     0.001 A 
HETATM    9  C   UNL     1      -6.157   1.451 -29.869  1.00  0.00     0.001 A 
HETATM   10  C   UNL     1      -6.363   2.241 -31.001  1.00  0.00     0.016 A 
ENDROOT
BRANCH   1  11
HETATM   11  N   UNL     1      -6.771   3.875 -33.367  1.00  0.00    -0.339 N 
HETATM   12  H   UNL     1      -7.598   4.026 -32.796  1.00  0.00     0.167 HD
BRANCH  11  13
HETATM   13  C   UNL     1      -5.847   4.903 -33.061  1.00  0.00     0.033 A 
HETATM   14  C   UNL     1      -6.137   5.736 -31.972  1.00  0.00     0.032 A 
HETATM   15  C   UNL     1      -5.250   6.742 -31.576  1.00  0.00     0.039 A 
HETATM   16  C   UNL     1      -4.044   6.930 -32.251  1.00  0.00     0.069 A 
HETATM   17  C   UNL     1      -3.742   6.106 -33.333  1.00  0.00     0.039 A 
HETATM   18  C   UNL     1      -4.636   5.099 -33.729  1.00  0.00     0.032 A 
BRANCH  16  19
HETATM   19  O   UNL     1      -3.257   7.933 -31.758  1.00  0.00    -0.342 OA
BRANCH  19  20
HETATM   20  C   UNL     1      -2.622   7.690 -30.503  1.00  0.00     0.278 C 
BRANCH  20  21
HETATM   21  C   UNL     1      -1.280   6.982 -30.686  1.00  0.00     0.241 C 
HETATM   22  N   UNL     1      -0.983   6.053 -29.713  1.00  0.00    -0.364 N 
HETATM   23  C   UNL     1       0.187   5.220 -29.788  1.00  0.00     0.149 C 
HETATM   24  H   UNL     1      -1.733   5.814 -29.072  1.00  0.00     0.161 HD
HETATM   25  O   UNL     1      -0.530   7.240 -31.625  1.00  0.00    -0.271 OA
ENDBRANCH  20  21
ENDBRANCH  19  20
ENDBRANCH  16  19
ENDBRANCH  11  13
ENDBRANCH   1  11
BRANCH   4  26
HETATM   26  C   UNL     1      -5.908  -1.651 -34.082  1.00  0.00    -0.005 A 
HETATM   27  C   UNL     1      -6.963  -2.520 -34.420  1.00  0.00     0.016 A 
HETATM   28  C   UNL     1      -6.724  -3.865 -34.714  1.00  0.00     0.037 A 
HETATM   29  C   UNL     1      -5.424  -4.356 -34.661  1.00  0.00     0.065 A 
HETATM   30  C   UNL     1      -4.365  -3.526 -34.317  1.00  0.00     0.037 A 
HETATM   31  C   UNL     1      -4.607  -2.182 -34.024  1.00  0.00     0.016 A 
BRANCH  29  32
HETATM   32  O   UNL     1      -5.145  -5.661 -34.934  1.00  0.00    -0.361 OA
HETATM   33  H   UNL     1      -5.818  -6.219 -34.512  1.00  0.00     0.217 HD
ENDBRANCH  29  32
ENDBRANCH   4  26
TORSDOF 7
ENDMDL
MODEL 4
REMARK VINA RESULT:      -8.9      5.783      8.530
REMARK  7 active torsions:
REMARK  status: ('A' for Active; 'I' for Inactive)
REMARK       I    between atoms: N_2  and  C_3 
REMARK    1  A    between atoms: C_3  and  C_4 
REMARK    2  A    between atoms: C_4  and  O_5 
REMARK    3  A    between atoms: O_5  and  C_6 
REMARK    4  A    between atoms: C_9  and  N_10 
REMARK    5  A    between atoms: N_10  and  C_11 
REMARK    6  A    between atoms: C_14  and  C_15 
REMARK    7  A    between atoms: C_18  and  O_19 
ROOT
HETATM    1  C   UNL     1      -4.942   2.162 -32.688  1.00  0.00     0.161 A 
HETATM    2  N   UNL     1      -3.878   1.347 -32.545  1.00  0.00    -0.131 NA
HETATM    3  N   UNL     1      -3.931   0.032 -32.914  1.00  0.00    -0.147 NA
HETATM    4  C   UNL     1      -5.053  -0.477 -33.466  1.00  0.00     0.100 A 
HETATM    5  C   UNL     1      -6.182   0.329 -33.710  1.00  0.00     0.009 A 
HETATM    6  C   UNL     1      -6.122   1.690 -33.315  1.00  0.00     0.024 A 
HETATM    7  C   UNL     1      -7.358  -0.147 -34.345  1.00  0.00     0.015 A 
HETATM    8  C   UNL     1      -8.456   0.682 -34.576  1.00  0.00     0.001 A 
HETATM    9  C   UNL     1      -8.402   2.012 -34.195  1.00  0.00     0.001 A 
HETATM   10  C   UNL     1      -7.252   2.510 -33.581  1.00  0.00     0.016 A 
ENDROOT
BRANCH   1  11
HETATM   11  N   UNL     1      -4.858   3.527 -32.288  1.00  0.00    -0.339 N 
HETATM   12  H   UNL     1      -5.440   3.660 -31.467  1.00  0.00     0.167 HD
BRANCH  11  13
HETATM   13  C   UNL     1      -3.713   4.345 -32.138  1.00  0.00     0.033 A 
HETATM   14  C   UNL     1      -3.689   5.242 -31.062  1.00  0.00     0.032 A 
HETATM   15  C   UNL     1      -2.573   6.048 -30.817  1.00  0.00     0.039 A 
HETATM   16  C   UNL     1      -1.447   5.966 -31.635  1.00  0.00     0.069 A 
HETATM   17  C   UNL     1      -1.456   5.076 -32.707  1.00  0.00     0.039 A 
HETATM   18  C   UNL     1      -2.578   4.270 -32.950  1.00  0.00     0.032 A 
BRANCH  16  19
HETATM   19  O   UNL     1      -0.416   6.792 -31.282  1.00  0.00    -0.342 OA
BRANCH  19  20
HETATM   20  C   UNL     1       0.512   6.284 -30.324  1.00  0.00     0.278 C 
BRANCH  20  21
HETATM   21  C   UNL     1       0.210   6.814 -28.923  1.00  0.00     0.241 C 
HETATM   22  N   UNL     1      -0.160   5.849 -28.012  1.00  0.00    -0.364 N 
HETATM   23  C   UNL     1      -0.377   6.157 -26.623  1.00  0.00     0.149 C 
HETATM   24  H   UNL     1      -0.045   4.883 -28.303  1.00  0.00     0.161 HD
HETATM   25  O   UNL     1       0.284   8.010 -28.648  1.00  0.00    -0.271 OA
ENDBRANCH  20  21
ENDBRANCH  19  20
ENDBRANCH  16  19
ENDBRANCH  11  13
ENDBRANCH   1  11
BRANCH   4  26
HETATM   26  C   UNL     1      -4.959  -1.913 -33.771  1.00  0.00    -0.005 A 
HETATM   27  C   UNL     1      -3.946  -2.717 -33.214  1.00  0.00     0.016 A 
HETATM   28  C   UNL     1      -3.853  -4.077 -33.523  1.00  0.00     0.037 A 
HETATM   29  C   UNL     1      -4.769  -4.642 -34.404  1.00  0.00     0.065 A 
HETATM   30  C   UNL     1      -5.769  -3.870 -34.979  1.00  0.00     0.037 A 
HETATM   31  C   UNL     1      -5.860  -2.512 -34.668  1.00  0.00     0.016 A 
BRANCH  29  32
HETATM   32  O   UNL     1      -4.713  -5.961 -34.738  1.00  0.00    -0.361 OA
HETATM   33  H   UNL     1      -4.051  -6.398 -34.178  1.00  0.00     0.217 HD
ENDBRANCH  29  32
ENDBRANCH   4  26
TORSDOF 7
ENDMDL
MODEL 5
REMARK VINA RESULT:      -8.7      5.287      8.116
REMARK  7 active torsions:
REMARK  status: ('A' for Active; 'I' for Inactive)
REMARK       I    between atoms: N_2  and  C_3 
REMARK    1  A    between atoms: C_3  and  C_4 
REMARK    2  A    between atoms: C_4  and  O_5 
REMARK    3  A    between atoms: O_5  and  C_6 
REMARK    4  A    between atoms: C_9  and  N_10 
REMARK    5  A    between atoms: N_10  and  C_11 
REMARK    6  A    between atoms: C_14  and  C_15 
REMARK    7  A    between atoms: C_18  and  O_19 
ROOT
HETATM    1  C   UNL     1      -5.747   2.329 -32.594  1.00  0.00     0.161 A 
HETATM    2  N   UNL     1      -4.644   1.566 -32.464  1.00  0.00    -0.131 NA
HETATM    3  N   UNL     1      -4.614   0.272 -32.905  1.00  0.00    -0.147 NA
HETATM    4  C   UNL     1      -5.691  -0.265 -33.516  1.00  0.00     0.100 A 
HETATM    5  C   UNL     1      -6.856   0.491 -33.750  1.00  0.00     0.009 A 
HETATM    6  C   UNL     1      -6.882   1.829 -33.281  1.00  0.00     0.024 A 
HETATM    7  C   UNL     1      -7.987  -0.011 -34.444  1.00  0.00     0.015 A 
HETATM    8  C   UNL     1      -9.122   0.769 -34.663  1.00  0.00     0.001 A 
HETATM    9  C   UNL     1      -9.152   2.077 -34.209  1.00  0.00     0.001 A 
HETATM   10  C   UNL     1      -8.048   2.601 -33.536  1.00  0.00     0.016 A 
ENDROOT
BRANCH   1  11
HETATM   11  N   UNL     1      -5.749   3.673 -32.120  1.00  0.00    -0.339 N 
HETATM   12  H   UNL     1      -6.170   3.689 -31.197  1.00  0.00     0.167 HD
BRANCH  11  13
HETATM   13  C   UNL     1      -4.702   4.625 -32.129  1.00  0.00     0.033 A 
HETATM   14  C   UNL     1      -4.298   5.161 -30.899  1.00  0.00     0.032 A 
HETATM   15  C   UNL     1      -3.237   6.069 -30.820  1.00  0.00     0.039 A 
HETATM   16  C   UNL     1      -2.545   6.451 -31.968  1.00  0.00     0.069 A 
HETATM   17  C   UNL     1      -2.933   5.923 -33.197  1.00  0.00     0.039 A 
HETATM   18  C   UNL     1      -3.999   5.013 -33.273  1.00  0.00     0.032 A 
BRANCH  16  19
HETATM   19  O   UNL     1      -1.519   7.330 -31.757  1.00  0.00    -0.342 OA
BRANCH  19  20
HETATM   20  C   UNL     1      -0.201   6.850 -32.019  1.00  0.00     0.278 C 
BRANCH  20  21
HETATM   21  C   UNL     1       0.295   5.945 -30.891  1.00  0.00     0.241 C 
HETATM   22  N   UNL     1       0.304   6.534 -29.645  1.00  0.00    -0.364 N 
HETATM   23  C   UNL     1       0.640   5.795 -28.457  1.00  0.00     0.149 C 
HETATM   24  H   UNL     1      -0.158   7.434 -29.566  1.00  0.00     0.161 HD
HETATM   25  O   UNL     1       0.665   4.791 -31.095  1.00  0.00    -0.271 OA
ENDBRANCH  20  21
ENDBRANCH  19  20
ENDBRANCH  16  19
ENDBRANCH  11  13
ENDBRANCH   1  11
BRANCH   4  26
HETATM   26  C   UNL     1      -5.510  -1.675 -33.894  1.00  0.00    -0.005 A 
HETATM   27  C   UNL     1      -6.547  -2.414 -34.495  1.00  0.00     0.016 A 
HETATM   28  C   UNL     1      -6.371  -3.759 -34.834  1.00  0.00     0.037 A 
HETATM   29  C   UNL     1      -5.156  -4.379 -34.563  1.00  0.00     0.065 A 
HETATM   30  C   UNL     1      -4.121  -3.679 -33.958  1.00  0.00     0.037 A 
HETATM   31  C   UNL     1      -4.299  -2.336 -33.622  1.00  0.00     0.016 A 
BRANCH  29  32
HETATM   32  O   UNL     1      -4.943  -5.689 -34.871  1.00  0.00    -0.361 OA
HETATM   33  H   UNL     1      -5.428  -5.902 -35.685  1.00  0.00     0.217 HD
ENDBRANCH  29  32
ENDBRANCH   4  26
TORSDOF 7
ENDMDL
MODEL 6
REMARK VINA RESULT:      -8.5      2.267      3.008
REMARK  7 active torsions:
REMARK  status: ('A' for Active; 'I' for Inactive)
REMARK       I    between atoms: N_2  and  C_3 
REMARK    1  A    between atoms: C_3  and  C_4 
REMARK    2  A    between atoms: C_4  and  O_5 
REMARK    3  A    between atoms: O_5  and  C_6 
REMARK    4  A    between atoms: C_9  and  N_10 
REMARK    5  A    between atoms: N_10  and  C_11 
REMARK    6  A    between atoms: C_14  and  C_15 
REMARK    7  A    between atoms: C_18  and  O_19 
ROOT
HETATM    1  C   UNL     1      -7.034   2.133 -33.896  1.00  0.00     0.161 A 
HETATM    2  N   UNL     1      -7.059   1.430 -35.046  1.00  0.00    -0.131 NA
HETATM    3  N   UNL     1      -6.693   0.114 -35.088  1.00  0.00    -0.147 NA
HETATM    4  C   UNL     1      -6.326  -0.528 -33.959  1.00  0.00     0.100 A 
HETATM    5  C   UNL     1      -6.341   0.119 -32.709  1.00  0.00     0.009 A 
HETATM    6  C   UNL     1      -6.712   1.488 -32.675  1.00  0.00     0.024 A 
HETATM    7  C   UNL     1      -6.025  -0.532 -31.488  1.00  0.00     0.015 A 
HETATM    8  C   UNL     1      -6.056   0.140 -30.266  1.00  0.00     0.001 A 
HETATM    9  C   UNL     1      -6.420   1.475 -30.228  1.00  0.00     0.001 A 
HETATM   10  C   UNL     1      -6.750   2.137 -31.412  1.00  0.00     0.016 A 
ENDROOT
BRANCH   1  11
HETATM   11  N   UNL     1      -7.416   3.505 -33.886  1.00  0.00    -0.339 N 
HETATM   12  H   UNL     1      -6.838   4.006 -34.554  1.00  0.00     0.167 HD
BRANCH  11  13
HETATM   13  C   UNL     1      -8.711   4.073 -33.930  1.00  0.00     0.033 A 
HETATM   14  C   UNL     1      -8.812   5.470 -33.888  1.00  0.00     0.032 A 
HETATM   15  C   UNL     1     -10.054   6.107 -33.978  1.00  0.00     0.039 A 
HETATM   16  C   UNL     1     -11.223   5.363 -34.127  1.00  0.00     0.069 A 
HETATM   17  C   UNL     1     -11.137   3.974 -34.175  1.00  0.00     0.039 A 
HETATM   18  C   UNL     1      -9.890   3.337 -34.082  1.00  0.00     0.032 A 
BRANCH  16  19
HETATM   19  O   UNL     1     -12.370   6.102 -34.221  1.00  0.00    -0.342 OA
BRANCH  19  20
HETATM   20  C   UNL     1     -13.161   5.910 -35.393  1.00  0.00     0.278 C 
BRANCH  20  21
HETATM   21  C   UNL     1     -13.105   7.133 -36.308  1.00  0.00     0.241 C 
HETATM   22  N   UNL     1     -13.961   7.082 -37.387  1.00  0.00    -0.364 N 
HETATM   23  C   UNL     1     -14.114   8.192 -38.290  1.00  0.00     0.149 C 
HETATM   24  H   UNL     1     -14.646   6.333 -37.387  1.00  0.00     0.161 HD
HETATM   25  O   UNL     1     -12.344   8.074 -36.093  1.00  0.00    -0.271 OA
ENDBRANCH  20  21
ENDBRANCH  19  20
ENDBRANCH  16  19
ENDBRANCH  11  13
ENDBRANCH   1  11
BRANCH   4  26
HETATM   26  C   UNL     1      -5.927  -1.926 -34.181  1.00  0.00    -0.005 A 
HETATM   27  C   UNL     1      -6.865  -2.908 -34.554  1.00  0.00     0.016 A 
HETATM   28  C   UNL     1      -6.480  -4.238 -34.745  1.00  0.00     0.037 A 
HETATM   29  C   UNL     1      -5.151  -4.599 -34.554  1.00  0.00     0.065 A 
HETATM   30  C   UNL     1      -4.207  -3.655 -34.172  1.00  0.00     0.037 A 
HETATM   31  C   UNL     1      -4.594  -2.327 -33.983  1.00  0.00     0.016 A 
BRANCH  29  32
HETATM   32  O   UNL     1      -4.731  -5.884 -34.724  1.00  0.00    -0.361 OA
HETATM   33  H   UNL     1      -3.964  -5.886 -35.319  1.00  0.00     0.217 HD
ENDBRANCH  29  32
ENDBRANCH   4  26
TORSDOF 7
ENDMDL
MODEL 7
REMARK VINA RESULT:      -8.5      7.059     10.181
REMARK  7 active torsions:
REMARK  status: ('A' for Active; 'I' for Inactive)
REMARK       I    between atoms: N_2  and  C_3 
REMARK    1  A    between atoms: C_3  and  C_4 
REMARK    2  A    between atoms: C_4  and  O_5 
REMARK    3  A    between atoms: O_5  and  C_6 
REMARK    4  A    between atoms: C_9  and  N_10 
REMARK    5  A    between atoms: N_10  and  C_11 
REMARK    6  A    between atoms: C_14  and  C_15 
REMARK    7  A    between atoms: C_18  and  O_19 
ROOT
HETATM    1  C   UNL     1      -2.374   4.926 -31.697  1.00  0.00     0.161 A 
HETATM    2  N   UNL     1      -1.178   4.485 -31.260  1.00  0.00    -0.131 NA
HETATM    3  N   UNL     1      -0.494   5.136 -30.272  1.00  0.00    -0.147 NA
HETATM    4  C   UNL     1      -1.022   6.229 -29.683  1.00  0.00     0.100 A 
HETATM    5  C   UNL     1      -2.297   6.710 -30.037  1.00  0.00     0.009 A 
HETATM    6  C   UNL     1      -2.997   6.035 -31.070  1.00  0.00     0.024 A 
HETATM    7  C   UNL     1      -2.919   7.816 -29.402  1.00  0.00     0.015 A 
HETATM    8  C   UNL     1      -4.187   8.262 -29.775  1.00  0.00     0.001 A 
HETATM    9  C   UNL     1      -4.875   7.604 -30.781  1.00  0.00     0.001 A 
HETATM   10  C   UNL     1      -4.293   6.505 -31.413  1.00  0.00     0.016 A 
ENDROOT
BRANCH   1  11
HETATM   11  N   UNL     1      -3.061   4.229 -32.732  1.00  0.00    -0.339 N 
HETATM   12  H   UNL     1      -2.433   4.124 -33.523  1.00  0.00     0.167 HD
BRANCH  11  13
HETATM   13  C   UNL     1      -3.845   3.053 -32.650  1.00  0.00     0.033 A 
HETATM   14  C   UNL     1      -5.164   3.115 -33.120  1.00  0.00     0.032 A 
HETATM   15  C   UNL     1      -5.985   1.983 -33.119  1.00  0.00     0.039 A 
HETATM   16  C   UNL     1      -5.502   0.757 -32.662  1.00  0.00     0.069 A 
HETATM   17  C   UNL     1      -4.191   0.681 -32.197  1.00  0.00     0.039 A 
HETATM   18  C   UNL     1      -3.371   1.819 -32.197  1.00  0.00     0.032 A 
BRANCH  16  19
HETATM   19  O   UNL     1      -6.394  -0.276 -32.729  1.00  0.00    -0.342 OA
BRANCH  19  20
HETATM   20  C   UNL     1      -6.729  -0.750 -34.032  1.00  0.00     0.278 C 
BRANCH  20  21
HETATM   21  C   UNL     1      -6.060  -2.094 -34.323  1.00  0.00     0.241 C 
HETATM   22  N   UNL     1      -6.934  -3.118 -34.618  1.00  0.00    -0.364 N 
HETATM   23  C   UNL     1      -6.472  -4.420 -35.019  1.00  0.00     0.149 C 
HETATM   24  H   UNL     1      -7.903  -2.857 -34.769  1.00  0.00     0.161 HD
HETATM   25  O   UNL     1      -4.840  -2.238 -34.282  1.00  0.00    -0.271 OA
ENDBRANCH  20  21
ENDBRANCH  19  20
ENDBRANCH  16  19
ENDBRANCH  11  13
ENDBRANCH   1  11
BRANCH   4  26
HETATM   26  C   UNL     1      -0.144   6.832 -28.669  1.00  0.00    -0.005 A 
HETATM   27  C   UNL     1      -0.162   6.398 -27.329  1.00  0.00     0.016 A 
HETATM   28  C   UNL     1       0.662   6.989 -26.368  1.00  0.00     0.037 A 
HETATM   29  C   UNL     1       1.507   8.030 -26.739  1.00  0.00     0.065 A 
HETATM   30  C   UNL     1       1.536   8.488 -28.049  1.00  0.00     0.037 A 
HETATM   31  C   UNL     1       0.711   7.895 -29.007  1.00  0.00     0.016 A 
BRANCH  29  32
HETATM   32  O   UNL     1       2.324   8.639 -25.835  1.00  0.00    -0.361 OA
HETATM   33  H   UNL     1       2.120   8.296 -24.949  1.00  0.00     0.217 HD
ENDBRANCH  29  32
ENDBRANCH   4  26
TORSDOF 7
ENDMDL
MODEL 8
REMARK VINA RESULT:      -8.5     15.325     17.077
REMARK  7 active torsions:
REMARK  status: ('A' for Active; 'I' for Inactive)
REMARK       I    between atoms: N_2  and  C_3 
REMARK    1  A    between atoms: C_3  and  C_4 
REMARK    2  A    between atoms: C_4  and  O_5 
REMARK    3  A    between atoms: O_5  and  C_6 
REMARK    4  A    between atoms: C_9  and  N_10 
REMARK    5  A    between atoms: N_10  and  C_11 
REMARK    6  A    between atoms: C_14  and  C_15 
REMARK    7  A    between atoms: C_18  and  O_19 
ROOT
HETATM    1  C   UNL     1      -4.778 -12.592 -38.558  1.00  0.00     0.161 A 
HETATM    2  N   UNL     1      -4.081 -12.532 -37.406  1.00  0.00    -0.131 NA
HETATM    3  N   UNL     1      -2.868 -13.148 -37.272  1.00  0.00    -0.147 NA
HETATM    4  C   UNL     1      -2.321 -13.811 -38.313  1.00  0.00     0.100 A 
HETATM    5  C   UNL     1      -2.957 -13.860 -39.567  1.00  0.00     0.009 A 
HETATM    6  C   UNL     1      -4.220 -13.227 -39.696  1.00  0.00     0.024 A 
HETATM    7  C   UNL     1      -2.391 -14.490 -40.706  1.00  0.00     0.015 A 
HETATM    8  C   UNL     1      -3.048 -14.514 -41.937  1.00  0.00     0.001 A 
HETATM    9  C   UNL     1      -4.279 -13.895 -42.068  1.00  0.00     0.001 A 
HETATM   10  C   UNL     1      -4.853 -13.255 -40.968  1.00  0.00     0.016 A 
ENDROOT
BRANCH   1  11
HETATM   11  N   UNL     1      -6.042 -11.944 -38.666  1.00  0.00    -0.339 N 
HETATM   12  H   UNL     1      -5.936 -11.125 -39.256  1.00  0.00     0.167 HD
BRANCH  11  13
HETATM   13  C   UNL     1      -7.314 -12.504 -38.936  1.00  0.00     0.033 A 
HETATM   14  C   UNL     1      -7.894 -12.231 -40.181  1.00  0.00     0.032 A 
HETATM   15  C   UNL     1      -9.125 -12.788 -40.543  1.00  0.00     0.039 A 
HETATM   16  C   UNL     1      -9.798 -13.644 -39.672  1.00  0.00     0.069 A 
HETATM   17  C   UNL     1      -9.230 -13.927 -38.432  1.00  0.00     0.039 A 
HETATM   18  C   UNL     1      -7.996 -13.365 -38.072  1.00  0.00     0.032 A 
BRANCH  16  19
HETATM   19  O   UNL     1     -10.982 -14.137 -40.147  1.00  0.00    -0.342 OA
BRANCH  19  20
HETATM   20  C   UNL     1     -10.911 -15.326 -40.932  1.00  0.00     0.278 C 
BRANCH  20  21
HETATM   21  C   UNL     1     -12.083 -15.417 -41.909  1.00  0.00     0.241 C 
HETATM   22  N   UNL     1     -11.855 -16.218 -43.007  1.00  0.00    -0.364 N 
HETATM   23  C   UNL     1     -12.885 -16.500 -43.971  1.00  0.00     0.149 C 
HETATM   24  H   UNL     1     -11.013 -16.786 -42.986  1.00  0.00     0.161 HD
HETATM   25  O   UNL     1     -13.136 -14.810 -41.723  1.00  0.00    -0.271 OA
ENDBRANCH  20  21
ENDBRANCH  19  20
ENDBRANCH  16  19
ENDBRANCH  11  13
ENDBRANCH   1  11
BRANCH   4  26
HETATM   26  C   UNL     1      -1.035 -14.448 -37.992  1.00  0.00    -0.005 A 
HETATM   27  C   UNL     1       0.149 -14.094 -38.667  1.00  0.00     0.016 A 
HETATM   28  C   UNL     1       1.364 -14.718 -38.368  1.00  0.00     0.037 A 
HETATM   29  C   UNL     1       1.401 -15.713 -37.397  1.00  0.00     0.065 A 
HETATM   30  C   UNL     1       0.246 -16.093 -36.726  1.00  0.00     0.037 A 
HETATM   31  C   UNL     1      -0.966 -15.467 -37.026  1.00  0.00     0.016 A 
BRANCH  29  32
HETATM   32  O   UNL     1       2.561 -16.352 -37.078  1.00  0.00    -0.361 OA
HETATM   33  H   UNL     1       2.490 -16.692 -36.171  1.00  0.00     0.217 HD
ENDBRANCH  29  32
ENDBRANCH   4  26
TORSDOF 7
ENDMDL
MODEL 9
REMARK VINA RESULT:      -8.3     15.416     19.133
REMARK  7 active torsions:
REMARK  status: ('A' for Active; 'I' for Inactive)
REMARK       I    between atoms: N_2  and  C_3 
REMARK    1  A    between atoms: C_3  and  C_4 
REMARK    2  A    between atoms: C_4  and  O_5 
REMARK    3  A    between atoms: O_5  and  C_6 
REMARK    4  A    between atoms: C_9  and  N_10 
REMARK    5  A    between atoms: N_10  and  C_11 
REMARK    6  A    between atoms: C_14  and  C_15 
REMARK    7  A    between atoms: C_18  and  O_19 
ROOT
HETATM    1  C   UNL     1      -4.091 -12.848 -39.212  1.00  0.00     0.161 A 
HETATM    2  N   UNL     1      -5.089 -12.512 -38.371  1.00  0.00    -0.131 NA
HETATM    3  N   UNL     1      -6.401 -12.672 -38.719  1.00  0.00    -0.147 NA
HETATM    4  C   UNL     1      -6.729 -13.208 -39.914  1.00  0.00     0.100 A 
HETATM    5  C   UNL     1      -5.743 -13.646 -40.817  1.00  0.00     0.009 A 
HETATM    6  C   UNL     1      -4.384 -13.468 -40.453  1.00  0.00     0.024 A 
HETATM    7  C   UNL     1      -6.040 -14.273 -42.056  1.00  0.00     0.015 A 
HETATM    8  C   UNL     1      -5.036 -14.701 -42.924  1.00  0.00     0.001 A 
HETATM    9  C   UNL     1      -3.708 -14.531 -42.572  1.00  0.00     0.001 A 
HETATM   10  C   UNL     1      -3.387 -13.930 -41.353  1.00  0.00     0.016 A 
ENDROOT
BRANCH   1  11
HETATM   11  N   UNL     1      -2.733 -12.664 -38.823  1.00  0.00    -0.339 N 
HETATM   12  H   UNL     1      -2.641 -11.748 -38.393  1.00  0.00     0.167 HD
BRANCH  11  13
HETATM   13  C   UNL     1      -1.874 -13.550 -38.130  1.00  0.00     0.033 A 
HETATM   14  C   UNL     1      -0.676 -13.920 -38.756  1.00  0.00     0.032 A 
HETATM   15  C   UNL     1       0.248 -14.751 -38.116  1.00  0.00     0.039 A 
HETATM   16  C   UNL     1       0.003 -15.221 -36.826  1.00  0.00     0.069 A 
HETATM   17  C   UNL     1      -1.182 -14.857 -36.189  1.00  0.00     0.039 A 
HETATM   18  C   UNL     1      -2.107 -14.024 -36.836  1.00  0.00     0.032 A 
BRANCH  16  19
HETATM   19  O   UNL     1       0.989 -16.010 -36.302  1.00  0.00    -0.342 OA
BRANCH  19  20
HETATM   20  C   UNL     1       1.011 -16.150 -34.882  1.00  0.00     0.278 C 
BRANCH  20  21
HETATM   21  C   UNL     1       2.408 -16.514 -34.381  1.00  0.00     0.241 C 
HETATM   22  N   UNL     1       2.469 -16.858 -33.048  1.00  0.00    -0.364 N 
HETATM   23  C   UNL     1       3.683 -17.329 -32.438  1.00  0.00     0.149 C 
HETATM   24  H   UNL     1       1.580 -16.991 -32.574  1.00  0.00     0.161 HD
HETATM   25  O   UNL     1       3.393 -16.486 -35.117  1.00  0.00    -0.271 OA
ENDBRANCH  20  21
ENDBRANCH  19  20
ENDBRANCH  16  19
ENDBRANCH  11  13
ENDBRANCH   1  11
BRANCH   4  26
HETATM   26  C   UNL     1      -8.180 -13.276 -40.148  1.00  0.00    -0.005 A 
HETATM   27  C   UNL     1      -8.974 -12.114 -40.185  1.00  0.00     0.016 A 
HETATM   28  C   UNL     1     -10.354 -12.189 -40.390  1.00  0.00     0.037 A 
HETATM   29  C   UNL     1     -10.954 -13.434 -40.549  1.00  0.00     0.065 A 
HETATM   30  C   UNL     1     -10.199 -14.597 -40.503  1.00  0.00     0.037 A 
HETATM   31  C   UNL     1      -8.819 -14.519 -40.299  1.00  0.00     0.016 A 
BRANCH  29  32
HETATM   32  O   UNL     1     -12.297 -13.555 -40.746  1.00  0.00    -0.361 OA
HETATM   33  H   UNL     1     -12.568 -14.454 -40.499  1.00  0.00     0.217 HD
ENDBRANCH  29  32
ENDBRANCH   4  26
TORSDOF 7
ENDMDL
MODEL 10
REMARK VINA RESULT:      -8.2      1.626      2.065
REMARK  7 active torsions:
REMARK  status: ('A' for Active; 'I' for Inactive)
REMARK       I    between atoms: N_2  and  C_3 
REMARK    1  A    between atoms: C_3  and  C_4 
REMARK    2  A    between atoms: C_4  and  O_5 
REMARK    3  A    between atoms: O_5  and  C_6 
REMARK    4  A    between atoms: C_9  and  N_10 
REMARK    5  A    between atoms: N_10  and  C_11 
REMARK    6  A    between atoms: C_14  and  C_15 
REMARK    7  A    between atoms: C_18  and  O_19 
ROOT
HETATM    1  C   UNL     1      -7.101   2.130 -33.864  1.00  0.00     0.161 A 
HETATM    2  N   UNL     1      -7.125   1.410 -35.003  1.00  0.00    -0.131 NA
HETATM    3  N   UNL     1      -6.736   0.100 -35.030  1.00  0.00    -0.147 NA
HETATM    4  C   UNL     1      -6.345  -0.518 -33.895  1.00  0.00     0.100 A 
HETATM    5  C   UNL     1      -6.358   0.148 -32.655  1.00  0.00     0.009 A 
HETATM    6  C   UNL     1      -6.754   1.509 -32.637  1.00  0.00     0.024 A 
HETATM    7  C   UNL     1      -6.016  -0.479 -31.428  1.00  0.00     0.015 A 
HETATM    8  C   UNL     1      -6.047   0.210 -30.216  1.00  0.00     0.001 A 
HETATM    9  C   UNL     1      -6.435   1.539 -30.194  1.00  0.00     0.001 A 
HETATM   10  C   UNL     1      -6.790   2.176 -31.383  1.00  0.00     0.016 A 
ENDROOT
BRANCH   1  11
HETATM   11  N   UNL     1      -7.508   3.495 -33.870  1.00  0.00    -0.339 N 
HETATM   12  H   UNL     1      -6.958   3.993 -34.563  1.00  0.00     0.167 HD
BRANCH  11  13
HETATM   13  C   UNL     1      -8.815   4.038 -33.889  1.00  0.00     0.033 A 
HETATM   14  C   UNL     1      -8.950   5.400 -34.188  1.00  0.00     0.032 A 
HETATM   15  C   UNL     1     -10.210   5.999 -34.276  1.00  0.00     0.039 A 
HETATM   16  C   UNL     1     -11.368   5.247 -34.082  1.00  0.00     0.069 A 
HETATM   17  C   UNL     1     -11.248   3.890 -33.788  1.00  0.00     0.039 A 
HETATM   18  C   UNL     1      -9.981   3.293 -33.699  1.00  0.00     0.032 A 
BRANCH  16  19
HETATM   19  O   UNL     1     -12.537   5.942 -34.211  1.00  0.00    -0.342 OA
BRANCH  19  20
HETATM   20  C   UNL     1     -13.130   6.428 -33.007  1.00  0.00     0.278 C 
BRANCH  20  21
HETATM   21  C   UNL     1     -14.596   6.008 -32.900  1.00  0.00     0.241 C 
HETATM   22  N   UNL     1     -14.807   4.834 -32.211  1.00  0.00    -0.364 N 
HETATM   23  C   UNL     1     -16.131   4.347 -31.924  1.00  0.00     0.149 C 
HETATM   24  H   UNL     1     -14.010   4.451 -31.712  1.00  0.00     0.161 HD
HETATM   25  O   UNL     1     -15.502   6.668 -33.404  1.00  0.00    -0.271 OA
ENDBRANCH  20  21
ENDBRANCH  19  20
ENDBRANCH  16  19
ENDBRANCH  11  13
ENDBRANCH   1  11
BRANCH   4  26
HETATM   26  C   UNL     1      -5.922  -1.912 -34.102  1.00  0.00    -0.005 A 
HETATM   27  C   UNL     1      -4.585  -2.310 -33.909  1.00  0.00     0.016 A 
HETATM   28  C   UNL     1      -4.189  -3.633 -34.125  1.00  0.00     0.037 A 
HETATM   29  C   UNL     1      -5.128  -4.568 -34.549  1.00  0.00     0.065 A 
HETATM   30  C   UNL     1      -6.450  -4.200 -34.761  1.00  0.00     0.037 A 
HETATM   31  C   UNL     1      -6.843  -2.878 -34.543  1.00  0.00     0.016 A 
BRANCH  29  32
HETATM   32  O   UNL     1      -4.785  -5.866 -34.777  1.00  0.00    -0.361 OA
HETATM   33  H   UNL     1      -5.009  -6.092 -35.695  1.00  0.00     0.217 HD
ENDBRANCH  29  32
ENDBRANCH   4  26
TORSDOF 7
ENDMDL
