MODEL 1
REMARK VINA RESULT:      -8.9      0.000      0.000
REMARK  3 active torsions:
REMARK  status: ('A' for Active; 'I' for Inactive)
REMARK    1  A    between atoms: C_2  and  C_3 
REMARK    2  A    between atoms: C_10  and  O_11 
REMARK    3  A    between atoms: C_10  and  C_12 
ROOT
HETATM    1  C   UNL     1      -4.510  -3.819 -33.796  1.00  0.00    -0.058 A 
HETATM    2  C   UNL     1      -4.803  -2.446 -33.765  1.00  0.00     0.020 A 
HETATM    3  C   UNL     1      -4.133  -1.642 -32.853  1.00  0.00     0.018 A 
HETATM    4  C   UNL     1      -3.173  -2.191 -32.004  1.00  0.00     0.045 A 
HETATM    5  N   UNL     1      -2.621  -1.209 -31.196  1.00  0.00    -0.323 N 
HETATM    6  C   UNL     1      -3.189   0.042 -31.451  1.00  0.00     0.266 A 
HETATM    7  O   UNL     1      -2.859   1.071 -30.880  1.00  0.00    -0.269 OA
HETATM    8  C   UNL     1      -4.237  -0.150 -32.608  1.00  0.00     0.199 A 
HETATM    9  C   UNL     1      -2.859  -3.533 -32.009  1.00  0.00     0.031 A 
HETATM   10  C   UNL     1      -3.543  -4.350 -32.913  1.00  0.00     0.009 A 
HETATM   11  H   UNL     1      -1.909  -1.348 -30.496  1.00  0.00     0.169 HD
ENDROOT
BRANCH   8  12
HETATM   12  O   UNL     1      -3.823   0.553 -33.775  1.00  0.00    -0.371 OA
HETATM   13  H   UNL     1      -2.949   0.927 -33.576  1.00  0.00     0.212 HD
ENDBRANCH   8  12
BRANCH   8  14
HETATM   14  C   UNL     1      -5.671   0.114 -32.197  1.00  0.00     0.025 A 
HETATM   15  C   UNL     1      -6.789   0.297 -33.100  1.00  0.00     0.003 A 
HETATM   16  C   UNL     1      -7.937   0.471 -32.331  1.00  0.00     0.043 A 
HETATM   17  C   UNL     1      -6.934   0.315 -34.506  1.00  0.00     0.014 A 
HETATM   18  C   UNL     1      -9.211   0.658 -32.884  1.00  0.00     0.030 A 
HETATM   19  N   UNL     1      -7.553   0.421 -31.016  1.00  0.00    -0.359 N 
HETATM   20  C   UNL     1      -9.320   0.668 -34.276  1.00  0.00     0.002 A 
HETATM   21  C   UNL     1      -8.198   0.501 -35.079  1.00  0.00     0.001 A 
HETATM   22  H   UNL     1      -8.188   0.526 -30.238  1.00  0.00     0.166 HD
HETATM   23  C   UNL     1      -6.205   0.190 -30.908  1.00  0.00     0.016 A 
HETATM   24  C   UNL     1      -5.580   0.061 -29.563  1.00  0.00     0.069 C 
ENDBRANCH   8  14
BRANCH   1  25
HETATM   25  C   UNL     1      -5.255  -4.725 -34.746  1.00  0.00     0.034 C 
HETATM   26  C   UNL     1      -6.681  -4.250 -34.977  1.00  0.00     0.010 C 
ENDBRANCH   1  25
TORSDOF 3
ENDMDL
MODEL 2
REMARK VINA RESULT:      -8.1      3.110      5.552
REMARK  3 active torsions:
REMARK  status: ('A' for Active; 'I' for Inactive)
REMARK    1  A    between atoms: C_2  and  C_3 
REMARK    2  A    between atoms: C_10  and  O_11 
REMARK    3  A    between atoms: C_10  and  C_12 
ROOT
HETATM    1  C   UNL     1      -4.144   4.163 -33.523  1.00  0.00    -0.058 A 
HETATM    2  C   UNL     1      -5.311   3.398 -33.377  1.00  0.00     0.020 A 
HETATM    3  C   UNL     1      -5.396   2.506 -32.317  1.00  0.00     0.018 A 
HETATM    4  C   UNL     1      -4.346   2.393 -31.408  1.00  0.00     0.045 A 
HETATM    5  N   UNL     1      -4.651   1.463 -30.426  1.00  0.00    -0.323 N 
HETATM    6  C   UNL     1      -5.910   0.895 -30.634  1.00  0.00     0.266 A 
HETATM    7  O   UNL     1      -6.413   0.060 -29.896  1.00  0.00    -0.269 OA
HETATM    8  C   UNL     1      -6.521   1.574 -31.914  1.00  0.00     0.199 A 
HETATM    9  C   UNL     1      -3.186   3.130 -31.519  1.00  0.00     0.031 A 
HETATM   10  C   UNL     1      -3.088   4.018 -32.594  1.00  0.00     0.009 A 
HETATM   11  H   UNL     1      -4.056   1.196 -29.656  1.00  0.00     0.169 HD
ENDROOT
BRANCH   8  12
HETATM   12  O   UNL     1      -7.671   2.340 -31.568  1.00  0.00    -0.371 OA
HETATM   13  H   UNL     1      -7.536   2.643 -30.656  1.00  0.00     0.212 HD
ENDBRANCH   8  12
BRANCH   8  14
HETATM   14  C   UNL     1      -6.729   0.629 -33.079  1.00  0.00     0.025 A 
HETATM   15  C   UNL     1      -5.903  -0.518 -33.396  1.00  0.00     0.003 A 
HETATM   16  C   UNL     1      -6.451  -1.147 -34.512  1.00  0.00     0.043 A 
HETATM   17  C   UNL     1      -4.742  -1.090 -32.826  1.00  0.00     0.014 A 
HETATM   18  C   UNL     1      -5.911  -2.307 -35.082  1.00  0.00     0.030 A 
HETATM   19  N   UNL     1      -7.551  -0.419 -34.884  1.00  0.00    -0.359 N 
HETATM   20  C   UNL     1      -4.766  -2.849 -34.493  1.00  0.00     0.002 A 
HETATM   21  C   UNL     1      -4.186  -2.249 -33.381  1.00  0.00     0.001 A 
HETATM   22  H   UNL     1      -8.138  -0.648 -35.673  1.00  0.00     0.166 HD
HETATM   23  C   UNL     1      -7.751   0.638 -34.033  1.00  0.00     0.016 A 
HETATM   24  C   UNL     1      -8.917   1.542 -34.233  1.00  0.00     0.069 C 
ENDBRANCH   8  14
BRANCH   1  25
HETATM   25  C   UNL     1      -4.005   5.110 -34.691  1.00  0.00     0.034 C 
HETATM   26  C   UNL     1      -2.681   5.857 -34.657  1.00  0.00     0.010 C 
ENDBRANCH   1  25
TORSDOF 3
ENDMDL
MODEL 3
REMARK VINA RESULT:      -8.0      3.657      5.571
REMARK  3 active torsions:
REMARK  status: ('A' for Active; 'I' for Inactive)
REMARK    1  A    between atoms: C_2  and  C_3 
REMARK    2  A    between atoms: C_10  and  O_11 
REMARK    3  A    between atoms: C_10  and  C_12 
ROOT
HETATM    1  C   UNL     1      -7.300  -0.207 -33.754  1.00  0.00    -0.058 A 
HETATM    2  C   UNL     1      -6.480   0.791 -33.205  1.00  0.00     0.020 A 
HETATM    3  C   UNL     1      -6.979   1.571 -32.171  1.00  0.00     0.018 A 
HETATM    4  C   UNL     1      -8.264   1.347 -31.679  1.00  0.00     0.045 A 
HETATM    5  N   UNL     1      -8.547   2.223 -30.643  1.00  0.00    -0.323 N 
HETATM    6  C   UNL     1      -7.477   3.085 -30.396  1.00  0.00     0.266 A 
HETATM    7  O   UNL     1      -7.475   3.938 -29.521  1.00  0.00    -0.269 OA
HETATM    8  C   UNL     1      -6.325   2.695 -31.393  1.00  0.00     0.199 A 
HETATM    9  C   UNL     1      -9.096   0.375 -32.193  1.00  0.00     0.031 A 
HETATM   10  C   UNL     1      -8.605  -0.402 -33.246  1.00  0.00     0.009 A 
HETATM   11  H   UNL     1      -9.410   2.268 -30.123  1.00  0.00     0.169 HD
ENDROOT
BRANCH   8  12
HETATM   12  O   UNL     1      -5.202   2.187 -30.680  1.00  0.00    -0.371 OA
HETATM   13  H   UNL     1      -5.512   1.990 -29.782  1.00  0.00     0.212 HD
ENDBRANCH   8  12
BRANCH   8  14
HETATM   14  C   UNL     1      -5.987   3.771 -32.404  1.00  0.00     0.025 A 
HETATM   15  C   UNL     1      -4.661   4.080 -32.899  1.00  0.00     0.003 A 
HETATM   16  C   UNL     1      -4.782   5.098 -33.843  1.00  0.00     0.043 A 
HETATM   17  C   UNL     1      -3.366   3.577 -32.641  1.00  0.00     0.014 A 
HETATM   18  C   UNL     1      -3.690   5.633 -34.539  1.00  0.00     0.030 A 
HETATM   19  N   UNL     1      -6.111   5.421 -33.918  1.00  0.00    -0.359 N 
HETATM   20  C   UNL     1      -2.424   5.112 -34.263  1.00  0.00     0.002 A 
HETATM   21  C   UNL     1      -2.261   4.098 -33.326  1.00  0.00     0.001 A 
HETATM   22  H   UNL     1      -6.484   6.139 -34.523  1.00  0.00     0.166 HD
HETATM   23  C   UNL     1      -6.857   4.630 -33.082  1.00  0.00     0.016 A 
HETATM   24  C   UNL     1      -8.337   4.789 -33.033  1.00  0.00     0.069 C 
ENDBRANCH   8  14
BRANCH   1  25
HETATM   25  C   UNL     1      -6.800  -1.041 -34.908  1.00  0.00     0.034 C 
HETATM   26  C   UNL     1      -6.742  -2.519 -34.552  1.00  0.00     0.010 C 
ENDBRANCH   1  25
TORSDOF 3
ENDMDL
MODEL 4
REMARK VINA RESULT:      -8.0      3.169      4.784
REMARK  3 active torsions:
REMARK  status: ('A' for Active; 'I' for Inactive)
REMARK    1  A    between atoms: C_2  and  C_3 
REMARK    2  A    between atoms: C_10  and  O_11 
REMARK    3  A    between atoms: C_10  and  C_12 
ROOT
HETATM    1  C   UNL     1      -6.248  -1.477 -34.204  1.00  0.00    -0.058 A 
HETATM    2  C   UNL     1      -6.285  -0.644 -33.075  1.00  0.00     0.020 A 
HETATM    3  C   UNL     1      -7.102   0.478 -33.101  1.00  0.00     0.018 A 
HETATM    4  C   UNL     1      -7.883   0.753 -34.222  1.00  0.00     0.045 A 
HETATM    5  N   UNL     1      -8.630   1.904 -34.024  1.00  0.00    -0.323 N 
HETATM    6  C   UNL     1      -8.379   2.466 -32.771  1.00  0.00     0.266 A 
HETATM    7  O   UNL     1      -8.927   3.476 -32.353  1.00  0.00    -0.269 OA
HETATM    8  C   UNL     1      -7.346   1.533 -32.040  1.00  0.00     0.199 A 
HETATM    9  C   UNL     1      -7.873  -0.044 -35.347  1.00  0.00     0.031 A 
HETATM   10  C   UNL     1      -7.039  -1.166 -35.333  1.00  0.00     0.009 A 
HETATM   11  H   UNL     1      -9.271   2.317 -34.685  1.00  0.00     0.169 HD
ENDROOT
BRANCH   8  12
HETATM   12  O   UNL     1      -7.944   0.927 -30.898  1.00  0.00    -0.371 OA
HETATM   13  H   UNL     1      -8.824   0.624 -31.177  1.00  0.00     0.212 HD
ENDBRANCH   8  12
BRANCH   8  14
HETATM   14  C   UNL     1      -6.004   2.182 -31.770  1.00  0.00     0.025 A 
HETATM   15  C   UNL     1      -5.372   3.192 -32.595  1.00  0.00     0.003 A 
HETATM   16  C   UNL     1      -4.176   3.558 -31.983  1.00  0.00     0.043 A 
HETATM   17  C   UNL     1      -5.715   3.841 -33.803  1.00  0.00     0.014 A 
HETATM   18  C   UNL     1      -3.313   4.531 -32.504  1.00  0.00     0.030 A 
HETATM   19  N   UNL     1      -4.057   2.802 -30.846  1.00  0.00    -0.359 N 
HETATM   20  C   UNL     1      -3.682   5.156 -33.698  1.00  0.00     0.002 A 
HETATM   21  C   UNL     1      -4.866   4.816 -34.342  1.00  0.00     0.001 A 
HETATM   22  H   UNL     1      -3.275   2.859 -30.210  1.00  0.00     0.166 HD
HETATM   23  C   UNL     1      -5.146   1.984 -30.685  1.00  0.00     0.016 A 
HETATM   24  C   UNL     1      -5.241   1.100 -29.491  1.00  0.00     0.069 C 
ENDBRANCH   8  14
BRANCH   1  25
HETATM   25  C   UNL     1      -5.336  -2.680 -34.221  1.00  0.00     0.034 C 
HETATM   26  C   UNL     1      -5.958  -3.848 -34.971  1.00  0.00     0.010 C 
ENDBRANCH   1  25
TORSDOF 3
ENDMDL
MODEL 5
REMARK VINA RESULT:      -7.9      2.238      2.781
REMARK  3 active torsions:
REMARK  status: ('A' for Active; 'I' for Inactive)
REMARK    1  A    between atoms: C_2  and  C_3 
REMARK    2  A    between atoms: C_10  and  O_11 
REMARK    3  A    between atoms: C_10  and  C_12 
ROOT
HETATM    1  C   UNL     1      -5.898  -1.557 -33.987  1.00  0.00    -0.058 A 
HETATM    2  C   UNL     1      -6.294  -0.218 -33.844  1.00  0.00     0.020 A 
HETATM    3  C   UNL     1      -5.422   0.674 -33.235  1.00  0.00     0.018 A 
HETATM    4  C   UNL     1      -4.170   0.245 -32.797  1.00  0.00     0.045 A 
HETATM    5  N   UNL     1      -3.463   1.299 -32.240  1.00  0.00    -0.323 N 
HETATM    6  C   UNL     1      -4.206   2.482 -32.263  1.00  0.00     0.266 A 
HETATM    7  O   UNL     1      -3.795   3.555 -31.846  1.00  0.00    -0.269 OA
HETATM    8  C   UNL     1      -5.577   2.157 -32.960  1.00  0.00     0.199 A 
HETATM    9  C   UNL     1      -3.748  -1.061 -32.923  1.00  0.00     0.031 A 
HETATM   10  C   UNL     1      -4.629  -1.967 -33.520  1.00  0.00     0.009 A 
HETATM   11  H   UNL     1      -2.535   1.249 -31.847  1.00  0.00     0.169 HD
ENDROOT
BRANCH   8  12
HETATM   12  O   UNL     1      -5.687   2.859 -34.194  1.00  0.00    -0.371 OA
HETATM   13  H   UNL     1      -6.318   2.361 -34.739  1.00  0.00     0.212 HD
ENDBRANCH   8  12
BRANCH   8  14
HETATM   14  C   UNL     1      -6.783   2.297 -32.054  1.00  0.00     0.025 A 
HETATM   15  C   UNL     1      -8.055   2.884 -32.424  1.00  0.00     0.003 A 
HETATM   16  C   UNL     1      -8.909   2.783 -31.328  1.00  0.00     0.043 A 
HETATM   17  C   UNL     1      -8.566   3.480 -33.599  1.00  0.00     0.014 A 
HETATM   18  C   UNL     1     -10.234   3.238 -31.342  1.00  0.00     0.030 A 
HETATM   19  N   UNL     1      -8.200   2.183 -30.320  1.00  0.00    -0.359 N 
HETATM   20  C   UNL     1     -10.709   3.820 -32.520  1.00  0.00     0.002 A 
HETATM   21  C   UNL     1      -9.887   3.943 -33.634  1.00  0.00     0.001 A 
HETATM   22  H   UNL     1      -8.577   1.992 -29.402  1.00  0.00     0.166 HD
HETATM   23  C   UNL     1      -6.932   1.866 -30.733  1.00  0.00     0.016 A 
HETATM   24  C   UNL     1      -6.000   1.171 -29.803  1.00  0.00     0.069 C 
ENDBRANCH   8  14
BRANCH   1  25
HETATM   25  C   UNL     1      -6.843  -2.559 -34.606  1.00  0.00     0.034 C 
HETATM   26  C   UNL     1      -6.120  -3.828 -35.030  1.00  0.00     0.010 C 
ENDBRANCH   1  25
TORSDOF 3
ENDMDL
MODEL 6
REMARK VINA RESULT:      -7.8      3.507      5.235
REMARK  3 active torsions:
REMARK  status: ('A' for Active; 'I' for Inactive)
REMARK    1  A    between atoms: C_2  and  C_3 
REMARK    2  A    between atoms: C_10  and  O_11 
REMARK    3  A    between atoms: C_10  and  C_12 
ROOT
HETATM    1  C   UNL     1      -5.661  -0.638 -32.763  1.00  0.00    -0.058 A 
HETATM    2  C   UNL     1      -6.670   0.182 -32.232  1.00  0.00     0.020 A 
HETATM    3  C   UNL     1      -7.690   0.611 -33.070  1.00  0.00     0.018 A 
HETATM    4  C   UNL     1      -7.717   0.212 -34.406  1.00  0.00     0.045 A 
HETATM    5  N   UNL     1      -8.827   0.738 -35.048  1.00  0.00    -0.323 N 
HETATM    6  C   UNL     1      -9.592   1.525 -34.183  1.00  0.00     0.266 A 
HETATM    7  O   UNL     1     -10.629   2.085 -34.507  1.00  0.00    -0.269 OA
HETATM    8  C   UNL     1      -8.897   1.479 -32.774  1.00  0.00     0.199 A 
HETATM    9  C   UNL     1      -6.745  -0.594 -34.959  1.00  0.00     0.031 A 
HETATM   10  C   UNL     1      -5.706  -1.014 -34.124  1.00  0.00     0.009 A 
HETATM   11  H   UNL     1      -9.073   0.602 -36.016  1.00  0.00     0.169 HD
ENDROOT
BRANCH   8  12
HETATM   12  O   UNL     1      -9.733   0.821 -31.827  1.00  0.00    -0.371 OA
HETATM   13  H   UNL     1      -9.485  -0.117 -31.847  1.00  0.00     0.212 HD
ENDBRANCH   8  12
BRANCH   8  14
HETATM   14  C   UNL     1      -8.354   2.814 -32.305  1.00  0.00     0.025 A 
HETATM   15  C   UNL     1      -7.258   3.541 -32.911  1.00  0.00     0.003 A 
HETATM   16  C   UNL     1      -7.099   4.736 -32.214  1.00  0.00     0.043 A 
HETATM   17  C   UNL     1      -6.392   3.299 -34.002  1.00  0.00     0.014 A 
HETATM   18  C   UNL     1      -6.133   5.696 -32.546  1.00  0.00     0.030 A 
HETATM   19  N   UNL     1      -8.033   4.745 -31.212  1.00  0.00    -0.359 N 
HETATM   20  C   UNL     1      -5.295   5.428 -33.630  1.00  0.00     0.002 A 
HETATM   21  C   UNL     1      -5.420   4.245 -34.350  1.00  0.00     0.001 A 
HETATM   22  H   UNL     1      -8.138   5.496 -30.545  1.00  0.00     0.166 HD
HETATM   23  C   UNL     1      -8.810   3.616 -31.255  1.00  0.00     0.016 A 
HETATM   24  C   UNL     1      -9.916   3.437 -30.275  1.00  0.00     0.069 C 
ENDBRANCH   8  14
BRANCH   1  25
HETATM   25  C   UNL     1      -4.515  -1.083 -31.886  1.00  0.00     0.034 C 
HETATM   26  C   UNL     1      -3.672  -2.154 -32.562  1.00  0.00     0.010 C 
ENDBRANCH   1  25
TORSDOF 3
ENDMDL
MODEL 7
REMARK VINA RESULT:      -7.8      3.484      6.132
REMARK  3 active torsions:
REMARK  status: ('A' for Active; 'I' for Inactive)
REMARK    1  A    between atoms: C_2  and  C_3 
REMARK    2  A    between atoms: C_10  and  O_11 
REMARK    3  A    between atoms: C_10  and  C_12 
ROOT
HETATM    1  C   UNL     1      -4.912   4.866 -34.261  1.00  0.00    -0.058 A 
HETATM    2  C   UNL     1      -5.433   3.563 -34.261  1.00  0.00     0.020 A 
HETATM    3  C   UNL     1      -6.403   3.232 -33.325  1.00  0.00     0.018 A 
HETATM    4  C   UNL     1      -6.860   4.188 -32.419  1.00  0.00     0.045 A 
HETATM    5  N   UNL     1      -7.835   3.649 -31.594  1.00  0.00    -0.323 N 
HETATM    6  C   UNL     1      -8.072   2.306 -31.893  1.00  0.00     0.266 A 
HETATM    7  O   UNL     1      -8.898   1.613 -31.317  1.00  0.00    -0.269 OA
HETATM    8  C   UNL     1      -7.141   1.927 -33.102  1.00  0.00     0.199 A 
HETATM    9  C   UNL     1      -6.372   5.477 -32.392  1.00  0.00     0.031 A 
HETATM   10  C   UNL     1      -5.383   5.810 -33.322  1.00  0.00     0.009 A 
HETATM   11  H   UNL     1      -8.320   4.134 -30.854  1.00  0.00     0.169 HD
ENDROOT
BRANCH   8  12
HETATM   12  O   UNL     1      -7.920   1.620 -34.253  1.00  0.00    -0.371 OA
HETATM   13  H   UNL     1      -7.316   1.210 -34.893  1.00  0.00     0.212 HD
ENDBRANCH   8  12
BRANCH   8  14
HETATM   14  C   UNL     1      -6.083   0.893 -32.772  1.00  0.00     0.025 A 
HETATM   15  C   UNL     1      -5.875  -0.357 -33.473  1.00  0.00     0.003 A 
HETATM   16  C   UNL     1      -4.783  -0.999 -32.892  1.00  0.00     0.043 A 
HETATM   17  C   UNL     1      -6.508  -0.999 -34.563  1.00  0.00     0.014 A 
HETATM   18  C   UNL     1      -4.291  -2.233 -33.338  1.00  0.00     0.030 A 
HETATM   19  N   UNL     1      -4.346  -0.200 -31.869  1.00  0.00    -0.359 N 
HETATM   20  C   UNL     1      -4.937  -2.839 -34.418  1.00  0.00     0.002 A 
HETATM   21  C   UNL     1      -6.032  -2.233 -35.023  1.00  0.00     0.001 A 
HETATM   22  H   UNL     1      -3.565  -0.428 -31.270  1.00  0.00     0.166 HD
HETATM   23  C   UNL     1      -5.094   0.946 -31.786  1.00  0.00     0.016 A 
HETATM   24  C   UNL     1      -4.765   1.976 -30.762  1.00  0.00     0.069 C 
ENDBRANCH   8  14
BRANCH   1  25
HETATM   25  C   UNL     1      -3.825   5.241 -35.239  1.00  0.00     0.034 C 
HETATM   26  C   UNL     1      -2.440   5.085 -34.629  1.00  0.00     0.010 C 
ENDBRANCH   1  25
TORSDOF 3
ENDMDL
MODEL 8
REMARK VINA RESULT:      -7.7      5.408      7.765
REMARK  3 active torsions:
REMARK  status: ('A' for Active; 'I' for Inactive)
REMARK    1  A    between atoms: C_2  and  C_3 
REMARK    2  A    between atoms: C_10  and  O_11 
REMARK    3  A    between atoms: C_10  and  C_12 
ROOT
HETATM    1  C   UNL     1      -0.063   5.641 -30.576  1.00  0.00    -0.058 A 
HETATM    2  C   UNL     1      -1.045   4.788 -31.105  1.00  0.00     0.020 A 
HETATM    3  C   UNL     1      -1.805   5.231 -32.179  1.00  0.00     0.018 A 
HETATM    4  C   UNL     1      -1.578   6.492 -32.729  1.00  0.00     0.045 A 
HETATM    5  N   UNL     1      -2.433   6.718 -33.796  1.00  0.00    -0.323 N 
HETATM    6  C   UNL     1      -3.284   5.630 -34.008  1.00  0.00     0.266 A 
HETATM    7  O   UNL     1      -4.118   5.580 -34.900  1.00  0.00    -0.269 OA
HETATM    8  C   UNL     1      -2.909   4.532 -32.947  1.00  0.00     0.199 A 
HETATM    9  C   UNL     1      -0.622   7.354 -32.236  1.00  0.00     0.031 A 
HETATM   10  C   UNL     1       0.135   6.920 -31.144  1.00  0.00     0.009 A 
HETATM   11  H   UNL     1      -2.471   7.554 -34.359  1.00  0.00     0.169 HD
ENDROOT
BRANCH   8  12
HETATM   12  O   UNL     1      -2.380   3.378 -33.592  1.00  0.00    -0.371 OA
HETATM   13  H   UNL     1      -1.786   3.701 -34.290  1.00  0.00     0.212 HD
ENDBRANCH   8  12
BRANCH   8  14
HETATM   14  C   UNL     1      -4.005   4.237 -31.943  1.00  0.00     0.025 A 
HETATM   15  C   UNL     1      -4.369   2.925 -31.450  1.00  0.00     0.003 A 
HETATM   16  C   UNL     1      -5.388   3.086 -30.514  1.00  0.00     0.043 A 
HETATM   17  C   UNL     1      -3.914   1.611 -31.704  1.00  0.00     0.014 A 
HETATM   18  C   UNL     1      -5.970   2.017 -29.821  1.00  0.00     0.030 A 
HETATM   19  N   UNL     1      -5.659   4.427 -30.442  1.00  0.00    -0.359 N 
HETATM   20  C   UNL     1      -5.497   0.731 -30.092  1.00  0.00     0.002 A 
HETATM   21  C   UNL     1      -4.484   0.528 -31.022  1.00  0.00     0.001 A 
HETATM   22  H   UNL     1      -6.366   4.828 -29.842  1.00  0.00     0.166 HD
HETATM   23  C   UNL     1      -4.834   5.141 -31.273  1.00  0.00     0.016 A 
HETATM   24  C   UNL     1      -4.934   6.625 -31.323  1.00  0.00     0.069 C 
ENDBRANCH   8  14
BRANCH   1  25
HETATM   25  C   UNL     1       0.749   5.204 -29.381  1.00  0.00     0.034 C 
HETATM   26  C   UNL     1       0.467   6.069 -28.162  1.00  0.00     0.010 C 
ENDBRANCH   1  25
TORSDOF 3
ENDMDL
MODEL 9
REMARK VINA RESULT:      -7.6      3.292      5.293
REMARK  3 active torsions:
REMARK  status: ('A' for Active; 'I' for Inactive)
REMARK    1  A    between atoms: C_2  and  C_3 
REMARK    2  A    between atoms: C_10  and  O_11 
REMARK    3  A    between atoms: C_10  and  C_12 
ROOT
HETATM    1  C   UNL     1      -7.847  -0.574 -33.120  1.00  0.00    -0.058 A 
HETATM    2  C   UNL     1      -6.885  -0.046 -32.245  1.00  0.00     0.020 A 
HETATM    3  C   UNL     1      -7.223   1.053 -31.466  1.00  0.00     0.018 A 
HETATM    4  C   UNL     1      -8.503   1.601 -31.541  1.00  0.00     0.045 A 
HETATM    5  N   UNL     1      -8.625   2.671 -30.669  1.00  0.00    -0.323 N 
HETATM    6  C   UNL     1      -7.435   2.904 -29.976  1.00  0.00     0.266 A 
HETATM    7  O   UNL     1      -7.294   3.781 -29.137  1.00  0.00    -0.269 OA
HETATM    8  C   UNL     1      -6.403   1.813 -30.442  1.00  0.00     0.199 A 
HETATM    9  C   UNL     1      -9.472   1.107 -32.388  1.00  0.00     0.031 A 
HETATM   10  C   UNL     1      -9.132   0.012 -33.187  1.00  0.00     0.009 A 
HETATM   11  H   UNL     1      -9.448   3.238 -30.537  1.00  0.00     0.169 HD
ENDROOT
BRANCH   8  12
HETATM   12  O   UNL     1      -6.073   0.946 -29.361  1.00  0.00    -0.371 OA
HETATM   13  H   UNL     1      -5.103   0.933 -29.306  1.00  0.00     0.212 HD
ENDBRANCH   8  12
BRANCH   8  14
HETATM   14  C   UNL     1      -5.205   2.368 -31.185  1.00  0.00     0.025 A 
HETATM   15  C   UNL     1      -5.141   3.656 -31.844  1.00  0.00     0.003 A 
HETATM   16  C   UNL     1      -3.859   3.806 -32.368  1.00  0.00     0.043 A 
HETATM   17  C   UNL     1      -6.054   4.718 -32.032  1.00  0.00     0.014 A 
HETATM   18  C   UNL     1      -3.442   4.951 -33.061  1.00  0.00     0.030 A 
HETATM   19  N   UNL     1      -3.166   2.663 -32.069  1.00  0.00    -0.359 N 
HETATM   20  C   UNL     1      -4.367   5.984 -33.227  1.00  0.00     0.002 A 
HETATM   21  C   UNL     1      -5.658   5.871 -32.722  1.00  0.00     0.001 A 
HETATM   22  H   UNL     1      -2.206   2.499 -32.338  1.00  0.00     0.166 HD
HETATM   23  C   UNL     1      -3.941   1.794 -31.346  1.00  0.00     0.016 A 
HETATM   24  C   UNL     1      -3.370   0.499 -30.882  1.00  0.00     0.069 C 
ENDBRANCH   8  14
BRANCH   1  25
HETATM   25  C   UNL     1      -7.494  -1.739 -34.011  1.00  0.00     0.034 C 
HETATM   26  C   UNL     1      -6.115  -1.576 -34.633  1.00  0.00     0.010 C 
ENDBRANCH   1  25
TORSDOF 3
ENDMDL
MODEL 10
REMARK VINA RESULT:      -7.5      3.674      6.467
REMARK  3 active torsions:
REMARK  status: ('A' for Active; 'I' for Inactive)
REMARK    1  A    between atoms: C_2  and  C_3 
REMARK    2  A    between atoms: C_10  and  O_11 
REMARK    3  A    between atoms: C_10  and  C_12 
ROOT
HETATM    1  C   UNL     1      -3.649   4.888 -33.423  1.00  0.00    -0.058 A 
HETATM    2  C   UNL     1      -4.634   3.947 -33.760  1.00  0.00     0.020 A 
HETATM    3  C   UNL     1      -5.522   3.529 -32.779  1.00  0.00     0.018 A 
HETATM    4  C   UNL     1      -5.444   4.055 -31.490  1.00  0.00     0.045 A 
HETATM    5  N   UNL     1      -6.433   3.514 -30.684  1.00  0.00    -0.323 N 
HETATM    6  C   UNL     1      -7.214   2.591 -31.383  1.00  0.00     0.266 A 
HETATM    7  O   UNL     1      -8.160   1.990 -30.896  1.00  0.00    -0.269 OA
HETATM    8  C   UNL     1      -6.675   2.547 -32.859  1.00  0.00     0.199 A 
HETATM    9  C   UNL     1      -4.492   4.982 -31.125  1.00  0.00     0.031 A 
HETATM   10  C   UNL     1      -3.584   5.394 -32.105  1.00  0.00     0.009 A 
HETATM   11  H   UNL     1      -6.588   3.728 -29.710  1.00  0.00     0.169 HD
ENDROOT
BRANCH   8  12
HETATM   12  O   UNL     1      -7.658   3.043 -33.762  1.00  0.00    -0.371 OA
HETATM   13  H   UNL     1      -7.353   2.812 -34.654  1.00  0.00     0.212 HD
ENDBRANCH   8  12
BRANCH   8  14
HETATM   14  C   UNL     1      -6.072   1.217 -33.262  1.00  0.00     0.025 A 
HETATM   15  C   UNL     1      -4.935   0.578 -32.632  1.00  0.00     0.003 A 
HETATM   16  C   UNL     1      -4.724  -0.645 -33.265  1.00  0.00     0.043 A 
HETATM   17  C   UNL     1      -4.070   0.922 -31.567  1.00  0.00     0.014 A 
HETATM   18  C   UNL     1      -3.709  -1.537 -32.894  1.00  0.00     0.030 A 
HETATM   19  N   UNL     1      -5.668  -0.754 -34.252  1.00  0.00    -0.359 N 
HETATM   20  C   UNL     1      -2.874  -1.169 -31.837  1.00  0.00     0.002 A 
HETATM   21  C   UNL     1      -3.049   0.045 -31.182  1.00  0.00     0.001 A 
HETATM   22  H   UNL     1      -5.743  -1.545 -34.876  1.00  0.00     0.166 HD
HETATM   23  C   UNL     1      -6.499   0.337 -34.260  1.00  0.00     0.016 A 
HETATM   24  C   UNL     1      -7.624   0.407 -35.233  1.00  0.00     0.069 C 
ENDBRANCH   8  14
BRANCH   1  25
HETATM   25  C   UNL     1      -2.643   5.328 -34.458  1.00  0.00     0.034 C 
HETATM   26  C   UNL     1      -2.063   6.697 -34.134  1.00  0.00     0.010 C 
ENDBRANCH   1  25
TORSDOF 3
ENDMDL
