MODEL 1
REMARK VINA RESULT:      -9.0      0.000      0.000
REMARK  9 active torsions:
REMARK  status: ('A' for Active; 'I' for Inactive)
REMARK    1  A    between atoms: C_6  and  N_7 
REMARK       I    between atoms: N_7  and  C_8 
REMARK    2  A    between atoms: C_8  and  C_9 
REMARK    3  A    between atoms: C_9  and  N_10 
REMARK       I    between atoms: N_10  and  C_11 
REMARK    4  A    between atoms: C_11  and  C_12 
REMARK    5  A    between atoms: C_12  and  S_13 
REMARK    6  A    between atoms: S_13  and  C_14 
REMARK    7  A    between atoms: N_15  and  C_16 
REMARK    8  A    between atoms: C_22  and  C_23 
REMARK    9  A    between atoms: C_23  and  N_24 
ROOT
HETATM    1  C   UNL     1      -2.432   4.132 -33.558  1.00  0.00     0.185 C 
ENDROOT
BRANCH   1   2
HETATM    2  C   UNL     1      -3.248   3.468 -32.461  1.00  0.00     0.227 C 
HETATM    3  N   UNL     1      -4.607   3.455 -32.680  1.00  0.00    -0.352 N 
HETATM    4  H   UNL     1      -4.999   3.980 -33.454  1.00  0.00     0.162 HD
HETATM    5  O   UNL     1      -2.761   3.036 -31.416  1.00  0.00    -0.273 OA
BRANCH   3   6
HETATM    6  C   UNL     1      -5.543   2.824 -31.759  1.00  0.00     0.225 C 
BRANCH   6   7
HETATM    7  C   UNL     1      -5.700   1.310 -31.970  1.00  0.00     0.239 C 
HETATM    8  N   UNL     1      -5.395   0.904 -33.261  1.00  0.00    -0.325 N 
HETATM    9  H   UNL     1      -5.434   1.667 -33.935  1.00  0.00     0.169 HD
HETATM   10  O   UNL     1      -6.207   0.610 -31.098  1.00  0.00    -0.271 OA
BRANCH   8  11
HETATM   11  C   UNL     1      -5.543  -0.410 -33.765  1.00  0.00     0.046 A 
HETATM   12  C   UNL     1      -6.642  -0.663 -34.623  1.00  0.00    -0.034 A 
HETATM   13  C   UNL     1      -6.855  -1.962 -35.113  1.00  0.00     0.015 A 
HETATM   14  C   UNL     1      -7.641   0.406 -34.978  1.00  0.00     0.050 C 
HETATM   15  C   UNL     1      -6.001  -3.012 -34.770  1.00  0.00    -0.061 A 
HETATM   16  C   UNL     1      -6.242  -4.400 -35.286  1.00  0.00     0.048 C 
HETATM   17  C   UNL     1      -4.887  -2.740 -33.976  1.00  0.00     0.015 A 
HETATM   18  C   UNL     1      -4.628  -1.446 -33.485  1.00  0.00    -0.034 A 
HETATM   19  C   UNL     1      -3.354  -1.263 -32.704  1.00  0.00     0.050 C 
ENDBRANCH   8  11
ENDBRANCH   6   7
ENDBRANCH   3   6
ENDBRANCH   1   2
BRANCH   1  20
HETATM   20  S   UNL     1      -3.341   5.562 -34.212  1.00  0.00    -0.081 SA
BRANCH  20  21
HETATM   21  C   UNL     1      -2.701   6.840 -33.233  1.00  0.00     0.196 A 
HETATM   22  N   UNL     1      -3.288   7.328 -32.079  1.00  0.00    -0.274 N 
HETATM   23  C   UNL     1      -2.494   8.416 -31.740  1.00  0.00     0.161 A 
HETATM   24  N   UNL     1      -1.545   8.581 -32.640  1.00  0.00    -0.132 NA
HETATM   25  N   UNL     1      -1.682   7.599 -33.574  1.00  0.00    -0.122 NA
BRANCH  22  26
HETATM   26  C   UNL     1      -4.384   6.831 -31.336  1.00  0.00     0.043 A 
HETATM   27  C   UNL     1      -4.168   6.064 -30.186  1.00  0.00     0.030 A 
HETATM   28  C   UNL     1      -5.257   5.624 -29.433  1.00  0.00     0.002 A 
HETATM   29  C   UNL     1      -6.557   5.939 -29.829  1.00  0.00     0.000 A 
HETATM   30  C   UNL     1      -6.775   6.695 -30.980  1.00  0.00     0.002 A 
HETATM   31  C   UNL     1      -5.692   7.146 -31.735  1.00  0.00     0.030 A 
ENDBRANCH  22  26
BRANCH  23  32
HETATM   32  C   UNL     1      -2.541   9.177 -30.467  1.00  0.00     0.315 C 
BRANCH  32  33
HETATM   33  N   UNL     1      -1.916   8.369 -29.350  1.00  0.00    -0.064 N 
HETATM   34  H   UNL     1      -2.646   7.686 -29.082  1.00  0.00     0.280 HD
HETATM   35  C   UNL     1      -1.609   9.169 -28.098  1.00  0.00     0.235 C 
HETATM   36  C   UNL     1      -0.111   9.016 -27.914  1.00  0.00     0.029 C 
HETATM   37  C   UNL     1       0.174   7.641 -28.482  1.00  0.00     0.029 C 
HETATM   38  C   UNL     1      -0.673   7.614 -29.738  1.00  0.00     0.235 C 
ENDBRANCH  32  33
ENDBRANCH  23  32
ENDBRANCH  20  21
ENDBRANCH   1  20
TORSDOF 9
ENDMDL
MODEL 2
REMARK VINA RESULT:      -9.0      4.155      7.896
REMARK  9 active torsions:
REMARK  status: ('A' for Active; 'I' for Inactive)
REMARK    1  A    between atoms: C_6  and  N_7 
REMARK       I    between atoms: N_7  and  C_8 
REMARK    2  A    between atoms: C_8  and  C_9 
REMARK    3  A    between atoms: C_9  and  N_10 
REMARK       I    between atoms: N_10  and  C_11 
REMARK    4  A    between atoms: C_11  and  C_12 
REMARK    5  A    between atoms: C_12  and  S_13 
REMARK    6  A    between atoms: S_13  and  C_14 
REMARK    7  A    between atoms: N_15  and  C_16 
REMARK    8  A    between atoms: C_22  and  C_23 
REMARK    9  A    between atoms: C_23  and  N_24 
ROOT
HETATM    1  C   UNL     1      -6.788   5.203 -32.821  1.00  0.00     0.185 C 
ENDROOT
BRANCH   1   2
HETATM    2  C   UNL     1      -5.682   4.188 -32.585  1.00  0.00     0.227 C 
HETATM    3  N   UNL     1      -5.691   3.604 -31.338  1.00  0.00    -0.352 N 
HETATM    4  H   UNL     1      -6.316   3.955 -30.621  1.00  0.00     0.162 HD
HETATM    5  O   UNL     1      -4.794   3.945 -33.402  1.00  0.00    -0.273 OA
BRANCH   3   6
HETATM    6  C   UNL     1      -4.735   2.576 -30.947  1.00  0.00     0.225 C 
BRANCH   6   7
HETATM    7  C   UNL     1      -5.151   1.152 -31.344  1.00  0.00     0.239 C 
HETATM    8  N   UNL     1      -4.749   0.803 -32.625  1.00  0.00    -0.325 N 
HETATM    9  H   UNL     1      -4.542   1.612 -33.210  1.00  0.00     0.169 HD
HETATM   10  O   UNL     1      -5.904   0.501 -30.626  1.00  0.00    -0.271 OA
BRANCH   8  11
HETATM   11  C   UNL     1      -5.077  -0.403 -33.289  1.00  0.00     0.046 A 
HETATM   12  C   UNL     1      -6.127  -0.365 -34.238  1.00  0.00    -0.034 A 
HETATM   13  C   UNL     1      -6.518  -1.547 -34.890  1.00  0.00     0.015 A 
HETATM   14  C   UNL     1      -6.898   0.896 -34.528  1.00  0.00     0.050 C 
HETATM   15  C   UNL     1      -5.886  -2.762 -34.620  1.00  0.00    -0.061 A 
HETATM   16  C   UNL     1      -6.316  -4.023 -35.309  1.00  0.00     0.048 C 
HETATM   17  C   UNL     1      -4.811  -2.777 -33.730  1.00  0.00     0.015 A 
HETATM   18  C   UNL     1      -4.377  -1.609 -33.076  1.00  0.00    -0.034 A 
HETATM   19  C   UNL     1      -3.160  -1.739 -32.199  1.00  0.00     0.050 C 
ENDBRANCH   8  11
ENDBRANCH   6   7
ENDBRANCH   3   6
ENDBRANCH   1   2
BRANCH   1  20
HETATM   20  S   UNL     1      -8.067   5.018 -31.545  1.00  0.00    -0.081 SA
BRANCH  20  21
HETATM   21  C   UNL     1      -8.922   3.629 -32.129  1.00  0.00     0.196 A 
HETATM   22  N   UNL     1     -10.012   3.666 -32.980  1.00  0.00    -0.274 N 
HETATM   23  C   UNL     1     -10.425   2.342 -33.045  1.00  0.00     0.161 A 
HETATM   24  N   UNL     1      -9.669   1.594 -32.267  1.00  0.00    -0.132 NA
HETATM   25  N   UNL     1      -8.736   2.403 -31.692  1.00  0.00    -0.122 NA
BRANCH  22  26
HETATM   26  C   UNL     1     -10.567   4.750 -33.701  1.00  0.00     0.043 A 
HETATM   27  C   UNL     1     -11.639   5.475 -33.172  1.00  0.00     0.030 A 
HETATM   28  C   UNL     1     -12.142   6.574 -33.870  1.00  0.00     0.002 A 
HETATM   29  C   UNL     1     -11.586   6.942 -35.094  1.00  0.00     0.000 A 
HETATM   30  C   UNL     1     -10.524   6.214 -35.629  1.00  0.00     0.002 A 
HETATM   31  C   UNL     1     -10.008   5.119 -34.934  1.00  0.00     0.030 A 
ENDBRANCH  22  26
BRANCH  23  32
HETATM   32  C   UNL     1     -11.423   1.777 -33.987  1.00  0.00     0.315 C 
BRANCH  32  33
HETATM   33  N   UNL     1     -12.653   1.316 -33.233  1.00  0.00    -0.064 N 
HETATM   34  H   UNL     1     -12.291   0.982 -32.324  1.00  0.00     0.280 HD
HETATM   35  C   UNL     1     -13.363   0.134 -33.864  1.00  0.00     0.235 C 
HETATM   36  C   UNL     1     -14.761   0.647 -34.152  1.00  0.00     0.029 C 
HETATM   37  C   UNL     1     -14.998   1.659 -33.048  1.00  0.00     0.029 C 
HETATM   38  C   UNL     1     -13.674   2.392 -32.976  1.00  0.00     0.235 C 
ENDBRANCH  32  33
ENDBRANCH  23  32
ENDBRANCH  20  21
ENDBRANCH   1  20
TORSDOF 9
ENDMDL
MODEL 3
REMARK VINA RESULT:      -9.0      1.690      2.965
REMARK  9 active torsions:
REMARK  status: ('A' for Active; 'I' for Inactive)
REMARK    1  A    between atoms: C_6  and  N_7 
REMARK       I    between atoms: N_7  and  C_8 
REMARK    2  A    between atoms: C_8  and  C_9 
REMARK    3  A    between atoms: C_9  and  N_10 
REMARK       I    between atoms: N_10  and  C_11 
REMARK    4  A    between atoms: C_11  and  C_12 
REMARK    5  A    between atoms: C_12  and  S_13 
REMARK    6  A    between atoms: S_13  and  C_14 
REMARK    7  A    between atoms: N_15  and  C_16 
REMARK    8  A    between atoms: C_22  and  C_23 
REMARK    9  A    between atoms: C_23  and  N_24 
ROOT
HETATM    1  C   UNL     1      -7.290   5.408 -31.230  1.00  0.00     0.185 C 
ENDROOT
BRANCH   1   2
HETATM    2  C   UNL     1      -6.377   4.387 -30.572  1.00  0.00     0.227 C 
HETATM    3  N   UNL     1      -5.916   3.398 -31.413  1.00  0.00    -0.352 N 
HETATM    4  H   UNL     1      -6.292   3.317 -32.351  1.00  0.00     0.162 HD
HETATM    5  O   UNL     1      -6.115   4.381 -29.369  1.00  0.00    -0.273 OA
BRANCH   3   6
HETATM    6  C   UNL     1      -4.995   2.359 -30.970  1.00  0.00     0.225 C 
BRANCH   6   7
HETATM    7  C   UNL     1      -5.398   0.942 -31.405  1.00  0.00     0.239 C 
HETATM    8  N   UNL     1      -4.867   0.576 -32.633  1.00  0.00    -0.325 N 
HETATM    9  H   UNL     1      -4.579   1.377 -33.194  1.00  0.00     0.169 HD
HETATM   10  O   UNL     1      -6.238   0.311 -30.770  1.00  0.00    -0.271 OA
BRANCH   8  11
HETATM   11  C   UNL     1      -5.147  -0.626 -33.324  1.00  0.00     0.046 A 
HETATM   12  C   UNL     1      -6.175  -0.599 -34.297  1.00  0.00    -0.034 A 
HETATM   13  C   UNL     1      -6.519  -1.780 -34.978  1.00  0.00     0.015 A 
HETATM   14  C   UNL     1      -6.971   0.646 -34.585  1.00  0.00     0.050 C 
HETATM   15  C   UNL     1      -5.862  -2.983 -34.713  1.00  0.00    -0.061 A 
HETATM   16  C   UNL     1      -6.243  -4.242 -35.432  1.00  0.00     0.048 C 
HETATM   17  C   UNL     1      -4.808  -2.985 -33.798  1.00  0.00     0.015 A 
HETATM   18  C   UNL     1      -4.421  -1.817 -33.114  1.00  0.00    -0.034 A 
HETATM   19  C   UNL     1      -3.222  -1.931 -32.211  1.00  0.00     0.050 C 
ENDBRANCH   8  11
ENDBRANCH   6   7
ENDBRANCH   3   6
ENDBRANCH   1   2
BRANCH   1  20
HETATM   20  S   UNL     1      -6.310   6.499 -32.302  1.00  0.00    -0.081 SA
BRANCH  20  21
HETATM   21  C   UNL     1      -5.176   7.152 -31.166  1.00  0.00     0.196 A 
HETATM   22  N   UNL     1      -3.807   6.964 -31.212  1.00  0.00    -0.274 N 
HETATM   23  C   UNL     1      -3.354   7.548 -30.037  1.00  0.00     0.161 A 
HETATM   24  N   UNL     1      -4.373   8.005 -29.336  1.00  0.00    -0.132 NA
HETATM   25  N   UNL     1      -5.510   7.748 -30.042  1.00  0.00    -0.122 NA
BRANCH  22  26
HETATM   26  C   UNL     1      -3.001   6.395 -32.225  1.00  0.00     0.043 A 
HETATM   27  C   UNL     1      -2.863   5.006 -32.322  1.00  0.00     0.030 A 
HETATM   28  C   UNL     1      -2.107   4.456 -33.358  1.00  0.00     0.002 A 
HETATM   29  C   UNL     1      -1.482   5.287 -34.288  1.00  0.00     0.000 A 
HETATM   30  C   UNL     1      -1.610   6.671 -34.188  1.00  0.00     0.002 A 
HETATM   31  C   UNL     1      -2.370   7.230 -33.161  1.00  0.00     0.030 A 
ENDBRANCH  22  26
BRANCH  23  32
HETATM   32  C   UNL     1      -1.940   7.824 -29.679  1.00  0.00     0.315 C 
BRANCH  32  33
HETATM   33  N   UNL     1      -1.318   6.609 -29.025  1.00  0.00    -0.064 N 
HETATM   34  H   UNL     1      -2.105   5.950 -28.898  1.00  0.00     0.280 HD
HETATM   35  C   UNL     1      -0.758   6.867 -27.638  1.00  0.00     0.235 C 
HETATM   36  C   UNL     1       0.712   6.513 -27.758  1.00  0.00     0.029 C 
HETATM   37  C   UNL     1       0.727   5.417 -28.804  1.00  0.00     0.029 C 
HETATM   38  C   UNL     1      -0.251   5.931 -29.841  1.00  0.00     0.235 C 
ENDBRANCH  32  33
ENDBRANCH  23  32
ENDBRANCH  20  21
ENDBRANCH   1  20
TORSDOF 9
ENDMDL
MODEL 4
REMARK VINA RESULT:      -9.0      1.898      3.226
REMARK  9 active torsions:
REMARK  status: ('A' for Active; 'I' for Inactive)
REMARK    1  A    between atoms: C_6  and  N_7 
REMARK       I    between atoms: N_7  and  C_8 
REMARK    2  A    between atoms: C_8  and  C_9 
REMARK    3  A    between atoms: C_9  and  N_10 
REMARK       I    between atoms: N_10  and  C_11 
REMARK    4  A    between atoms: C_11  and  C_12 
REMARK    5  A    between atoms: C_12  and  S_13 
REMARK    6  A    between atoms: S_13  and  C_14 
REMARK    7  A    between atoms: N_15  and  C_16 
REMARK    8  A    between atoms: C_22  and  C_23 
REMARK    9  A    between atoms: C_23  and  N_24 
ROOT
HETATM    1  C   UNL     1      -5.624   4.708 -29.940  1.00  0.00     0.185 C 
ENDROOT
BRANCH   1   2
HETATM    2  C   UNL     1      -5.829   3.777 -31.123  1.00  0.00     0.227 C 
HETATM    3  N   UNL     1      -7.050   3.142 -31.154  1.00  0.00    -0.352 N 
HETATM    4  H   UNL     1      -7.676   3.212 -30.359  1.00  0.00     0.162 HD
HETATM    5  O   UNL     1      -4.959   3.537 -31.960  1.00  0.00    -0.273 OA
BRANCH   3   6
HETATM    6  C   UNL     1      -7.442   2.248 -32.236  1.00  0.00     0.225 C 
BRANCH   6   7
HETATM    7  C   UNL     1      -6.892   0.820 -32.095  1.00  0.00     0.239 C 
HETATM    8  N   UNL     1      -5.819   0.563 -32.936  1.00  0.00    -0.325 N 
HETATM    9  H   UNL     1      -5.768   1.211 -33.721  1.00  0.00     0.169 HD
HETATM   10  O   UNL     1      -7.487  -0.012 -31.416  1.00  0.00    -0.271 OA
BRANCH   8  11
HETATM   11  C   UNL     1      -5.179  -0.689 -33.091  1.00  0.00     0.046 A 
HETATM   12  C   UNL     1      -5.629  -1.530 -34.138  1.00  0.00    -0.034 A 
HETATM   13  C   UNL     1      -5.053  -2.802 -34.304  1.00  0.00     0.015 A 
HETATM   14  C   UNL     1      -6.762  -1.138 -35.048  1.00  0.00     0.050 C 
HETATM   15  C   UNL     1      -4.042  -3.252 -33.453  1.00  0.00    -0.061 A 
HETATM   16  C   UNL     1      -3.441  -4.615 -33.626  1.00  0.00     0.048 C 
HETATM   17  C   UNL     1      -3.562  -2.391 -32.465  1.00  0.00     0.015 A 
HETATM   18  C   UNL     1      -4.099  -1.102 -32.284  1.00  0.00    -0.034 A 
HETATM   19  C   UNL     1      -3.446  -0.241 -31.236  1.00  0.00     0.050 C 
ENDBRANCH   8  11
ENDBRANCH   6   7
ENDBRANCH   3   6
ENDBRANCH   1   2
BRANCH   1  20
HETATM   20  S   UNL     1      -5.488   6.421 -30.529  1.00  0.00    -0.081 SA
BRANCH  20  21
HETATM   21  C   UNL     1      -4.097   6.965 -29.650  1.00  0.00     0.196 A 
HETATM   22  N   UNL     1      -2.795   6.919 -30.114  1.00  0.00    -0.274 N 
HETATM   23  C   UNL     1      -2.040   7.324 -29.022  1.00  0.00     0.161 A 
HETATM   24  N   UNL     1      -2.827   7.551 -27.988  1.00  0.00    -0.132 NA
HETATM   25  N   UNL     1      -4.110   7.317 -28.384  1.00  0.00    -0.122 NA
BRANCH  22  26
HETATM   26  C   UNL     1      -2.299   6.618 -31.405  1.00  0.00     0.043 A 
HETATM   27  C   UNL     1      -1.927   5.309 -31.731  1.00  0.00     0.030 A 
HETATM   28  C   UNL     1      -1.489   5.016 -33.023  1.00  0.00     0.002 A 
HETATM   29  C   UNL     1      -1.413   6.024 -33.984  1.00  0.00     0.000 A 
HETATM   30  C   UNL     1      -1.773   7.331 -33.658  1.00  0.00     0.002 A 
HETATM   31  C   UNL     1      -2.220   7.632 -32.371  1.00  0.00     0.030 A 
ENDBRANCH  22  26
BRANCH  23  32
HETATM   32  C   UNL     1      -0.596   7.665 -29.027  1.00  0.00     0.315 C 
BRANCH  32  33
HETATM   33  N   UNL     1      -0.107   7.896 -27.613  1.00  0.00    -0.064 N 
HETATM   34  H   UNL     1      -0.937   7.728 -27.020  1.00  0.00     0.280 HD
HETATM   35  C   UNL     1       0.330   9.322 -27.331  1.00  0.00     0.235 C 
HETATM   36  C   UNL     1       1.783   9.193 -26.917  1.00  0.00     0.029 C 
HETATM   37  C   UNL     1       1.840   7.834 -26.250  1.00  0.00     0.029 C 
HETATM   38  C   UNL     1       0.996   6.973 -27.169  1.00  0.00     0.235 C 
ENDBRANCH  32  33
ENDBRANCH  23  32
ENDBRANCH  20  21
ENDBRANCH   1  20
TORSDOF 9
ENDMDL
MODEL 5
REMARK VINA RESULT:      -8.9      1.833      2.980
REMARK  9 active torsions:
REMARK  status: ('A' for Active; 'I' for Inactive)
REMARK    1  A    between atoms: C_6  and  N_7 
REMARK       I    between atoms: N_7  and  C_8 
REMARK    2  A    between atoms: C_8  and  C_9 
REMARK    3  A    between atoms: C_9  and  N_10 
REMARK       I    between atoms: N_10  and  C_11 
REMARK    4  A    between atoms: C_11  and  C_12 
REMARK    5  A    between atoms: C_12  and  S_13 
REMARK    6  A    between atoms: S_13  and  C_14 
REMARK    7  A    between atoms: N_15  and  C_16 
REMARK    8  A    between atoms: C_22  and  C_23 
REMARK    9  A    between atoms: C_23  and  N_24 
ROOT
HETATM    1  C   UNL     1      -2.227   4.488 -33.475  1.00  0.00     0.185 C 
ENDROOT
BRANCH   1   2
HETATM    2  C   UNL     1      -3.729   4.337 -33.306  1.00  0.00     0.227 C 
HETATM    3  N   UNL     1      -4.118   3.280 -32.515  1.00  0.00    -0.352 N 
HETATM    4  H   UNL     1      -3.431   2.601 -32.205  1.00  0.00     0.162 HD
HETATM    5  O   UNL     1      -4.554   5.046 -33.882  1.00  0.00    -0.273 OA
BRANCH   3   6
HETATM    6  C   UNL     1      -5.515   3.005 -32.204  1.00  0.00     0.225 C 
BRANCH   6   7
HETATM    7  C   UNL     1      -5.903   1.524 -32.328  1.00  0.00     0.239 C 
HETATM    8  N   UNL     1      -5.380   0.915 -33.459  1.00  0.00    -0.325 N 
HETATM    9  H   UNL     1      -5.109   1.584 -34.179  1.00  0.00     0.169 HD
HETATM   10  O   UNL     1      -6.728   1.031 -31.564  1.00  0.00    -0.271 OA
BRANCH   8  11
HETATM   11  C   UNL     1      -5.650  -0.408 -33.878  1.00  0.00     0.046 A 
HETATM   12  C   UNL     1      -4.718  -1.413 -33.521  1.00  0.00    -0.034 A 
HETATM   13  C   UNL     1      -4.921  -2.735 -33.952  1.00  0.00     0.015 A 
HETATM   14  C   UNL     1      -3.465  -1.102 -32.746  1.00  0.00     0.050 C 
HETATM   15  C   UNL     1      -6.030  -3.078 -34.728  1.00  0.00    -0.061 A 
HETATM   16  C   UNL     1      -6.235  -4.488 -35.197  1.00  0.00     0.048 C 
HETATM   17  C   UNL     1      -6.976  -2.095 -35.021  1.00  0.00     0.015 A 
HETATM   18  C   UNL     1      -6.816  -0.765 -34.587  1.00  0.00    -0.034 A 
HETATM   19  C   UNL     1      -7.941   0.186 -34.901  1.00  0.00     0.050 C 
ENDBRANCH   8  11
ENDBRANCH   6   7
ENDBRANCH   3   6
ENDBRANCH   1   2
BRANCH   1  20
HETATM   20  S   UNL     1      -1.722   6.157 -32.966  1.00  0.00    -0.081 SA
BRANCH  20  21
HETATM   21  C   UNL     1      -0.963   5.826 -31.444  1.00  0.00     0.196 A 
HETATM   22  N   UNL     1      -1.220   6.501 -30.264  1.00  0.00    -0.274 N 
HETATM   23  C   UNL     1      -0.287   5.982 -29.377  1.00  0.00     0.161 A 
HETATM   24  N   UNL     1       0.483   5.105 -29.991  1.00  0.00    -0.132 NA
HETATM   25  N   UNL     1       0.061   5.017 -31.284  1.00  0.00    -0.122 NA
BRANCH  22  26
HETATM   26  C   UNL     1      -2.229   7.443 -29.956  1.00  0.00     0.043 A 
HETATM   27  C   UNL     1      -3.467   7.017 -29.463  1.00  0.00     0.030 A 
HETATM   28  C   UNL     1      -4.434   7.961 -29.114  1.00  0.00     0.002 A 
HETATM   29  C   UNL     1      -4.174   9.322 -29.266  1.00  0.00     0.000 A 
HETATM   30  C   UNL     1      -2.945   9.749 -29.767  1.00  0.00     0.002 A 
HETATM   31  C   UNL     1      -1.968   8.813 -30.111  1.00  0.00     0.030 A 
ENDBRANCH  22  26
BRANCH  23  32
HETATM   32  C   UNL     1      -0.254   6.195 -27.909  1.00  0.00     0.315 C 
BRANCH  32  33
HETATM   33  N   UNL     1       0.980   6.981 -27.520  1.00  0.00    -0.064 N 
HETATM   34  H   UNL     1       1.766   6.327 -27.680  1.00  0.00     0.280 HD
HETATM   35  C   UNL     1       1.040   7.361 -26.052  1.00  0.00     0.235 C 
HETATM   36  C   UNL     1       1.104   8.877 -26.061  1.00  0.00     0.029 C 
HETATM   37  C   UNL     1       1.841   9.191 -27.348  1.00  0.00     0.029 C 
HETATM   38  C   UNL     1       1.218   8.224 -28.335  1.00  0.00     0.235 C 
ENDBRANCH  32  33
ENDBRANCH  23  32
ENDBRANCH  20  21
ENDBRANCH   1  20
TORSDOF 9
ENDMDL
MODEL 6
REMARK VINA RESULT:      -8.8      2.646      9.388
REMARK  9 active torsions:
REMARK  status: ('A' for Active; 'I' for Inactive)
REMARK    1  A    between atoms: C_6  and  N_7 
REMARK       I    between atoms: N_7  and  C_8 
REMARK    2  A    between atoms: C_8  and  C_9 
REMARK    3  A    between atoms: C_9  and  N_10 
REMARK       I    between atoms: N_10  and  C_11 
REMARK    4  A    between atoms: C_11  and  C_12 
REMARK    5  A    between atoms: C_12  and  S_13 
REMARK    6  A    between atoms: S_13  and  C_14 
REMARK    7  A    between atoms: N_15  and  C_16 
REMARK    8  A    between atoms: C_22  and  C_23 
REMARK    9  A    between atoms: C_23  and  N_24 
ROOT
HETATM    1  C   UNL     1      -5.566   4.294 -34.192  1.00  0.00     0.185 C 
ENDROOT
BRANCH   1   2
HETATM    2  C   UNL     1      -4.232   4.800 -34.714  1.00  0.00     0.227 C 
HETATM    3  N   UNL     1      -3.165   4.594 -33.869  1.00  0.00    -0.352 N 
HETATM    4  H   UNL     1      -3.325   4.254 -32.927  1.00  0.00     0.162 HD
HETATM    5  O   UNL     1      -4.104   5.416 -35.772  1.00  0.00    -0.273 OA
BRANCH   3   6
HETATM    6  C   UNL     1      -1.802   4.972 -34.220  1.00  0.00     0.225 C 
BRANCH   6   7
HETATM    7  C   UNL     1      -1.194   6.040 -33.299  1.00  0.00     0.239 C 
HETATM    8  N   UNL     1      -1.418   5.791 -31.953  1.00  0.00    -0.325 N 
HETATM    9  H   UNL     1      -2.197   5.154 -31.792  1.00  0.00     0.169 HD
HETATM   10  O   UNL     1      -0.718   7.070 -33.769  1.00  0.00    -0.271 OA
BRANCH   8  11
HETATM   11  C   UNL     1      -1.060   6.652 -30.888  1.00  0.00     0.046 A 
HETATM   12  C   UNL     1       0.117   6.343 -30.163  1.00  0.00    -0.034 A 
HETATM   13  C   UNL     1       0.490   7.143 -29.070  1.00  0.00     0.015 A 
HETATM   14  C   UNL     1       0.957   5.134 -30.480  1.00  0.00     0.050 C 
HETATM   15  C   UNL     1      -0.281   8.242 -28.684  1.00  0.00    -0.061 A 
HETATM   16  C   UNL     1       0.114   9.084 -27.508  1.00  0.00     0.048 C 
HETATM   17  C   UNL     1      -1.403   8.575 -29.443  1.00  0.00     0.015 A 
HETATM   18  C   UNL     1      -1.794   7.810 -30.559  1.00  0.00    -0.034 A 
HETATM   19  C   UNL     1      -2.978   8.314 -31.341  1.00  0.00     0.050 C 
ENDBRANCH   8  11
ENDBRANCH   6   7
ENDBRANCH   3   6
ENDBRANCH   1   2
BRANCH   1  20
HETATM   20  S   UNL     1      -5.428   3.937 -32.416  1.00  0.00    -0.081 SA
BRANCH  20  21
HETATM   21  C   UNL     1      -4.949   2.272 -32.447  1.00  0.00     0.196 A 
HETATM   22  N   UNL     1      -5.816   1.196 -32.505  1.00  0.00    -0.274 N 
HETATM   23  C   UNL     1      -4.984   0.094 -32.368  1.00  0.00     0.161 A 
HETATM   24  N   UNL     1      -3.737   0.487 -32.202  1.00  0.00    -0.132 NA
HETATM   25  N   UNL     1      -3.721   1.848 -32.245  1.00  0.00    -0.122 NA
BRANCH  22  26
HETATM   26  C   UNL     1      -7.213   1.164 -32.729  1.00  0.00     0.043 A 
HETATM   27  C   UNL     1      -7.722   1.249 -34.030  1.00  0.00     0.030 A 
HETATM   28  C   UNL     1      -9.099   1.163 -34.240  1.00  0.00     0.002 A 
HETATM   29  C   UNL     1      -9.966   1.005 -33.159  1.00  0.00     0.000 A 
HETATM   30  C   UNL     1      -9.461   0.931 -31.862  1.00  0.00     0.002 A 
HETATM   31  C   UNL     1      -8.086   1.007 -31.641  1.00  0.00     0.030 A 
ENDBRANCH  22  26
BRANCH  23  32
HETATM   32  C   UNL     1      -5.362  -1.326 -32.576  1.00  0.00     0.315 C 
BRANCH  32  33
HETATM   33  N   UNL     1      -4.209  -2.091 -33.190  1.00  0.00    -0.064 N 
HETATM   34  H   UNL     1      -3.540  -1.360 -33.486  1.00  0.00     0.280 HD
HETATM   35  C   UNL     1      -4.572  -2.863 -34.445  1.00  0.00     0.235 C 
HETATM   36  C   UNL     1      -4.248  -4.305 -34.103  1.00  0.00     0.029 C 
HETATM   37  C   UNL     1      -3.086  -4.186 -33.138  1.00  0.00     0.029 C 
HETATM   38  C   UNL     1      -3.505  -3.032 -32.249  1.00  0.00     0.235 C 
ENDBRANCH  32  33
ENDBRANCH  23  32
ENDBRANCH  20  21
ENDBRANCH   1  20
TORSDOF 9
ENDMDL
MODEL 7
REMARK VINA RESULT:      -8.8      2.199      9.634
REMARK  9 active torsions:
REMARK  status: ('A' for Active; 'I' for Inactive)
REMARK    1  A    between atoms: C_6  and  N_7 
REMARK       I    between atoms: N_7  and  C_8 
REMARK    2  A    between atoms: C_8  and  C_9 
REMARK    3  A    between atoms: C_9  and  N_10 
REMARK       I    between atoms: N_10  and  C_11 
REMARK    4  A    between atoms: C_11  and  C_12 
REMARK    5  A    between atoms: C_12  and  S_13 
REMARK    6  A    between atoms: S_13  and  C_14 
REMARK    7  A    between atoms: N_15  and  C_16 
REMARK    8  A    between atoms: C_22  and  C_23 
REMARK    9  A    between atoms: C_23  and  N_24 
ROOT
HETATM    1  C   UNL     1      -6.696   5.669 -30.610  1.00  0.00     0.185 C 
ENDROOT
BRANCH   1   2
HETATM    2  C   UNL     1      -6.035   6.668 -31.545  1.00  0.00     0.227 C 
HETATM    3  N   UNL     1      -4.675   6.805 -31.377  1.00  0.00    -0.352 N 
HETATM    4  H   UNL     1      -4.217   6.359 -30.589  1.00  0.00     0.162 HD
HETATM    5  O   UNL     1      -6.656   7.367 -32.346  1.00  0.00    -0.273 OA
BRANCH   3   6
HETATM    6  C   UNL     1      -3.866   7.683 -32.212  1.00  0.00     0.225 C 
BRANCH   6   7
HETATM    7  C   UNL     1      -2.633   8.258 -31.500  1.00  0.00     0.239 C 
HETATM    8  N   UNL     1      -2.307   7.578 -30.336  1.00  0.00    -0.325 N 
HETATM    9  H   UNL     1      -3.086   7.037 -29.962  1.00  0.00     0.169 HD
HETATM   10  O   UNL     1      -2.130   9.313 -31.880  1.00  0.00    -0.271 OA
BRANCH   8  11
HETATM   11  C   UNL     1      -1.285   7.944 -29.429  1.00  0.00     0.046 A 
HETATM   12  C   UNL     1      -0.008   7.357 -29.609  1.00  0.00    -0.034 A 
HETATM   13  C   UNL     1       1.027   7.657 -28.707  1.00  0.00     0.015 A 
HETATM   14  C   UNL     1       0.266   6.358 -30.701  1.00  0.00     0.050 C 
HETATM   15  C   UNL     1       0.821   8.527 -27.635  1.00  0.00    -0.061 A 
HETATM   16  C   UNL     1       1.926   8.832 -26.668  1.00  0.00     0.048 C 
HETATM   17  C   UNL     1      -0.421   9.149 -27.504  1.00  0.00     0.015 A 
HETATM   18  C   UNL     1      -1.475   8.890 -28.401  1.00  0.00    -0.034 A 
HETATM   19  C   UNL     1      -2.741   9.681 -28.199  1.00  0.00     0.050 C 
ENDBRANCH   8  11
ENDBRANCH   6   7
ENDBRANCH   3   6
ENDBRANCH   1   2
BRANCH   1  20
HETATM   20  S   UNL     1      -5.439   4.547 -29.932  1.00  0.00    -0.081 SA
BRANCH  20  21
HETATM   21  C   UNL     1      -5.768   3.099 -30.826  1.00  0.00     0.196 A 
HETATM   22  N   UNL     1      -5.384   2.868 -32.134  1.00  0.00    -0.274 N 
HETATM   23  C   UNL     1      -5.988   1.657 -32.446  1.00  0.00     0.161 A 
HETATM   24  N   UNL     1      -6.701   1.231 -31.423  1.00  0.00    -0.132 NA
HETATM   25  N   UNL     1      -6.567   2.139 -30.416  1.00  0.00    -0.122 NA
BRANCH  22  26
HETATM   26  C   UNL     1      -4.520   3.610 -32.973  1.00  0.00     0.043 A 
HETATM   27  C   UNL     1      -5.034   4.335 -34.052  1.00  0.00     0.030 A 
HETATM   28  C   UNL     1      -4.177   5.105 -34.840  1.00  0.00     0.002 A 
HETATM   29  C   UNL     1      -2.811   5.143 -34.560  1.00  0.00     0.000 A 
HETATM   30  C   UNL     1      -2.295   4.413 -33.490  1.00  0.00     0.002 A 
HETATM   31  C   UNL     1      -3.145   3.647 -32.692  1.00  0.00     0.030 A 
ENDBRANCH  22  26
BRANCH  23  32
HETATM   32  C   UNL     1      -5.732   0.831 -33.652  1.00  0.00     0.315 C 
BRANCH  32  33
HETATM   33  N   UNL     1      -6.060  -0.620 -33.373  1.00  0.00    -0.064 N 
HETATM   34  H   UNL     1      -6.287  -0.646 -32.364  1.00  0.00     0.280 HD
HETATM   35  C   UNL     1      -4.894  -1.571 -33.568  1.00  0.00     0.235 C 
HETATM   36  C   UNL     1      -5.375  -2.539 -34.632  1.00  0.00     0.029 C 
HETATM   37  C   UNL     1      -6.870  -2.608 -34.396  1.00  0.00     0.029 C 
HETATM   38  C   UNL     1      -7.236  -1.159 -34.143  1.00  0.00     0.235 C 
ENDBRANCH  32  33
ENDBRANCH  23  32
ENDBRANCH  20  21
ENDBRANCH   1  20
TORSDOF 9
ENDMDL
MODEL 8
REMARK VINA RESULT:      -8.6      1.979      3.763
REMARK  9 active torsions:
REMARK  status: ('A' for Active; 'I' for Inactive)
REMARK    1  A    between atoms: C_6  and  N_7 
REMARK       I    between atoms: N_7  and  C_8 
REMARK    2  A    between atoms: C_8  and  C_9 
REMARK    3  A    between atoms: C_9  and  N_10 
REMARK       I    between atoms: N_10  and  C_11 
REMARK    4  A    between atoms: C_11  and  C_12 
REMARK    5  A    between atoms: C_12  and  S_13 
REMARK    6  A    between atoms: S_13  and  C_14 
REMARK    7  A    between atoms: N_15  and  C_16 
REMARK    8  A    between atoms: C_22  and  C_23 
REMARK    9  A    between atoms: C_23  and  N_24 
ROOT
HETATM    1  C   UNL     1      -7.226   6.885 -30.231  1.00  0.00     0.185 C 
ENDROOT
BRANCH   1   2
HETATM    2  C   UNL     1      -7.706   5.455 -30.045  1.00  0.00     0.227 C 
HETATM    3  N   UNL     1      -6.788   4.489 -30.390  1.00  0.00    -0.352 N 
HETATM    4  H   UNL     1      -5.927   4.753 -30.856  1.00  0.00     0.162 HD
HETATM    5  O   UNL     1      -8.846   5.160 -29.687  1.00  0.00    -0.273 OA
BRANCH   3   6
HETATM    6  C   UNL     1      -7.055   3.064 -30.236  1.00  0.00     0.225 C 
BRANCH   6   7
HETATM    7  C   UNL     1      -6.823   2.245 -31.515  1.00  0.00     0.239 C 
HETATM    8  N   UNL     1      -6.810   0.876 -31.291  1.00  0.00    -0.325 N 
HETATM    9  H   UNL     1      -6.630   0.636 -30.317  1.00  0.00     0.169 HD
HETATM   10  O   UNL     1      -6.521   2.803 -32.566  1.00  0.00    -0.271 OA
BRANCH   8  11
HETATM   11  C   UNL     1      -6.522  -0.112 -32.261  1.00  0.00     0.046 A 
HETATM   12  C   UNL     1      -5.229  -0.691 -32.245  1.00  0.00    -0.034 A 
HETATM   13  C   UNL     1      -4.882  -1.645 -33.217  1.00  0.00     0.015 A 
HETATM   14  C   UNL     1      -4.176  -0.267 -31.256  1.00  0.00     0.050 C 
HETATM   15  C   UNL     1      -5.792  -2.036 -34.201  1.00  0.00    -0.061 A 
HETATM   16  C   UNL     1      -5.411  -3.044 -35.244  1.00  0.00     0.048 C 
HETATM   17  C   UNL     1      -7.083  -1.507 -34.171  1.00  0.00     0.015 A 
HETATM   18  C   UNL     1      -7.473  -0.566 -33.198  1.00  0.00    -0.034 A 
HETATM   19  C   UNL     1      -8.914  -0.129 -33.224  1.00  0.00     0.050 C 
ENDBRANCH   8  11
ENDBRANCH   6   7
ENDBRANCH   3   6
ENDBRANCH   1   2
BRANCH   1  20
HETATM   20  S   UNL     1      -5.944   6.934 -31.518  1.00  0.00    -0.081 SA
BRANCH  20  21
HETATM   21  C   UNL     1      -4.523   7.195 -30.562  1.00  0.00     0.196 A 
HETATM   22  N   UNL     1      -3.248   6.783 -30.903  1.00  0.00    -0.274 N 
HETATM   23  C   UNL     1      -2.490   7.090 -29.781  1.00  0.00     0.161 A 
HETATM   24  N   UNL     1      -3.260   7.601 -28.841  1.00  0.00    -0.132 NA
HETATM   25  N   UNL     1      -4.530   7.659 -29.331  1.00  0.00    -0.122 NA
BRANCH  22  26
HETATM   26  C   UNL     1      -2.760   6.247 -32.118  1.00  0.00     0.043 A 
HETATM   27  C   UNL     1      -2.228   7.089 -33.099  1.00  0.00     0.030 A 
HETATM   28  C   UNL     1      -1.703   6.542 -34.270  1.00  0.00     0.002 A 
HETATM   29  C   UNL     1      -1.717   5.161 -34.468  1.00  0.00     0.000 A 
HETATM   30  C   UNL     1      -2.256   4.320 -33.496  1.00  0.00     0.002 A 
HETATM   31  C   UNL     1      -2.776   4.857 -32.318  1.00  0.00     0.030 A 
ENDBRANCH  22  26
BRANCH  23  32
HETATM   32  C   UNL     1      -1.010   7.057 -29.683  1.00  0.00     0.315 C 
BRANCH  32  33
HETATM   33  N   UNL     1      -0.570   7.394 -28.274  1.00  0.00    -0.064 N 
HETATM   34  H   UNL     1      -1.447   7.414 -27.726  1.00  0.00     0.280 HD
HETATM   35  C   UNL     1       0.050   8.771 -28.127  1.00  0.00     0.235 C 
HETATM   36  C   UNL     1       1.445   8.498 -27.599  1.00  0.00     0.029 C 
HETATM   37  C   UNL     1       1.271   7.237 -26.777  1.00  0.00     0.029 C 
HETATM   38  C   UNL     1       0.363   6.392 -27.649  1.00  0.00     0.235 C 
ENDBRANCH  32  33
ENDBRANCH  23  32
ENDBRANCH  20  21
ENDBRANCH   1  20
TORSDOF 9
ENDMDL
MODEL 9
REMARK VINA RESULT:      -8.5      2.455      9.748
REMARK  9 active torsions:
REMARK  status: ('A' for Active; 'I' for Inactive)
REMARK    1  A    between atoms: C_6  and  N_7 
REMARK       I    between atoms: N_7  and  C_8 
REMARK    2  A    between atoms: C_8  and  C_9 
REMARK    3  A    between atoms: C_9  and  N_10 
REMARK       I    between atoms: N_10  and  C_11 
REMARK    4  A    between atoms: C_11  and  C_12 
REMARK    5  A    between atoms: C_12  and  S_13 
REMARK    6  A    between atoms: S_13  and  C_14 
REMARK    7  A    between atoms: N_15  and  C_16 
REMARK    8  A    between atoms: C_22  and  C_23 
REMARK    9  A    between atoms: C_23  and  N_24 
ROOT
HETATM    1  C   UNL     1      -7.529   4.876 -30.971  1.00  0.00     0.185 C 
ENDROOT
BRANCH   1   2
HETATM    2  C   UNL     1      -6.202   5.066 -31.686  1.00  0.00     0.227 C 
HETATM    3  N   UNL     1      -5.134   5.333 -30.860  1.00  0.00    -0.352 N 
HETATM    4  H   UNL     1      -5.291   5.518 -29.876  1.00  0.00     0.162 HD
HETATM    5  O   UNL     1      -6.081   5.059 -32.911  1.00  0.00    -0.273 OA
BRANCH   3   6
HETATM    6  C   UNL     1      -3.776   5.500 -31.364  1.00  0.00     0.225 C 
BRANCH   6   7
HETATM    7  C   UNL     1      -2.968   6.581 -30.632  1.00  0.00     0.239 C 
HETATM    8  N   UNL     1      -1.948   6.063 -29.847  1.00  0.00    -0.325 N 
HETATM    9  H   UNL     1      -2.086   5.080 -29.617  1.00  0.00     0.169 HD
HETATM   10  O   UNL     1      -3.338   7.752 -30.646  1.00  0.00    -0.271 OA
BRANCH   8  11
HETATM   11  C   UNL     1      -1.110   6.814 -28.990  1.00  0.00     0.046 A 
HETATM   12  C   UNL     1       0.151   7.218 -29.494  1.00  0.00    -0.034 A 
HETATM   13  C   UNL     1       1.036   7.928 -28.665  1.00  0.00     0.015 A 
HETATM   14  C   UNL     1       0.612   6.852 -30.880  1.00  0.00     0.050 C 
HETATM   15  C   UNL     1       0.694   8.244 -27.349  1.00  0.00    -0.061 A 
HETATM   16  C   UNL     1       1.649   8.990 -26.464  1.00  0.00     0.048 C 
HETATM   17  C   UNL     1      -0.574   7.897 -26.881  1.00  0.00     0.015 A 
HETATM   18  C   UNL     1      -1.495   7.205 -27.691  1.00  0.00    -0.034 A 
HETATM   19  C   UNL     1      -2.857   6.955 -27.099  1.00  0.00     0.050 C 
ENDBRANCH   8  11
ENDBRANCH   6   7
ENDBRANCH   3   6
ENDBRANCH   1   2
BRANCH   1  20
HETATM   20  S   UNL     1      -7.532   3.279 -30.105  1.00  0.00    -0.081 SA
BRANCH  20  21
HETATM   21  C   UNL     1      -6.519   2.335 -31.147  1.00  0.00     0.196 A 
HETATM   22  N   UNL     1      -6.963   1.585 -32.221  1.00  0.00    -0.274 N 
HETATM   23  C   UNL     1      -5.826   0.911 -32.646  1.00  0.00     0.161 A 
HETATM   24  N   UNL     1      -4.807   1.206 -31.864  1.00  0.00    -0.132 NA
HETATM   25  N   UNL     1      -5.246   2.090 -30.925  1.00  0.00    -0.122 NA
BRANCH  22  26
HETATM   26  C   UNL     1      -8.238   1.539 -32.833  1.00  0.00     0.043 A 
HETATM   27  C   UNL     1      -9.131   0.506 -32.528  1.00  0.00     0.030 A 
HETATM   28  C   UNL     1     -10.404   0.502 -33.099  1.00  0.00     0.002 A 
HETATM   29  C   UNL     1     -10.782   1.516 -33.979  1.00  0.00     0.000 A 
HETATM   30  C   UNL     1      -9.890   2.540 -34.293  1.00  0.00     0.002 A 
HETATM   31  C   UNL     1      -8.618   2.558 -33.720  1.00  0.00     0.030 A 
ENDBRANCH  22  26
BRANCH  23  32
HETATM   32  C   UNL     1      -5.681   0.133 -33.901  1.00  0.00     0.315 C 
BRANCH  32  33
HETATM   33  N   UNL     1      -5.916  -1.339 -33.636  1.00  0.00    -0.064 N 
HETATM   34  H   UNL     1      -6.098  -1.394 -32.619  1.00  0.00     0.280 HD
HETATM   35  C   UNL     1      -4.707  -2.219 -33.895  1.00  0.00     0.235 C 
HETATM   36  C   UNL     1      -5.177  -3.196 -34.956  1.00  0.00     0.029 C 
HETATM   37  C   UNL     1      -6.654  -3.353 -34.660  1.00  0.00     0.029 C 
HETATM   38  C   UNL     1      -7.091  -1.932 -34.366  1.00  0.00     0.235 C 
ENDBRANCH  32  33
ENDBRANCH  23  32
ENDBRANCH  20  21
ENDBRANCH   1  20
TORSDOF 9
ENDMDL
MODEL 10
REMARK VINA RESULT:      -8.5      4.856      7.970
REMARK  9 active torsions:
REMARK  status: ('A' for Active; 'I' for Inactive)
REMARK    1  A    between atoms: C_6  and  N_7 
REMARK       I    between atoms: N_7  and  C_8 
REMARK    2  A    between atoms: C_8  and  C_9 
REMARK    3  A    between atoms: C_9  and  N_10 
REMARK       I    between atoms: N_10  and  C_11 
REMARK    4  A    between atoms: C_11  and  C_12 
REMARK    5  A    between atoms: C_12  and  S_13 
REMARK    6  A    between atoms: S_13  and  C_14 
REMARK    7  A    between atoms: N_15  and  C_16 
REMARK    8  A    between atoms: C_22  and  C_23 
REMARK    9  A    between atoms: C_23  and  N_24 
ROOT
HETATM    1  C   UNL     1      -8.341   4.103 -29.831  1.00  0.00     0.185 C 
ENDROOT
BRANCH   1   2
HETATM    2  C   UNL     1      -7.178   3.307 -30.400  1.00  0.00     0.227 C 
HETATM    3  N   UNL     1      -6.627   3.830 -31.548  1.00  0.00    -0.352 N 
HETATM    4  H   UNL     1      -7.080   4.606 -32.018  1.00  0.00     0.162 HD
HETATM    5  O   UNL     1      -6.790   2.237 -29.931  1.00  0.00    -0.273 OA
BRANCH   3   6
HETATM    6  C   UNL     1      -5.477   3.228 -32.210  1.00  0.00     0.225 C 
BRANCH   6   7
HETATM    7  C   UNL     1      -5.835   2.070 -33.154  1.00  0.00     0.239 C 
HETATM    8  N   UNL     1      -5.689   0.822 -32.566  1.00  0.00    -0.325 N 
HETATM    9  H   UNL     1      -5.079   0.837 -31.750  1.00  0.00     0.169 HD
HETATM   10  O   UNL     1      -6.058   2.282 -34.342  1.00  0.00    -0.271 OA
BRANCH   8  11
HETATM   11  C   UNL     1      -5.854  -0.419 -33.224  1.00  0.00     0.046 A 
HETATM   12  C   UNL     1      -4.690  -1.187 -33.475  1.00  0.00    -0.034 A 
HETATM   13  C   UNL     1      -4.798  -2.407 -34.165  1.00  0.00     0.015 A 
HETATM   14  C   UNL     1      -3.317  -0.708 -33.088  1.00  0.00     0.050 C 
HETATM   15  C   UNL     1      -6.035  -2.878 -34.608  1.00  0.00    -0.061 A 
HETATM   16  C   UNL     1      -6.143  -4.174 -35.356  1.00  0.00     0.048 C 
HETATM   17  C   UNL     1      -7.183  -2.146 -34.301  1.00  0.00     0.015 A 
HETATM   18  C   UNL     1      -7.115  -0.931 -33.592  1.00  0.00    -0.034 A 
HETATM   19  C   UNL     1      -8.428  -0.274 -33.255  1.00  0.00     0.050 C 
ENDBRANCH   8  11
ENDBRANCH   6   7
ENDBRANCH   3   6
ENDBRANCH   1   2
BRANCH   1  20
HETATM   20  S   UNL     1      -9.903   3.451 -30.489  1.00  0.00    -0.081 SA
BRANCH  20  21
HETATM   21  C   UNL     1     -10.022   4.318 -31.985  1.00  0.00     0.196 A 
HETATM   22  N   UNL     1     -10.839   3.968 -33.044  1.00  0.00    -0.274 N 
HETATM   23  C   UNL     1     -10.486   4.864 -34.044  1.00  0.00     0.161 A 
HETATM   24  N   UNL     1      -9.514   5.650 -33.624  1.00  0.00    -0.132 NA
HETATM   25  N   UNL     1      -9.223   5.300 -32.340  1.00  0.00    -0.122 NA
BRANCH  22  26
HETATM   26  C   UNL     1     -11.862   2.994 -33.121  1.00  0.00     0.043 A 
HETATM   27  C   UNL     1     -13.166   3.305 -32.720  1.00  0.00     0.030 A 
HETATM   28  C   UNL     1     -14.176   2.351 -32.850  1.00  0.00     0.002 A 
HETATM   29  C   UNL     1     -13.886   1.088 -33.368  1.00  0.00     0.000 A 
HETATM   30  C   UNL     1     -12.586   0.772 -33.758  1.00  0.00     0.002 A 
HETATM   31  C   UNL     1     -11.571   1.722 -33.640  1.00  0.00     0.030 A 
ENDBRANCH  22  26
BRANCH  23  32
HETATM   32  C   UNL     1     -11.202   5.079 -35.326  1.00  0.00     0.315 C 
BRANCH  32  33
HETATM   33  N   UNL     1     -12.090   6.301 -35.231  1.00  0.00    -0.064 N 
HETATM   34  H   UNL     1     -12.142   6.508 -34.219  1.00  0.00     0.280 HD
HETATM   35  C   UNL     1     -13.519   6.070 -35.688  1.00  0.00     0.235 C 
HETATM   36  C   UNL     1     -13.711   7.054 -36.826  1.00  0.00     0.029 C 
HETATM   37  C   UNL     1     -12.814   8.214 -36.445  1.00  0.00     0.029 C 
HETATM   38  C   UNL     1     -11.564   7.519 -35.942  1.00  0.00     0.235 C 
ENDBRANCH  32  33
ENDBRANCH  23  32
ENDBRANCH  20  21
ENDBRANCH   1  20
TORSDOF 9
ENDMDL
