MODEL 1
REMARK VINA RESULT:      -8.3      0.000      0.000
REMARK  4 active torsions:
REMARK  status: ('A' for Active; 'I' for Inactive)
REMARK    1  A    between atoms: C_4  and  N_5 
REMARK    2  A    between atoms: N_5  and  N_6 
REMARK       I    between atoms: N_6  and  C_7 
REMARK    3  A    between atoms: C_7  and  C_8 
REMARK    4  A    between atoms: C_9  and  C_10 
ROOT
HETATM    1  C   UNL     1      -5.255   2.001 -30.792  1.00  0.00     0.081 A 
HETATM    2  C   UNL     1      -6.524   2.092 -31.444  1.00  0.00     0.106 A 
HETATM    3  N   UNL     1      -7.306   3.013 -30.858  1.00  0.00    -0.173 NA
HETATM    4  N   UNL     1      -6.564   3.500 -29.857  1.00  0.00    -0.288 N 
HETATM    5  H   UNL     1      -6.965   4.223 -29.267  1.00  0.00     0.188 HD
HETATM    6  C   UNL     1      -5.324   2.949 -29.788  1.00  0.00     0.128 A 
ENDROOT
BRANCH   1   7
HETATM    7  C   UNL     1      -4.085   1.184 -31.066  1.00  0.00     0.270 C 
HETATM    8  N   UNL     1      -4.326  -0.175 -31.168  1.00  0.00    -0.283 N 
HETATM    9  H   UNL     1      -5.235  -0.595 -31.006  1.00  0.00     0.184 HD
HETATM   10  O   UNL     1      -2.967   1.682 -31.182  1.00  0.00    -0.266 OA
BRANCH   8  11
HETATM   11  N   UNL     1      -3.224  -1.029 -31.340  1.00  0.00    -0.203 NA
HETATM   12  H   UNL     1      -2.363  -0.510 -31.515  1.00  0.00     0.153 HD
BRANCH  11  13
HETATM   13  C   UNL     1      -3.429  -2.116 -32.216  1.00  0.00     0.028 A 
HETATM   14  C   UNL     1      -4.273  -2.025 -33.334  1.00  0.00     0.032 A 
HETATM   15  C   UNL     1      -4.522  -3.138 -34.152  1.00  0.00    -0.060 A 
HETATM   16  C   UNL     1      -5.465  -3.036 -35.315  1.00  0.00     0.048 C 
HETATM   17  C   UNL     1      -3.945  -4.368 -33.822  1.00  0.00     0.007 A 
HETATM   18  C   UNL     1      -3.129  -4.482 -32.699  1.00  0.00     0.002 A 
HETATM   19  C   UNL     1      -2.883  -3.365 -31.898  1.00  0.00     0.025 A 
ENDBRANCH  11  13
ENDBRANCH   8  11
ENDBRANCH   1   7
BRANCH   2  20
HETATM   20  C   UNL     1      -6.984   1.407 -32.649  1.00  0.00     0.017 A 
HETATM   21  C   UNL     1      -6.743   1.903 -33.939  1.00  0.00     0.046 A 
HETATM   22 CL   UNL     1      -5.961   3.419 -34.225  1.00  0.00    -0.083 Cl
HETATM   23  C   UNL     1      -7.184   1.189 -35.059  1.00  0.00     0.025 A 
HETATM   24  C   UNL     1      -7.875  -0.014 -34.900  1.00  0.00     0.002 A 
HETATM   25  C   UNL     1      -8.127  -0.508 -33.623  1.00  0.00     0.001 A 
HETATM   26  C   UNL     1      -7.682   0.196 -32.502  1.00  0.00     0.016 A 
ENDBRANCH   2  20
TORSDOF 4
ENDMDL
MODEL 2
REMARK VINA RESULT:      -8.1      3.849      6.209
REMARK  4 active torsions:
REMARK  status: ('A' for Active; 'I' for Inactive)
REMARK    1  A    between atoms: C_4  and  N_5 
REMARK    2  A    between atoms: N_5  and  N_6 
REMARK       I    between atoms: N_6  and  C_7 
REMARK    3  A    between atoms: C_7  and  C_8 
REMARK    4  A    between atoms: C_9  and  C_10 
ROOT
HETATM    1  C   UNL     1      -5.670   1.925 -31.541  1.00  0.00     0.081 A 
HETATM    2  C   UNL     1      -5.911   0.518 -31.465  1.00  0.00     0.106 A 
HETATM    3  N   UNL     1      -6.272   0.153 -30.225  1.00  0.00    -0.173 NA
HETATM    4  N   UNL     1      -6.263   1.291 -29.521  1.00  0.00    -0.288 N 
HETATM    5  H   UNL     1      -6.507   1.251 -28.536  1.00  0.00     0.188 HD
HETATM    6  C   UNL     1      -5.934   2.381 -30.263  1.00  0.00     0.128 A 
ENDROOT
BRANCH   1   7
HETATM    7  C   UNL     1      -5.287   2.781 -32.651  1.00  0.00     0.270 C 
HETATM    8  N   UNL     1      -4.064   3.416 -32.511  1.00  0.00    -0.283 N 
HETATM    9  H   UNL     1      -3.493   3.349 -31.677  1.00  0.00     0.184 HD
HETATM   10  O   UNL     1      -6.016   2.929 -33.629  1.00  0.00    -0.266 OA
BRANCH   8  11
HETATM   11  N   UNL     1      -3.679   4.329 -33.507  1.00  0.00    -0.203 NA
HETATM   12  H   UNL     1      -3.579   3.881 -34.418  1.00  0.00     0.153 HD
BRANCH  11  13
HETATM   13  C   UNL     1      -2.607   5.182 -33.165  1.00  0.00     0.028 A 
HETATM   14  C   UNL     1      -1.606   4.798 -32.261  1.00  0.00     0.032 A 
HETATM   15  C   UNL     1      -0.589   5.687 -31.876  1.00  0.00    -0.060 A 
HETATM   16  C   UNL     1       0.446   5.275 -30.872  1.00  0.00     0.048 C 
HETATM   17  C   UNL     1      -0.600   6.991 -32.380  1.00  0.00     0.007 A 
HETATM   18  C   UNL     1      -1.604   7.397 -33.256  1.00  0.00     0.002 A 
HETATM   19  C   UNL     1      -2.606   6.501 -33.635  1.00  0.00     0.025 A 
ENDBRANCH  11  13
ENDBRANCH   8  11
ENDBRANCH   1   7
BRANCH   2  20
HETATM   20  C   UNL     1      -5.900  -0.470 -32.540  1.00  0.00     0.017 A 
HETATM   21  C   UNL     1      -7.035  -0.763 -33.310  1.00  0.00     0.046 A 
HETATM   22 CL   UNL     1      -8.581  -0.053 -33.000  1.00  0.00    -0.083 Cl
HETATM   23  C   UNL     1      -6.958  -1.701 -34.346  1.00  0.00     0.025 A 
HETATM   24  C   UNL     1      -5.755  -2.358 -34.614  1.00  0.00     0.002 A 
HETATM   25  C   UNL     1      -4.626  -2.081 -33.848  1.00  0.00     0.001 A 
HETATM   26  C   UNL     1      -4.695  -1.140 -32.818  1.00  0.00     0.016 A 
ENDBRANCH   2  20
TORSDOF 4
ENDMDL
MODEL 3
REMARK VINA RESULT:      -8.1      3.908      6.237
REMARK  4 active torsions:
REMARK  status: ('A' for Active; 'I' for Inactive)
REMARK    1  A    between atoms: C_4  and  N_5 
REMARK    2  A    between atoms: N_5  and  N_6 
REMARK       I    between atoms: N_6  and  C_7 
REMARK    3  A    between atoms: C_7  and  C_8 
REMARK    4  A    between atoms: C_9  and  C_10 
ROOT
HETATM    1  C   UNL     1      -5.347   1.881 -31.354  1.00  0.00     0.081 A 
HETATM    2  C   UNL     1      -5.725   0.503 -31.330  1.00  0.00     0.106 A 
HETATM    3  N   UNL     1      -6.218   0.155 -30.130  1.00  0.00    -0.173 NA
HETATM    4  N   UNL     1      -6.156   1.276 -29.402  1.00  0.00    -0.288 N 
HETATM    5  H   UNL     1      -6.482   1.244 -28.440  1.00  0.00     0.188 HD
HETATM    6  C   UNL     1      -5.669   2.341 -30.090  1.00  0.00     0.128 A 
ENDROOT
BRANCH   1   7
HETATM    7  C   UNL     1      -4.798   2.714 -32.412  1.00  0.00     0.270 C 
HETATM    8  N   UNL     1      -3.522   3.196 -32.179  1.00  0.00    -0.283 N 
HETATM    9  H   UNL     1      -3.015   3.040 -31.314  1.00  0.00     0.184 HD
HETATM   10  O   UNL     1      -5.443   2.971 -33.426  1.00  0.00    -0.266 OA
BRANCH   8  11
HETATM   11  N   UNL     1      -2.970   4.081 -33.120  1.00  0.00    -0.203 NA
HETATM   12  H   UNL     1      -2.726   3.610 -33.990  1.00  0.00     0.153 HD
BRANCH  11  13
HETATM   13  C   UNL     1      -1.963   4.939 -32.627  1.00  0.00     0.028 A 
HETATM   14  C   UNL     1      -1.302   4.696 -31.414  1.00  0.00     0.032 A 
HETATM   15  C   UNL     1      -0.356   5.599 -30.905  1.00  0.00    -0.060 A 
HETATM   16  C   UNL     1       0.306   5.347 -29.582  1.00  0.00     0.048 C 
HETATM   17  C   UNL     1      -0.096   6.780 -31.606  1.00  0.00     0.007 A 
HETATM   18  C   UNL     1      -0.766   7.050 -32.797  1.00  0.00     0.002 A 
HETATM   19  C   UNL     1      -1.700   6.141 -33.296  1.00  0.00     0.025 A 
ENDBRANCH  11  13
ENDBRANCH   8  11
ENDBRANCH   1   7
BRANCH   2  20
HETATM   20  C   UNL     1      -5.722  -0.465 -32.423  1.00  0.00     0.017 A 
HETATM   21  C   UNL     1      -4.607  -1.260 -32.727  1.00  0.00     0.046 A 
HETATM   22 CL   UNL     1      -3.097  -1.104 -31.898  1.00  0.00    -0.083 Cl
HETATM   23  C   UNL     1      -4.671  -2.191 -33.770  1.00  0.00     0.025 A 
HETATM   24  C   UNL     1      -5.841  -2.328 -34.521  1.00  0.00     0.002 A 
HETATM   25  C   UNL     1      -6.948  -1.536 -34.233  1.00  0.00     0.001 A 
HETATM   26  C   UNL     1      -6.893  -0.611 -33.188  1.00  0.00     0.016 A 
ENDBRANCH   2  20
TORSDOF 4
ENDMDL
MODEL 4
REMARK VINA RESULT:      -7.9      2.961      3.606
REMARK  4 active torsions:
REMARK  status: ('A' for Active; 'I' for Inactive)
REMARK    1  A    between atoms: C_4  and  N_5 
REMARK    2  A    between atoms: N_5  and  N_6 
REMARK       I    between atoms: N_6  and  C_7 
REMARK    3  A    between atoms: C_7  and  C_8 
REMARK    4  A    between atoms: C_9  and  C_10 
ROOT
HETATM    1  C   UNL     1      -8.039   1.690 -32.367  1.00  0.00     0.081 A 
HETATM    2  C   UNL     1      -9.392   2.144 -32.289  1.00  0.00     0.106 A 
HETATM    3  N   UNL     1      -9.667   2.644 -31.073  1.00  0.00    -0.173 NA
HETATM    4  N   UNL     1      -8.525   2.513 -30.388  1.00  0.00    -0.288 N 
HETATM    5  H   UNL     1      -8.504   2.831 -29.423  1.00  0.00     0.188 HD
HETATM    6  C   UNL     1      -7.516   1.973 -31.119  1.00  0.00     0.128 A 
ENDROOT
BRANCH   1   7
HETATM    7  C   UNL     1      -7.277   1.105 -33.459  1.00  0.00     0.270 C 
HETATM    8  N   UNL     1      -6.402   0.097 -33.092  1.00  0.00    -0.283 N 
HETATM    9  H   UNL     1      -6.246  -0.184 -32.131  1.00  0.00     0.184 HD
HETATM   10  O   UNL     1      -7.405   1.501 -34.615  1.00  0.00    -0.266 OA
BRANCH   8  11
HETATM   11  N   UNL     1      -5.570  -0.446 -34.085  1.00  0.00    -0.203 NA
HETATM   12  H   UNL     1      -5.657   0.052 -34.971  1.00  0.00     0.153 HD
BRANCH  11  13
HETATM   13  C   UNL     1      -5.611  -1.851 -34.209  1.00  0.00     0.028 A 
HETATM   14  C   UNL     1      -4.494  -2.657 -33.946  1.00  0.00     0.032 A 
HETATM   15  C   UNL     1      -4.532  -4.047 -34.146  1.00  0.00    -0.060 A 
HETATM   16  C   UNL     1      -3.313  -4.887 -33.907  1.00  0.00     0.048 C 
HETATM   17  C   UNL     1      -5.699  -4.629 -34.651  1.00  0.00     0.007 A 
HETATM   18  C   UNL     1      -6.808  -3.838 -34.945  1.00  0.00     0.002 A 
HETATM   19  C   UNL     1      -6.758  -2.459 -34.735  1.00  0.00     0.025 A 
ENDBRANCH  11  13
ENDBRANCH   8  11
ENDBRANCH   1   7
BRANCH   2  20
HETATM   20  C   UNL     1     -10.397   2.205 -33.346  1.00  0.00     0.017 A 
HETATM   21  C   UNL     1     -10.458   3.255 -34.274  1.00  0.00     0.046 A 
HETATM   22 CL   UNL     1      -9.406   4.627 -34.199  1.00  0.00    -0.083 Cl
HETATM   23  C   UNL     1     -11.428   3.246 -35.282  1.00  0.00     0.025 A 
HETATM   24  C   UNL     1     -12.348   2.199 -35.366  1.00  0.00     0.002 A 
HETATM   25  C   UNL     1     -12.302   1.159 -34.442  1.00  0.00     0.001 A 
HETATM   26  C   UNL     1     -11.331   1.158 -33.439  1.00  0.00     0.016 A 
ENDBRANCH   2  20
TORSDOF 4
ENDMDL
MODEL 5
REMARK VINA RESULT:      -7.9      5.009      6.741
REMARK  4 active torsions:
REMARK  status: ('A' for Active; 'I' for Inactive)
REMARK    1  A    between atoms: C_4  and  N_5 
REMARK    2  A    between atoms: N_5  and  N_6 
REMARK       I    between atoms: N_6  and  C_7 
REMARK    3  A    between atoms: C_7  and  C_8 
REMARK    4  A    between atoms: C_9  and  C_10 
ROOT
HETATM    1  C   UNL     1      -1.974   4.947 -33.093  1.00  0.00     0.081 A 
HETATM    2  C   UNL     1      -1.301   6.176 -32.811  1.00  0.00     0.106 A 
HETATM    3  N   UNL     1      -0.965   6.817 -33.942  1.00  0.00    -0.173 NA
HETATM    4  N   UNL     1      -1.407   6.023 -34.925  1.00  0.00    -0.288 N 
HETATM    5  H   UNL     1      -1.256   6.316 -35.885  1.00  0.00     0.188 HD
HETATM    6  C   UNL     1      -2.037   4.907 -34.474  1.00  0.00     0.128 A 
ENDROOT
BRANCH   1   7
HETATM    7  C   UNL     1      -2.542   3.934 -32.219  1.00  0.00     0.270 C 
HETATM    8  N   UNL     1      -3.724   3.368 -32.665  1.00  0.00    -0.283 N 
HETATM    9  H   UNL     1      -4.205   3.669 -33.506  1.00  0.00     0.184 HD
HETATM   10  O   UNL     1      -2.004   3.626 -31.159  1.00  0.00    -0.266 OA
BRANCH   8  11
HETATM   11  N   UNL     1      -4.373   2.449 -31.824  1.00  0.00    -0.203 NA
HETATM   12  H   UNL     1      -4.169   2.622 -30.840  1.00  0.00     0.153 HD
BRANCH  11  13
HETATM   13  C   UNL     1      -4.261   1.095 -32.205  1.00  0.00     0.028 A 
HETATM   14  C   UNL     1      -5.170   0.489 -33.085  1.00  0.00     0.032 A 
HETATM   15  C   UNL     1      -5.087  -0.878 -33.394  1.00  0.00    -0.060 A 
HETATM   16  C   UNL     1      -6.096  -1.520 -34.300  1.00  0.00     0.048 C 
HETATM   17  C   UNL     1      -4.098  -1.655 -32.782  1.00  0.00     0.007 A 
HETATM   18  C   UNL     1      -3.206  -1.074 -31.883  1.00  0.00     0.002 A 
HETATM   19  C   UNL     1      -3.296   0.287 -31.590  1.00  0.00     0.025 A 
ENDBRANCH  11  13
ENDBRANCH   8  11
ENDBRANCH   1   7
BRANCH   2  20
HETATM   20  C   UNL     1      -1.049   6.804 -31.517  1.00  0.00     0.017 A 
HETATM   21  C   UNL     1       0.012   6.420 -30.683  1.00  0.00     0.046 A 
HETATM   22 CL   UNL     1       1.068   5.104 -31.064  1.00  0.00    -0.083 Cl
HETATM   23  C   UNL     1       0.221   7.076 -29.465  1.00  0.00     0.025 A 
HETATM   24  C   UNL     1      -0.630   8.110 -29.066  1.00  0.00     0.002 A 
HETATM   25  C   UNL     1      -1.692   8.490 -29.883  1.00  0.00     0.001 A 
HETATM   26  C   UNL     1      -1.900   7.844 -31.103  1.00  0.00     0.016 A 
ENDBRANCH   2  20
TORSDOF 4
ENDMDL
MODEL 6
REMARK VINA RESULT:      -7.8      3.435      5.754
REMARK  4 active torsions:
REMARK  status: ('A' for Active; 'I' for Inactive)
REMARK    1  A    between atoms: C_4  and  N_5 
REMARK    2  A    between atoms: N_5  and  N_6 
REMARK       I    between atoms: N_6  and  C_7 
REMARK    3  A    between atoms: C_7  and  C_8 
REMARK    4  A    between atoms: C_9  and  C_10 
ROOT
HETATM    1  C   UNL     1      -9.393   2.339 -33.006  1.00  0.00     0.081 A 
HETATM    2  C   UNL     1      -9.028   0.969 -32.827  1.00  0.00     0.106 A 
HETATM    3  N   UNL     1     -10.105   0.168 -32.874  1.00  0.00    -0.173 NA
HETATM    4  N   UNL     1     -11.135   0.999 -33.074  1.00  0.00    -0.288 N 
HETATM    5  H   UNL     1     -12.067   0.602 -33.141  1.00  0.00     0.188 HD
HETATM    6  C   UNL     1     -10.764   2.301 -33.185  1.00  0.00     0.128 A 
ENDROOT
BRANCH   1   7
HETATM    7  C   UNL     1      -8.595   3.553 -33.057  1.00  0.00     0.270 C 
HETATM    8  N   UNL     1      -7.623   3.578 -34.042  1.00  0.00    -0.283 N 
HETATM    9  H   UNL     1      -7.427   2.792 -34.652  1.00  0.00     0.184 HD
HETATM   10  O   UNL     1      -8.778   4.475 -32.265  1.00  0.00    -0.266 OA
BRANCH   8  11
HETATM   11  N   UNL     1      -6.758   4.684 -34.086  1.00  0.00    -0.203 NA
HETATM   12  H   UNL     1      -6.902   5.248 -34.923  1.00  0.00     0.153 HD
BRANCH  11  13
HETATM   13  C   UNL     1      -5.403   4.405 -33.805  1.00  0.00     0.028 A 
HETATM   14  C   UNL     1      -5.019   3.489 -32.815  1.00  0.00     0.032 A 
HETATM   15  C   UNL     1      -3.667   3.280 -32.500  1.00  0.00    -0.060 A 
HETATM   16  C   UNL     1      -3.275   2.332 -31.405  1.00  0.00     0.048 C 
HETATM   17  C   UNL     1      -2.689   4.028 -33.163  1.00  0.00     0.007 A 
HETATM   18  C   UNL     1      -3.057   4.963 -34.129  1.00  0.00     0.002 A 
HETATM   19  C   UNL     1      -4.405   5.156 -34.437  1.00  0.00     0.025 A 
ENDBRANCH  11  13
ENDBRANCH   8  11
ENDBRANCH   1   7
BRANCH   2  20
HETATM   20  C   UNL     1      -7.694   0.387 -32.707  1.00  0.00     0.017 A 
HETATM   21  C   UNL     1      -6.920   0.032 -33.821  1.00  0.00     0.046 A 
HETATM   22 CL   UNL     1      -7.507   0.160 -35.443  1.00  0.00    -0.083 Cl
HETATM   23  C   UNL     1      -5.636  -0.497 -33.645  1.00  0.00     0.025 A 
HETATM   24  C   UNL     1      -5.121  -0.684 -32.360  1.00  0.00     0.002 A 
HETATM   25  C   UNL     1      -5.887  -0.343 -31.248  1.00  0.00     0.001 A 
HETATM   26  C   UNL     1      -7.165   0.193 -31.418  1.00  0.00     0.016 A 
ENDBRANCH   2  20
TORSDOF 4
ENDMDL
MODEL 7
REMARK VINA RESULT:      -7.7      3.295      6.419
REMARK  4 active torsions:
REMARK  status: ('A' for Active; 'I' for Inactive)
REMARK    1  A    between atoms: C_4  and  N_5 
REMARK    2  A    between atoms: N_5  and  N_6 
REMARK       I    between atoms: N_6  and  C_7 
REMARK    3  A    between atoms: C_7  and  C_8 
REMARK    4  A    between atoms: C_9  and  C_10 
ROOT
HETATM    1  C   UNL     1      -6.867   1.999 -31.593  1.00  0.00     0.081 A 
HETATM    2  C   UNL     1      -6.327   0.681 -31.469  1.00  0.00     0.106 A 
HETATM    3  N   UNL     1      -6.082   0.374 -30.185  1.00  0.00    -0.173 NA
HETATM    4  N   UNL     1      -6.452   1.464 -29.501  1.00  0.00    -0.288 N 
HETATM    5  H   UNL     1      -6.350   1.456 -28.491  1.00  0.00     0.188 HD
HETATM    6  C   UNL     1      -6.949   2.452 -30.289  1.00  0.00     0.128 A 
ENDROOT
BRANCH   1   7
HETATM    7  C   UNL     1      -7.307   2.758 -32.752  1.00  0.00     0.270 C 
HETATM    8  N   UNL     1      -8.635   3.148 -32.730  1.00  0.00    -0.283 N 
HETATM    9  H   UNL     1      -9.283   2.881 -31.998  1.00  0.00     0.184 HD
HETATM   10  O   UNL     1      -6.542   3.013 -33.679  1.00  0.00    -0.266 OA
BRANCH   8  11
HETATM   11  N   UNL     1      -9.146   3.805 -33.861  1.00  0.00    -0.203 NA
HETATM   12  H   UNL     1      -9.081   4.819 -33.776  1.00  0.00     0.153 HD
BRANCH  11  13
HETATM   13  C   UNL     1     -10.401   3.345 -34.314  1.00  0.00     0.028 A 
HETATM   14  C   UNL     1     -11.009   2.194 -33.789  1.00  0.00     0.032 A 
HETATM   15  C   UNL     1     -12.222   1.710 -34.303  1.00  0.00    -0.060 A 
HETATM   16  C   UNL     1     -12.833   0.452 -33.762  1.00  0.00     0.048 C 
HETATM   17  C   UNL     1     -12.816   2.371 -35.383  1.00  0.00     0.007 A 
HETATM   18  C   UNL     1     -12.210   3.498 -35.935  1.00  0.00     0.002 A 
HETATM   19  C   UNL     1     -11.007   3.973 -35.410  1.00  0.00     0.025 A 
ENDBRANCH  11  13
ENDBRANCH   8  11
ENDBRANCH   1   7
BRANCH   2  20
HETATM   20  C   UNL     1      -6.123  -0.324 -32.509  1.00  0.00     0.017 A 
HETATM   21  C   UNL     1      -7.175  -0.843 -33.277  1.00  0.00     0.046 A 
HETATM   22 CL   UNL     1      -8.829  -0.412 -33.005  1.00  0.00    -0.083 Cl
HETATM   23  C   UNL     1      -6.916  -1.785 -34.279  1.00  0.00     0.025 A 
HETATM   24  C   UNL     1      -5.610  -2.223 -34.513  1.00  0.00     0.002 A 
HETATM   25  C   UNL     1      -4.561  -1.721 -33.748  1.00  0.00     0.001 A 
HETATM   26  C   UNL     1      -4.813  -0.774 -32.753  1.00  0.00     0.016 A 
ENDBRANCH   2  20
TORSDOF 4
ENDMDL
MODEL 8
REMARK VINA RESULT:      -7.7      4.495      6.584
REMARK  4 active torsions:
REMARK  status: ('A' for Active; 'I' for Inactive)
REMARK    1  A    between atoms: C_4  and  N_5 
REMARK    2  A    between atoms: N_5  and  N_6 
REMARK       I    between atoms: N_6  and  C_7 
REMARK    3  A    between atoms: C_7  and  C_8 
REMARK    4  A    between atoms: C_9  and  C_10 
ROOT
HETATM    1  C   UNL     1      -2.643   4.794 -33.195  1.00  0.00     0.081 A 
HETATM    2  C   UNL     1      -1.692   5.760 -32.742  1.00  0.00     0.106 A 
HETATM    3  N   UNL     1      -1.457   6.689 -33.684  1.00  0.00    -0.173 NA
HETATM    4  N   UNL     1      -2.232   6.330 -34.713  1.00  0.00    -0.288 N 
HETATM    5  H   UNL     1      -2.213   6.901 -35.553  1.00  0.00     0.188 HD
HETATM    6  C   UNL     1      -2.978   5.222 -34.466  1.00  0.00     0.128 A 
ENDROOT
BRANCH   1   7
HETATM    7  C   UNL     1      -3.227   3.634 -32.542  1.00  0.00     0.270 C 
HETATM    8  N   UNL     1      -4.509   3.310 -32.954  1.00  0.00    -0.283 N 
HETATM    9  H   UNL     1      -5.040   3.866 -33.615  1.00  0.00     0.184 HD
HETATM   10  O   UNL     1      -2.616   3.007 -31.680  1.00  0.00    -0.266 OA
BRANCH   8  11
HETATM   11  N   UNL     1      -5.165   2.256 -32.297  1.00  0.00    -0.203 NA
HETATM   12  H   UNL     1      -4.610   1.883 -31.526  1.00  0.00     0.153 HD
BRANCH  11  13
HETATM   13  C   UNL     1      -5.719   1.268 -33.139  1.00  0.00     0.028 A 
HETATM   14  C   UNL     1      -5.209  -0.037 -33.196  1.00  0.00     0.032 A 
HETATM   15  C   UNL     1      -5.726  -0.985 -34.093  1.00  0.00    -0.060 A 
HETATM   16  C   UNL     1      -5.136  -2.362 -34.174  1.00  0.00     0.048 C 
HETATM   17  C   UNL     1      -6.746  -0.605 -34.971  1.00  0.00     0.007 A 
HETATM   18  C   UNL     1      -7.243   0.696 -34.947  1.00  0.00     0.002 A 
HETATM   19  C   UNL     1      -6.725   1.627 -34.045  1.00  0.00     0.025 A 
ENDBRANCH  11  13
ENDBRANCH   8  11
ENDBRANCH   1   7
BRANCH   2  20
HETATM   20  C   UNL     1      -1.072   5.886 -31.426  1.00  0.00     0.017 A 
HETATM   21  C   UNL     1      -1.641   6.643 -30.391  1.00  0.00     0.046 A 
HETATM   22 CL   UNL     1      -3.081   7.578 -30.602  1.00  0.00    -0.083 Cl
HETATM   23  C   UNL     1      -1.015   6.705 -29.141  1.00  0.00     0.025 A 
HETATM   24  C   UNL     1       0.183   6.023 -28.918  1.00  0.00     0.002 A 
HETATM   25  C   UNL     1       0.759   5.277 -29.942  1.00  0.00     0.001 A 
HETATM   26  C   UNL     1       0.135   5.205 -31.190  1.00  0.00     0.016 A 
ENDBRANCH   2  20
TORSDOF 4
ENDMDL
MODEL 9
REMARK VINA RESULT:      -7.6      2.763      4.055
REMARK  4 active torsions:
REMARK  status: ('A' for Active; 'I' for Inactive)
REMARK    1  A    between atoms: C_4  and  N_5 
REMARK    2  A    between atoms: N_5  and  N_6 
REMARK       I    between atoms: N_6  and  C_7 
REMARK    3  A    between atoms: C_7  and  C_8 
REMARK    4  A    between atoms: C_9  and  C_10 
ROOT
HETATM    1  C   UNL     1      -6.822   2.788 -31.453  1.00  0.00     0.081 A 
HETATM    2  C   UNL     1      -5.792   3.729 -31.141  1.00  0.00     0.106 A 
HETATM    3  N   UNL     1      -5.877   4.138 -29.865  1.00  0.00    -0.173 NA
HETATM    4  N   UNL     1      -6.931   3.480 -29.369  1.00  0.00    -0.288 N 
HETATM    5  H   UNL     1      -7.187   3.641 -28.399  1.00  0.00     0.188 HD
HETATM    6  C   UNL     1      -7.516   2.644 -30.265  1.00  0.00     0.128 A 
ENDROOT
BRANCH   1   7
HETATM    7  C   UNL     1      -7.126   2.057 -32.672  1.00  0.00     0.270 C 
HETATM    8  N   UNL     1      -7.421   0.716 -32.495  1.00  0.00    -0.283 N 
HETATM    9  H   UNL     1      -7.373   0.246 -31.598  1.00  0.00     0.184 HD
HETATM   10  O   UNL     1      -7.105   2.605 -33.771  1.00  0.00    -0.266 OA
BRANCH   8  11
HETATM   11  N   UNL     1      -7.634  -0.068 -33.642  1.00  0.00    -0.203 NA
HETATM   12  H   UNL     1      -8.577  -0.456 -33.669  1.00  0.00     0.153 HD
BRANCH  11  13
HETATM   13  C   UNL     1      -6.618  -1.003 -33.934  1.00  0.00     0.028 A 
HETATM   14  C   UNL     1      -6.891  -2.237 -34.542  1.00  0.00     0.032 A 
HETATM   15  C   UNL     1      -5.878  -3.185 -34.758  1.00  0.00    -0.060 A 
HETATM   16  C   UNL     1      -6.197  -4.519 -35.366  1.00  0.00     0.048 C 
HETATM   17  C   UNL     1      -4.579  -2.903 -34.325  1.00  0.00     0.007 A 
HETATM   18  C   UNL     1      -4.297  -1.694 -33.693  1.00  0.00     0.002 A 
HETATM   19  C   UNL     1      -5.313  -0.757 -33.490  1.00  0.00     0.025 A 
ENDBRANCH  11  13
ENDBRANCH   8  11
ENDBRANCH   1   7
BRANCH   2  20
HETATM   20  C   UNL     1      -4.685   4.182 -31.978  1.00  0.00     0.017 A 
HETATM   21  C   UNL     1      -3.566   3.381 -32.252  1.00  0.00     0.046 A 
HETATM   22 CL   UNL     1      -3.346   1.815 -31.549  1.00  0.00    -0.083 Cl
HETATM   23  C   UNL     1      -2.547   3.858 -33.083  1.00  0.00     0.025 A 
HETATM   24  C   UNL     1      -2.631   5.137 -33.638  1.00  0.00     0.002 A 
HETATM   25  C   UNL     1      -3.732   5.943 -33.363  1.00  0.00     0.001 A 
HETATM   26  C   UNL     1      -4.756   5.469 -32.540  1.00  0.00     0.016 A 
ENDBRANCH   2  20
TORSDOF 4
ENDMDL
MODEL 10
REMARK VINA RESULT:      -7.6      2.326      2.672
REMARK  4 active torsions:
REMARK  status: ('A' for Active; 'I' for Inactive)
REMARK    1  A    between atoms: C_4  and  N_5 
REMARK    2  A    between atoms: N_5  and  N_6 
REMARK       I    between atoms: N_6  and  C_7 
REMARK    3  A    between atoms: C_7  and  C_8 
REMARK    4  A    between atoms: C_9  and  C_10 
ROOT
HETATM    1  C   UNL     1      -6.353   1.201 -31.639  1.00  0.00     0.081 A 
HETATM    2  C   UNL     1      -7.565   1.949 -31.519  1.00  0.00     0.106 A 
HETATM    3  N   UNL     1      -7.773   2.335 -30.249  1.00  0.00    -0.173 NA
HETATM    4  N   UNL     1      -6.728   1.847 -29.571  1.00  0.00    -0.288 N 
HETATM    5  H   UNL     1      -6.679   2.019 -28.572  1.00  0.00     0.188 HD
HETATM    6  C   UNL     1      -5.839   1.183 -30.356  1.00  0.00     0.128 A 
ENDROOT
BRANCH   1   7
HETATM    7  C   UNL     1      -5.698   0.602 -32.791  1.00  0.00     0.270 C 
HETATM    8  N   UNL     1      -4.758  -0.370 -32.493  1.00  0.00    -0.283 N 
HETATM    9  H   UNL     1      -4.489  -0.616 -31.547  1.00  0.00     0.184 HD
HETATM   10  O   UNL     1      -5.964   0.956 -33.937  1.00  0.00    -0.266 OA
BRANCH   8  11
HETATM   11  N   UNL     1      -4.023  -0.923 -33.555  1.00  0.00    -0.203 NA
HETATM   12  H   UNL     1      -4.061  -0.338 -34.390  1.00  0.00     0.153 HD
BRANCH  11  13
HETATM   13  C   UNL     1      -4.251  -2.294 -33.802  1.00  0.00     0.028 A 
HETATM   14  C   UNL     1      -5.319  -2.743 -34.592  1.00  0.00     0.032 A 
HETATM   15  C   UNL     1      -5.574  -4.113 -34.766  1.00  0.00    -0.060 A 
HETATM   16  C   UNL     1      -6.748  -4.576 -35.575  1.00  0.00     0.048 C 
HETATM   17  C   UNL     1      -4.765  -5.044 -34.106  1.00  0.00     0.007 A 
HETATM   18  C   UNL     1      -3.719  -4.613 -33.293  1.00  0.00     0.002 A 
HETATM   19  C   UNL     1      -3.473  -3.248 -33.135  1.00  0.00     0.025 A 
ENDBRANCH  11  13
ENDBRANCH   8  11
ENDBRANCH   1   7
BRANCH   2  20
HETATM   20  C   UNL     1      -8.477   2.388 -32.571  1.00  0.00     0.017 A 
HETATM   21  C   UNL     1      -9.507   1.575 -33.067  1.00  0.00     0.046 A 
HETATM   22 CL   UNL     1      -9.738  -0.059 -32.547  1.00  0.00    -0.083 Cl
HETATM   23  C   UNL     1     -10.368   2.059 -34.058  1.00  0.00     0.025 A 
HETATM   24  C   UNL     1     -10.202   3.348 -34.567  1.00  0.00     0.002 A 
HETATM   25  C   UNL     1      -9.176   4.158 -34.089  1.00  0.00     0.001 A 
HETATM   26  C   UNL     1      -8.319   3.683 -33.093  1.00  0.00     0.016 A 
ENDBRANCH   2  20
TORSDOF 4
ENDMDL
