MODEL 1
REMARK VINA RESULT:     -10.2      0.000      0.000
REMARK  6 active torsions:
REMARK  status: ('A' for Active; 'I' for Inactive)
REMARK    1  A    between atoms: C_4  and  C_5 
REMARK    2  A    between atoms: C_5  and  N_6 
REMARK    3  A    between atoms: C_5  and  C_20 
REMARK       I    between atoms: N_6  and  C_7 
REMARK    4  A    between atoms: C_7  and  C_8 
REMARK    5  A    between atoms: C_8  and  N_9 
REMARK    6  A    between atoms: C_21  and  O_22 
ROOT
HETATM    1  C   UNL     1      -7.351  -0.090 -32.822  1.00  0.00     0.154 C 
ENDROOT
BRANCH   1   2
HETATM    2  C   UNL     1      -6.419  -1.110 -33.483  1.00  0.00    -0.031 A 
HETATM    3  C   UNL     1      -6.887  -2.088 -34.378  1.00  0.00     0.009 A 
HETATM    4  C   UNL     1      -6.010  -3.016 -34.948  1.00  0.00     0.001 A 
HETATM    5  C   UNL     1      -4.657  -2.997 -34.619  1.00  0.00     0.000 A 
HETATM    6  C   UNL     1      -4.178  -2.057 -33.711  1.00  0.00     0.001 A 
HETATM    7  C   UNL     1      -5.053  -1.131 -33.141  1.00  0.00     0.009 A 
ENDBRANCH   1   2
BRANCH   1   8
HETATM    8  N   UNL     1      -8.269   0.562 -33.744  1.00  0.00    -0.347 N 
HETATM    9  C   UNL     1      -9.629   0.529 -33.543  1.00  0.00     0.236 C 
HETATM   10  O   UNL     1     -10.136  -0.124 -32.626  1.00  0.00    -0.272 OA
HETATM   11  H   UNL     1      -7.898   1.347 -34.277  1.00  0.00     0.163 HD
BRANCH   9  12
HETATM   12  C   UNL     1     -10.459   1.512 -34.379  1.00  0.00     0.236 C 
BRANCH  12  13
HETATM   13  N   UNL     1     -11.502   2.217 -33.668  1.00  0.00    -0.289 N 
HETATM   14  C   UNL     1     -11.273   3.114 -32.607  1.00  0.00     0.328 A 
HETATM   15  O   UNL     1     -10.201   3.592 -32.275  1.00  0.00    -0.247 OA
HETATM   16  N   UNL     1     -12.510   3.366 -32.006  1.00  0.00    -0.306 N 
HETATM   17  C   UNL     1     -13.478   2.591 -32.633  1.00  0.00     0.063 A 
HETATM   18  H   UNL     1     -12.637   3.964 -31.206  1.00  0.00     0.171 HD
HETATM   19  C   UNL     1     -12.865   1.869 -33.660  1.00  0.00     0.066 A 
HETATM   20  C   UNL     1     -14.814   2.466 -32.327  1.00  0.00     0.032 A 
HETATM   21  C   UNL     1     -13.583   0.981 -34.431  1.00  0.00     0.032 A 
HETATM   22  C   UNL     1     -14.946   0.834 -34.139  1.00  0.00     0.002 A 
HETATM   23  C   UNL     1     -15.554   1.567 -33.099  1.00  0.00     0.002 A 
ENDBRANCH  12  13
ENDBRANCH   9  12
ENDBRANCH   1   8
BRANCH   1  24
HETATM   24  C   UNL     1      -6.644   0.976 -31.970  1.00  0.00     0.013 A 
HETATM   25  C   UNL     1      -6.481   0.736 -30.591  1.00  0.00     0.075 A 
HETATM   26  C   UNL     1      -5.729   1.580 -29.786  1.00  0.00     0.038 A 
HETATM   27  C   UNL     1      -5.164   2.726 -30.329  1.00  0.00     0.015 A 
HETATM   28  C   UNL     1      -5.364   3.055 -31.675  1.00  0.00    -0.025 A 
HETATM   29  C   UNL     1      -6.120   2.194 -32.518  1.00  0.00    -0.015 A 
HETATM   30  C   UNL     1      -4.810   4.244 -32.180  1.00  0.00     0.012 A 
HETATM   31  C   UNL     1      -6.296   2.621 -33.858  1.00  0.00     0.013 A 
HETATM   32  C   UNL     1      -5.748   3.812 -34.344  1.00  0.00     0.001 A 
HETATM   33  C   UNL     1      -4.999   4.621 -33.506  1.00  0.00     0.001 A 
BRANCH  25  34
HETATM   34  O   UNL     1      -7.061  -0.328 -29.954  1.00  0.00    -0.360 OA
HETATM   35  H   UNL     1      -6.634  -0.420 -29.072  1.00  0.00     0.217 HD
ENDBRANCH  25  34
ENDBRANCH   1  24
TORSDOF 6
ENDMDL
MODEL 2
REMARK VINA RESULT:      -9.8      2.935      7.316
REMARK  6 active torsions:
REMARK  status: ('A' for Active; 'I' for Inactive)
REMARK    1  A    between atoms: C_4  and  C_5 
REMARK    2  A    between atoms: C_5  and  N_6 
REMARK    3  A    between atoms: C_5  and  C_20 
REMARK       I    between atoms: N_6  and  C_7 
REMARK    4  A    between atoms: C_7  and  C_8 
REMARK    5  A    between atoms: C_8  and  N_9 
REMARK    6  A    between atoms: C_21  and  O_22 
ROOT
HETATM    1  C   UNL     1      -8.397   2.942 -32.176  1.00  0.00     0.154 C 
ENDROOT
BRANCH   1   2
HETATM    2  C   UNL     1      -9.578   2.674 -33.114  1.00  0.00    -0.031 A 
HETATM    3  C   UNL     1      -9.899   3.528 -34.184  1.00  0.00     0.009 A 
HETATM    4  C   UNL     1     -10.996   3.261 -35.008  1.00  0.00     0.001 A 
HETATM    5  C   UNL     1     -11.802   2.152 -34.768  1.00  0.00     0.000 A 
HETATM    6  C   UNL     1     -11.521   1.311 -33.696  1.00  0.00     0.001 A 
HETATM    7  C   UNL     1     -10.426   1.576 -32.871  1.00  0.00     0.009 A 
ENDBRANCH   1   2
BRANCH   1   8
HETATM    8  N   UNL     1      -7.598   4.102 -32.542  1.00  0.00    -0.347 N 
HETATM    9  C   UNL     1      -7.389   5.136 -31.658  1.00  0.00     0.236 C 
HETATM   10  O   UNL     1      -7.937   5.167 -30.552  1.00  0.00    -0.272 OA
HETATM   11  H   UNL     1      -6.894   3.961 -33.265  1.00  0.00     0.163 HD
BRANCH   9  12
HETATM   12  C   UNL     1      -6.279   6.128 -32.030  1.00  0.00     0.236 C 
BRANCH  12  13
HETATM   13  N   UNL     1      -4.926   5.654 -31.846  1.00  0.00    -0.289 N 
HETATM   14  C   UNL     1      -4.237   5.671 -30.619  1.00  0.00     0.328 A 
HETATM   15  O   UNL     1      -4.718   5.872 -29.516  1.00  0.00    -0.247 OA
HETATM   16  N   UNL     1      -2.893   5.404 -30.897  1.00  0.00    -0.306 N 
HETATM   17  C   UNL     1      -2.734   5.292 -32.272  1.00  0.00     0.063 A 
HETATM   18  H   UNL     1      -2.168   5.374 -30.198  1.00  0.00     0.171 HD
HETATM   19  C   UNL     1      -3.985   5.452 -32.873  1.00  0.00     0.066 A 
HETATM   20  C   UNL     1      -1.577   5.103 -32.994  1.00  0.00     0.032 A 
HETATM   21  C   UNL     1      -4.124   5.426 -34.244  1.00  0.00     0.032 A 
HETATM   22  C   UNL     1      -2.961   5.236 -35.003  1.00  0.00     0.002 A 
HETATM   23  C   UNL     1      -1.702   5.078 -34.385  1.00  0.00     0.002 A 
ENDBRANCH  12  13
ENDBRANCH   9  12
ENDBRANCH   1   8
BRANCH   1  24
HETATM   24  C   UNL     1      -7.470   1.740 -31.942  1.00  0.00     0.013 A 
HETATM   25  C   UNL     1      -6.976   1.514 -30.642  1.00  0.00     0.075 A 
HETATM   26  C   UNL     1      -6.253   0.373 -30.322  1.00  0.00     0.038 A 
HETATM   27  C   UNL     1      -5.955  -0.553 -31.313  1.00  0.00     0.015 A 
HETATM   28  C   UNL     1      -6.351  -0.337 -32.638  1.00  0.00    -0.025 A 
HETATM   29  C   UNL     1      -7.103   0.820 -32.981  1.00  0.00    -0.015 A 
HETATM   30  C   UNL     1      -5.995  -1.276 -33.622  1.00  0.00     0.012 A 
HETATM   31  C   UNL     1      -7.435   0.973 -34.351  1.00  0.00     0.013 A 
HETATM   32  C   UNL     1      -7.066   0.036 -35.320  1.00  0.00     0.001 A 
HETATM   33  C   UNL     1      -6.351  -1.092 -34.955  1.00  0.00     0.001 A 
BRANCH  25  34
HETATM   34  O   UNL     1      -7.158   2.405 -29.619  1.00  0.00    -0.360 OA
HETATM   35  H   UNL     1      -8.073   2.287 -29.276  1.00  0.00     0.217 HD
ENDBRANCH  25  34
ENDBRANCH   1  24
TORSDOF 6
ENDMDL
MODEL 3
REMARK VINA RESULT:      -9.7      1.853      2.872
REMARK  6 active torsions:
REMARK  status: ('A' for Active; 'I' for Inactive)
REMARK    1  A    between atoms: C_4  and  C_5 
REMARK    2  A    between atoms: C_5  and  N_6 
REMARK    3  A    between atoms: C_5  and  C_20 
REMARK       I    between atoms: N_6  and  C_7 
REMARK    4  A    between atoms: C_7  and  C_8 
REMARK    5  A    between atoms: C_8  and  N_9 
REMARK    6  A    between atoms: C_21  and  O_22 
ROOT
HETATM    1  C   UNL     1      -7.452  -0.114 -32.670  1.00  0.00     0.154 C 
ENDROOT
BRANCH   1   2
HETATM    2  C   UNL     1      -6.575  -1.086 -33.464  1.00  0.00    -0.031 A 
HETATM    3  C   UNL     1      -7.116  -2.099 -34.275  1.00  0.00     0.009 A 
HETATM    4  C   UNL     1      -6.284  -2.981 -34.971  1.00  0.00     0.001 A 
HETATM    5  C   UNL     1      -4.900  -2.880 -34.855  1.00  0.00     0.000 A 
HETATM    6  C   UNL     1      -4.344  -1.905 -34.033  1.00  0.00     0.001 A 
HETATM    7  C   UNL     1      -5.173  -1.024 -33.337  1.00  0.00     0.009 A 
ENDBRANCH   1   2
BRANCH   1   8
HETATM    8  N   UNL     1      -8.473   0.552 -33.465  1.00  0.00    -0.347 N 
HETATM    9  C   UNL     1      -9.812   0.374 -33.204  1.00  0.00     0.236 C 
HETATM   10  O   UNL     1     -10.208  -0.420 -32.346  1.00  0.00    -0.272 OA
HETATM   11  H   UNL     1      -8.201   1.421 -33.921  1.00  0.00     0.163 HD
BRANCH   9  12
HETATM   12  C   UNL     1     -10.769   1.365 -33.880  1.00  0.00     0.236 C 
BRANCH  12  13
HETATM   13  N   UNL     1     -10.485   2.765 -33.653  1.00  0.00    -0.289 N 
HETATM   14  C   UNL     1     -10.431   3.740 -34.667  1.00  0.00     0.328 A 
HETATM   15  O   UNL     1     -10.815   3.616 -35.818  1.00  0.00    -0.247 OA
HETATM   16  N   UNL     1      -9.863   4.887 -34.105  1.00  0.00    -0.306 N 
HETATM   17  C   UNL     1      -9.506   4.613 -32.791  1.00  0.00     0.063 A 
HETATM   18  H   UNL     1      -9.689   5.738 -34.616  1.00  0.00     0.171 HD
HETATM   19  C   UNL     1      -9.880   3.299 -32.501  1.00  0.00     0.066 A 
HETATM   20  C   UNL     1      -8.857   5.423 -31.887  1.00  0.00     0.032 A 
HETATM   21  C   UNL     1      -9.612   2.739 -31.269  1.00  0.00     0.032 A 
HETATM   22  C   UNL     1      -8.950   3.543 -30.331  1.00  0.00     0.002 A 
HETATM   23  C   UNL     1      -8.576   4.868 -30.636  1.00  0.00     0.002 A 
ENDBRANCH  12  13
ENDBRANCH   9  12
ENDBRANCH   1   8
BRANCH   1  24
HETATM   24  C   UNL     1      -6.682   0.934 -31.852  1.00  0.00     0.013 A 
HETATM   25  C   UNL     1      -6.405   0.662 -30.498  1.00  0.00     0.075 A 
HETATM   26  C   UNL     1      -5.593   1.490 -29.736  1.00  0.00     0.038 A 
HETATM   27  C   UNL     1      -5.077   2.651 -30.295  1.00  0.00     0.015 A 
HETATM   28  C   UNL     1      -5.387   3.012 -31.612  1.00  0.00    -0.025 A 
HETATM   29  C   UNL     1      -6.207   2.168 -32.411  1.00  0.00    -0.015 A 
HETATM   30  C   UNL     1      -4.880   4.216 -32.131  1.00  0.00     0.012 A 
HETATM   31  C   UNL     1      -6.494   2.627 -33.721  1.00  0.00     0.013 A 
HETATM   32  C   UNL     1      -5.991   3.831 -34.221  1.00  0.00     0.001 A 
HETATM   33  C   UNL     1      -5.179   4.624 -33.427  1.00  0.00     0.001 A 
BRANCH  25  34
HETATM   34  O   UNL     1      -6.928  -0.420 -29.842  1.00  0.00    -0.360 OA
HETATM   35  H   UNL     1      -6.556  -0.429 -28.931  1.00  0.00     0.217 HD
ENDBRANCH  25  34
ENDBRANCH   1  24
TORSDOF 6
ENDMDL
MODEL 4
REMARK VINA RESULT:      -9.6      1.184      2.184
REMARK  6 active torsions:
REMARK  status: ('A' for Active; 'I' for Inactive)
REMARK    1  A    between atoms: C_4  and  C_5 
REMARK    2  A    between atoms: C_5  and  N_6 
REMARK    3  A    between atoms: C_5  and  C_20 
REMARK       I    between atoms: N_6  and  C_7 
REMARK    4  A    between atoms: C_7  and  C_8 
REMARK    5  A    between atoms: C_8  and  N_9 
REMARK    6  A    between atoms: C_21  and  O_22 
ROOT
HETATM    1  C   UNL     1      -7.438  -0.012 -32.804  1.00  0.00     0.154 C 
ENDROOT
BRANCH   1   2
HETATM    2  C   UNL     1      -6.563  -1.076 -33.473  1.00  0.00    -0.031 A 
HETATM    3  C   UNL     1      -5.158  -1.035 -33.423  1.00  0.00     0.009 A 
HETATM    4  C   UNL     1      -4.391  -2.014 -34.062  1.00  0.00     0.001 A 
HETATM    5  C   UNL     1      -5.009  -3.036 -34.777  1.00  0.00     0.000 A 
HETATM    6  C   UNL     1      -6.397  -3.077 -34.865  1.00  0.00     0.001 A 
HETATM    7  C   UNL     1      -7.165  -2.101 -34.228  1.00  0.00     0.009 A 
ENDBRANCH   1   2
BRANCH   1   8
HETATM    8  N   UNL     1      -8.335   0.680 -33.717  1.00  0.00    -0.347 N 
HETATM    9  C   UNL     1      -9.701   0.635 -33.551  1.00  0.00     0.236 C 
HETATM   10  O   UNL     1     -10.227  -0.060 -32.678  1.00  0.00    -0.272 OA
HETATM   11  H   UNL     1      -7.954   1.489 -34.204  1.00  0.00     0.163 HD
BRANCH   9  12
HETATM   12  C   UNL     1     -10.513   1.654 -34.361  1.00  0.00     0.236 C 
BRANCH  12  13
HETATM   13  N   UNL     1     -11.734   2.118 -33.742  1.00  0.00    -0.289 N 
HETATM   14  C   UNL     1     -13.009   2.026 -34.331  1.00  0.00     0.328 A 
HETATM   15  O   UNL     1     -13.312   1.370 -35.315  1.00  0.00    -0.247 OA
HETATM   16  N   UNL     1     -13.873   2.819 -33.571  1.00  0.00    -0.306 N 
HETATM   17  C   UNL     1     -13.141   3.448 -32.572  1.00  0.00     0.063 A 
HETATM   18  H   UNL     1     -14.850   2.949 -33.780  1.00  0.00     0.171 HD
HETATM   19  C   UNL     1     -11.813   3.028 -32.672  1.00  0.00     0.066 A 
HETATM   20  C   UNL     1     -13.567   4.368 -31.641  1.00  0.00     0.032 A 
HETATM   21  C   UNL     1     -10.845   3.524 -31.824  1.00  0.00     0.032 A 
HETATM   22  C   UNL     1     -11.252   4.463 -30.867  1.00  0.00     0.002 A 
HETATM   23  C   UNL     1     -12.596   4.882 -30.777  1.00  0.00     0.002 A 
ENDBRANCH  12  13
ENDBRANCH   9  12
ENDBRANCH   1   8
BRANCH   1  24
HETATM   24  C   UNL     1      -6.674   1.021 -31.962  1.00  0.00     0.013 A 
HETATM   25  C   UNL     1      -6.486   0.765 -30.589  1.00  0.00     0.075 A 
HETATM   26  C   UNL     1      -5.686   1.576 -29.797  1.00  0.00     0.038 A 
HETATM   27  C   UNL     1      -5.093   2.704 -30.346  1.00  0.00     0.015 A 
HETATM   28  C   UNL     1      -5.313   3.051 -31.684  1.00  0.00    -0.025 A 
HETATM   29  C   UNL     1      -6.119   2.224 -32.514  1.00  0.00    -0.015 A 
HETATM   30  C   UNL     1      -4.729   4.223 -32.194  1.00  0.00     0.012 A 
HETATM   31  C   UNL     1      -6.313   2.667 -33.847  1.00  0.00     0.013 A 
HETATM   32  C   UNL     1      -5.734   3.841 -34.338  1.00  0.00     0.001 A 
HETATM   33  C   UNL     1      -4.937   4.617 -33.513  1.00  0.00     0.001 A 
BRANCH  25  34
HETATM   34  O   UNL     1      -7.089  -0.282 -29.946  1.00  0.00    -0.360 OA
HETATM   35  H   UNL     1      -6.655  -1.112 -30.249  1.00  0.00     0.217 HD
ENDBRANCH  25  34
ENDBRANCH   1  24
TORSDOF 6
ENDMDL
MODEL 5
REMARK VINA RESULT:      -9.4      3.728      7.831
REMARK  6 active torsions:
REMARK  status: ('A' for Active; 'I' for Inactive)
REMARK    1  A    between atoms: C_4  and  C_5 
REMARK    2  A    between atoms: C_5  and  N_6 
REMARK    3  A    between atoms: C_5  and  C_20 
REMARK       I    between atoms: N_6  and  C_7 
REMARK    4  A    between atoms: C_7  and  C_8 
REMARK    5  A    between atoms: C_8  and  N_9 
REMARK    6  A    between atoms: C_21  and  O_22 
ROOT
HETATM    1  C   UNL     1      -5.430   2.377 -32.765  1.00  0.00     0.154 C 
ENDROOT
BRANCH   1   2
HETATM    2  C   UNL     1      -4.616   1.128 -32.417  1.00  0.00    -0.031 A 
HETATM    3  C   UNL     1      -3.565   1.150 -31.484  1.00  0.00     0.009 A 
HETATM    4  C   UNL     1      -2.831  -0.007 -31.204  1.00  0.00     0.001 A 
HETATM    5  C   UNL     1      -3.119  -1.199 -31.864  1.00  0.00     0.000 A 
HETATM    6  C   UNL     1      -4.135  -1.235 -32.814  1.00  0.00     0.001 A 
HETATM    7  C   UNL     1      -4.869  -0.081 -33.095  1.00  0.00     0.009 A 
ENDBRANCH   1   2
BRANCH   1   8
HETATM    8  N   UNL     1      -4.718   3.629 -32.558  1.00  0.00    -0.347 N 
HETATM    9  C   UNL     1      -4.743   4.632 -33.499  1.00  0.00     0.236 C 
HETATM   10  O   UNL     1      -5.296   4.484 -34.593  1.00  0.00    -0.272 OA
HETATM   11  H   UNL     1      -4.552   3.904 -31.591  1.00  0.00     0.163 HD
BRANCH   9  12
HETATM   12  C   UNL     1      -4.240   6.005 -33.035  1.00  0.00     0.236 C 
BRANCH  12  13
HETATM   13  N   UNL     1      -3.606   6.035 -31.736  1.00  0.00    -0.289 N 
HETATM   14  C   UNL     1      -4.297   6.166 -30.517  1.00  0.00     0.328 A 
HETATM   15  O   UNL     1      -5.501   6.057 -30.346  1.00  0.00    -0.247 OA
HETATM   16  N   UNL     1      -3.345   6.435 -29.529  1.00  0.00    -0.306 N 
HETATM   17  C   UNL     1      -2.097   6.540 -30.129  1.00  0.00     0.063 A 
HETATM   18  H   UNL     1      -3.567   6.593 -28.560  1.00  0.00     0.171 HD
HETATM   19  C   UNL     1      -2.246   6.301 -31.497  1.00  0.00     0.066 A 
HETATM   20  C   UNL     1      -0.889   6.862 -29.553  1.00  0.00     0.032 A 
HETATM   21  C   UNL     1      -1.168   6.377 -32.354  1.00  0.00     0.032 A 
HETATM   22  C   UNL     1       0.074   6.705 -31.793  1.00  0.00     0.002 A 
HETATM   23  C   UNL     1       0.212   6.946 -30.410  1.00  0.00     0.002 A 
ENDBRANCH  12  13
ENDBRANCH   9  12
ENDBRANCH   1   8
BRANCH   1  24
HETATM   24  C   UNL     1      -6.809   2.461 -32.094  1.00  0.00     0.013 A 
HETATM   25  C   UNL     1      -6.887   2.944 -30.772  1.00  0.00     0.075 A 
HETATM   26  C   UNL     1      -8.105   3.183 -30.151  1.00  0.00     0.038 A 
HETATM   27  C   UNL     1      -9.287   2.892 -30.819  1.00  0.00     0.015 A 
HETATM   28  C   UNL     1      -9.266   2.334 -32.103  1.00  0.00    -0.025 A 
HETATM   29  C   UNL     1      -8.027   2.094 -32.759  1.00  0.00    -0.015 A 
HETATM   30  C   UNL     1     -10.482   2.014 -32.731  1.00  0.00     0.012 A 
HETATM   31  C   UNL     1      -8.100   1.499 -34.043  1.00  0.00     0.013 A 
HETATM   32  C   UNL     1      -9.316   1.177 -34.653  1.00  0.00     0.001 A 
HETATM   33  C   UNL     1     -10.508   1.440 -33.999  1.00  0.00     0.001 A 
BRANCH  25  34
HETATM   34  O   UNL     1      -5.776   3.190 -30.011  1.00  0.00    -0.360 OA
HETATM   35  H   UNL     1      -6.017   3.038 -29.069  1.00  0.00     0.217 HD
ENDBRANCH  25  34
ENDBRANCH   1  24
TORSDOF 6
ENDMDL
MODEL 6
REMARK VINA RESULT:      -9.2      2.252      4.786
REMARK  6 active torsions:
REMARK  status: ('A' for Active; 'I' for Inactive)
REMARK    1  A    between atoms: C_4  and  C_5 
REMARK    2  A    between atoms: C_5  and  N_6 
REMARK    3  A    between atoms: C_5  and  C_20 
REMARK       I    between atoms: N_6  and  C_7 
REMARK    4  A    between atoms: C_7  and  C_8 
REMARK    5  A    between atoms: C_8  and  N_9 
REMARK    6  A    between atoms: C_21  and  O_22 
ROOT
HETATM    1  C   UNL     1      -5.808   3.695 -32.658  1.00  0.00     0.154 C 
ENDROOT
BRANCH   1   2
HETATM    2  C   UNL     1      -4.480   4.401 -32.367  1.00  0.00    -0.031 A 
HETATM    3  C   UNL     1      -4.410   5.606 -31.647  1.00  0.00     0.009 A 
HETATM    4  C   UNL     1      -3.181   6.232 -31.416  1.00  0.00     0.001 A 
HETATM    5  C   UNL     1      -2.005   5.677 -31.916  1.00  0.00     0.000 A 
HETATM    6  C   UNL     1      -2.056   4.502 -32.659  1.00  0.00     0.001 A 
HETATM    7  C   UNL     1      -3.282   3.876 -32.891  1.00  0.00     0.009 A 
ENDBRANCH   1   2
BRANCH   1   8
HETATM    8  N   UNL     1      -6.975   4.377 -32.119  1.00  0.00    -0.347 N 
HETATM    9  C   UNL     1      -7.902   4.971 -32.945  1.00  0.00     0.236 C 
HETATM   10  O   UNL     1      -7.744   5.026 -34.168  1.00  0.00    -0.272 OA
HETATM   11  H   UNL     1      -7.298   4.073 -31.203  1.00  0.00     0.163 HD
BRANCH   9  12
HETATM   12  C   UNL     1      -9.234   5.362 -32.291  1.00  0.00     0.236 C 
BRANCH  12  13
HETATM   13  N   UNL     1     -10.420   4.792 -32.891  1.00  0.00    -0.289 N 
HETATM   14  C   UNL     1     -11.653   5.461 -33.008  1.00  0.00     0.328 A 
HETATM   15  O   UNL     1     -11.855   6.652 -32.835  1.00  0.00    -0.247 OA
HETATM   16  N   UNL     1     -12.607   4.507 -33.373  1.00  0.00    -0.306 N 
HETATM   17  C   UNL     1     -11.998   3.259 -33.415  1.00  0.00     0.063 A 
HETATM   18  H   UNL     1     -13.584   4.710 -33.509  1.00  0.00     0.171 HD
HETATM   19  C   UNL     1     -10.645   3.421 -33.111  1.00  0.00     0.066 A 
HETATM   20  C   UNL     1     -12.568   2.030 -33.659  1.00  0.00     0.032 A 
HETATM   21  C   UNL     1      -9.797   2.335 -33.041  1.00  0.00     0.032 A 
HETATM   22  C   UNL     1     -10.353   1.072 -33.284  1.00  0.00     0.002 A 
HETATM   23  C   UNL     1     -11.722   0.921 -33.588  1.00  0.00     0.002 A 
ENDBRANCH  12  13
ENDBRANCH   9  12
ENDBRANCH   1   8
BRANCH   1  24
HETATM   24  C   UNL     1      -5.856   2.213 -32.258  1.00  0.00     0.013 A 
HETATM   25  C   UNL     1      -5.497   1.859 -30.942  1.00  0.00     0.075 A 
HETATM   26  C   UNL     1      -5.653   0.565 -30.464  1.00  0.00     0.038 A 
HETATM   27  C   UNL     1      -6.122  -0.429 -31.311  1.00  0.00     0.015 A 
HETATM   28  C   UNL     1      -6.417  -0.149 -32.652  1.00  0.00    -0.025 A 
HETATM   29  C   UNL     1      -6.276   1.173 -33.154  1.00  0.00    -0.015 A 
HETATM   30  C   UNL     1      -6.851  -1.190 -33.490  1.00  0.00     0.012 A 
HETATM   31  C   UNL     1      -6.566   1.359 -34.529  1.00  0.00     0.013 A 
HETATM   32  C   UNL     1      -6.988   0.312 -35.354  1.00  0.00     0.001 A 
HETATM   33  C   UNL     1      -7.136  -0.963 -34.833  1.00  0.00     0.001 A 
BRANCH  25  34
HETATM   34  O   UNL     1      -4.958   2.755 -30.059  1.00  0.00    -0.360 OA
HETATM   35  H   UNL     1      -4.126   2.366 -29.705  1.00  0.00     0.217 HD
ENDBRANCH  25  34
ENDBRANCH   1  24
TORSDOF 6
ENDMDL
MODEL 7
REMARK VINA RESULT:      -9.2      2.671      4.746
REMARK  6 active torsions:
REMARK  status: ('A' for Active; 'I' for Inactive)
REMARK    1  A    between atoms: C_4  and  C_5 
REMARK    2  A    between atoms: C_5  and  N_6 
REMARK    3  A    between atoms: C_5  and  C_20 
REMARK       I    between atoms: N_6  and  C_7 
REMARK    4  A    between atoms: C_7  and  C_8 
REMARK    5  A    between atoms: C_8  and  N_9 
REMARK    6  A    between atoms: C_21  and  O_22 
ROOT
HETATM    1  C   UNL     1      -6.209   3.813 -33.237  1.00  0.00     0.154 C 
ENDROOT
BRANCH   1   2
HETATM    2  C   UNL     1      -4.783   4.235 -33.605  1.00  0.00    -0.031 A 
HETATM    3  C   UNL     1      -4.502   5.054 -34.713  1.00  0.00     0.009 A 
HETATM    4  C   UNL     1      -3.185   5.403 -35.029  1.00  0.00     0.001 A 
HETATM    5  C   UNL     1      -2.128   4.926 -34.259  1.00  0.00     0.000 A 
HETATM    6  C   UNL     1      -2.382   4.089 -33.177  1.00  0.00     0.001 A 
HETATM    7  C   UNL     1      -3.695   3.739 -32.860  1.00  0.00     0.009 A 
ENDBRANCH   1   2
BRANCH   1   8
HETATM    8  N   UNL     1      -6.942   4.804 -32.463  1.00  0.00    -0.347 N 
HETATM    9  C   UNL     1      -8.004   5.492 -33.003  1.00  0.00     0.236 C 
HETATM   10  O   UNL     1      -8.327   5.365 -34.187  1.00  0.00    -0.272 OA
HETATM   11  H   UNL     1      -6.928   4.692 -31.451  1.00  0.00     0.163 HD
BRANCH   9  12
HETATM   12  C   UNL     1      -8.890   6.254 -32.008  1.00  0.00     0.236 C 
BRANCH  12  13
HETATM   13  N   UNL     1      -9.940   5.481 -31.384  1.00  0.00    -0.289 N 
HETATM   14  C   UNL     1      -9.724   4.474 -30.424  1.00  0.00     0.328 A 
HETATM   15  O   UNL     1      -8.685   4.250 -29.824  1.00  0.00    -0.247 OA
HETATM   16  N   UNL     1     -10.928   3.780 -30.276  1.00  0.00    -0.306 N 
HETATM   17  C   UNL     1     -11.855   4.296 -31.172  1.00  0.00     0.063 A 
HETATM   18  H   UNL     1     -11.053   2.992 -29.660  1.00  0.00     0.171 HD
HETATM   19  C   UNL     1     -11.254   5.345 -31.870  1.00  0.00     0.066 A 
HETATM   20  C   UNL     1     -13.142   3.873 -31.420  1.00  0.00     0.032 A 
HETATM   21  C   UNL     1     -11.933   6.023 -32.860  1.00  0.00     0.032 A 
HETATM   22  C   UNL     1     -13.245   5.612 -33.133  1.00  0.00     0.002 A 
HETATM   23  C   UNL     1     -13.842   4.549 -32.423  1.00  0.00     0.002 A 
ENDBRANCH  12  13
ENDBRANCH   9  12
ENDBRANCH   1   8
BRANCH   1  24
HETATM   24  C   UNL     1      -6.323   2.445 -32.549  1.00  0.00     0.013 A 
HETATM   25  C   UNL     1      -6.195   2.383 -31.147  1.00  0.00     0.075 A 
HETATM   26  C   UNL     1      -6.428   1.211 -30.442  1.00  0.00     0.038 A 
HETATM   27  C   UNL     1      -6.744   0.046 -31.129  1.00  0.00     0.015 A 
HETATM   28  C   UNL     1      -6.804   0.033 -32.528  1.00  0.00    -0.025 A 
HETATM   29  C   UNL     1      -6.581   1.228 -33.265  1.00  0.00    -0.015 A 
HETATM   30  C   UNL     1      -7.086  -1.174 -33.190  1.00  0.00     0.012 A 
HETATM   31  C   UNL     1      -6.631   1.115 -34.677  1.00  0.00     0.013 A 
HETATM   32  C   UNL     1      -6.903  -0.095 -35.323  1.00  0.00     0.001 A 
HETATM   33  C   UNL     1      -7.136  -1.239 -34.579  1.00  0.00     0.001 A 
BRANCH  25  34
HETATM   34  O   UNL     1      -5.817   3.462 -30.394  1.00  0.00    -0.360 OA
HETATM   35  H   UNL     1      -4.833   3.464 -30.344  1.00  0.00     0.217 HD
ENDBRANCH  25  34
ENDBRANCH   1  24
TORSDOF 6
ENDMDL
MODEL 8
REMARK VINA RESULT:      -9.2      3.998      6.925
REMARK  6 active torsions:
REMARK  status: ('A' for Active; 'I' for Inactive)
REMARK    1  A    between atoms: C_4  and  C_5 
REMARK    2  A    between atoms: C_5  and  N_6 
REMARK    3  A    between atoms: C_5  and  C_20 
REMARK       I    between atoms: N_6  and  C_7 
REMARK    4  A    between atoms: C_7  and  C_8 
REMARK    5  A    between atoms: C_8  and  N_9 
REMARK    6  A    between atoms: C_21  and  O_22 
ROOT
HETATM    1  C   UNL     1      -4.147   4.159 -31.312  1.00  0.00     0.154 C 
ENDROOT
BRANCH   1   2
HETATM    2  C   UNL     1      -3.466   4.611 -32.608  1.00  0.00    -0.031 A 
HETATM    3  C   UNL     1      -4.180   4.820 -33.801  1.00  0.00     0.009 A 
HETATM    4  C   UNL     1      -3.521   5.214 -34.969  1.00  0.00     0.001 A 
HETATM    5  C   UNL     1      -2.140   5.387 -34.973  1.00  0.00     0.000 A 
HETATM    6  C   UNL     1      -1.410   5.156 -33.811  1.00  0.00     0.001 A 
HETATM    7  C   UNL     1      -2.066   4.761 -32.644  1.00  0.00     0.009 A 
ENDBRANCH   1   2
BRANCH   1   8
HETATM    8  N   UNL     1      -4.752   2.838 -31.388  1.00  0.00    -0.347 N 
HETATM    9  C   UNL     1      -4.005   1.697 -31.206  1.00  0.00     0.236 C 
HETATM   10  O   UNL     1      -2.780   1.738 -31.058  1.00  0.00    -0.272 OA
HETATM   11  H   UNL     1      -5.746   2.780 -31.177  1.00  0.00     0.163 HD
BRANCH   9  12
HETATM   12  C   UNL     1      -4.796   0.401 -30.983  1.00  0.00     0.236 C 
BRANCH  12  13
HETATM   13  N   UNL     1      -5.706   0.030 -32.044  1.00  0.00    -0.289 N 
HETATM   14  C   UNL     1      -7.069   0.378 -32.080  1.00  0.00     0.328 A 
HETATM   15  O   UNL     1      -7.632   1.197 -31.371  1.00  0.00    -0.247 OA
HETATM   16  N   UNL     1      -7.663  -0.384 -33.090  1.00  0.00    -0.306 N 
HETATM   17  C   UNL     1      -6.708  -1.239 -33.625  1.00  0.00     0.063 A 
HETATM   18  H   UNL     1      -8.642  -0.348 -33.322  1.00  0.00     0.171 HD
HETATM   19  C   UNL     1      -5.492  -0.997 -32.981  1.00  0.00     0.066 A 
HETATM   20  C   UNL     1      -6.863  -2.210 -34.588  1.00  0.00     0.032 A 
HETATM   21  C   UNL     1      -4.367  -1.733 -33.285  1.00  0.00     0.032 A 
HETATM   22  C   UNL     1      -4.498  -2.729 -34.263  1.00  0.00     0.002 A 
HETATM   23  C   UNL     1      -5.731  -2.966 -34.906  1.00  0.00     0.002 A 
ENDBRANCH  12  13
ENDBRANCH   9  12
ENDBRANCH   1   8
BRANCH   1  24
HETATM   24  C   UNL     1      -5.167   5.153 -30.736  1.00  0.00     0.013 A 
HETATM   25  C   UNL     1      -6.535   4.942 -30.997  1.00  0.00     0.075 A 
HETATM   26  C   UNL     1      -7.522   5.709 -30.395  1.00  0.00     0.038 A 
HETATM   27  C   UNL     1      -7.164   6.752 -29.551  1.00  0.00     0.015 A 
HETATM   28  C   UNL     1      -5.817   7.057 -29.321  1.00  0.00    -0.025 A 
HETATM   29  C   UNL     1      -4.793   6.273 -29.920  1.00  0.00    -0.015 A 
HETATM   30  C   UNL     1      -5.493   8.146 -28.493  1.00  0.00     0.012 A 
HETATM   31  C   UNL     1      -3.459   6.672 -29.656  1.00  0.00     0.013 A 
HETATM   32  C   UNL     1      -3.150   7.764 -28.839  1.00  0.00     0.001 A 
HETATM   33  C   UNL     1      -4.168   8.498 -28.252  1.00  0.00     0.001 A 
BRANCH  25  34
HETATM   34  O   UNL     1      -6.979   3.986 -31.871  1.00  0.00    -0.360 OA
HETATM   35  H   UNL     1      -6.275   3.303 -31.954  1.00  0.00     0.217 HD
ENDBRANCH  25  34
ENDBRANCH   1  24
TORSDOF 6
ENDMDL
MODEL 9
REMARK VINA RESULT:      -9.2      3.682      7.086
REMARK  6 active torsions:
REMARK  status: ('A' for Active; 'I' for Inactive)
REMARK    1  A    between atoms: C_4  and  C_5 
REMARK    2  A    between atoms: C_5  and  N_6 
REMARK    3  A    between atoms: C_5  and  C_20 
REMARK       I    between atoms: N_6  and  C_7 
REMARK    4  A    between atoms: C_7  and  C_8 
REMARK    5  A    between atoms: C_8  and  N_9 
REMARK    6  A    between atoms: C_21  and  O_22 
ROOT
HETATM    1  C   UNL     1      -5.607   2.672 -33.019  1.00  0.00     0.154 C 
ENDROOT
BRANCH   1   2
HETATM    2  C   UNL     1      -5.338   1.167 -33.100  1.00  0.00    -0.031 A 
HETATM    3  C   UNL     1      -4.150   0.587 -32.624  1.00  0.00     0.009 A 
HETATM    4  C   UNL     1      -3.931  -0.790 -32.732  1.00  0.00     0.001 A 
HETATM    5  C   UNL     1      -4.883  -1.607 -33.335  1.00  0.00     0.000 A 
HETATM    6  C   UNL     1      -6.053  -1.050 -33.842  1.00  0.00     0.001 A 
HETATM    7  C   UNL     1      -6.273   0.325 -33.735  1.00  0.00     0.009 A 
ENDBRANCH   1   2
BRANCH   1   8
HETATM    8  N   UNL     1      -4.420   3.498 -33.178  1.00  0.00    -0.347 N 
HETATM    9  C   UNL     1      -4.450   4.662 -33.911  1.00  0.00     0.236 C 
HETATM   10  O   UNL     1      -5.455   5.012 -34.535  1.00  0.00    -0.272 OA
HETATM   11  H   UNL     1      -3.716   3.430 -32.444  1.00  0.00     0.163 HD
BRANCH   9  12
HETATM   12  C   UNL     1      -3.249   5.601 -33.736  1.00  0.00     0.236 C 
BRANCH  12  13
HETATM   13  N   UNL     1      -2.930   5.963 -32.373  1.00  0.00    -0.289 N 
HETATM   14  C   UNL     1      -1.838   5.449 -31.648  1.00  0.00     0.328 A 
HETATM   15  O   UNL     1      -0.899   4.813 -32.098  1.00  0.00    -0.247 OA
HETATM   16  N   UNL     1      -2.024   5.810 -30.311  1.00  0.00    -0.306 N 
HETATM   17  C   UNL     1      -3.238   6.474 -30.191  1.00  0.00     0.063 A 
HETATM   18  H   UNL     1      -1.397   5.555 -29.565  1.00  0.00     0.171 HD
HETATM   19  C   UNL     1      -3.812   6.570 -31.461  1.00  0.00     0.066 A 
HETATM   20  C   UNL     1      -3.855   6.945 -29.054  1.00  0.00     0.032 A 
HETATM   21  C   UNL     1      -5.049   7.153 -31.640  1.00  0.00     0.032 A 
HETATM   22  C   UNL     1      -5.699   7.640 -30.498  1.00  0.00     0.002 A 
HETATM   23  C   UNL     1      -5.110   7.536 -29.220  1.00  0.00     0.002 A 
ENDBRANCH  12  13
ENDBRANCH   9  12
ENDBRANCH   1   8
BRANCH   1  24
HETATM   24  C   UNL     1      -6.379   3.126 -31.770  1.00  0.00     0.013 A 
HETATM   25  C   UNL     1      -5.651   3.429 -30.602  1.00  0.00     0.075 A 
HETATM   26  C   UNL     1      -6.260   3.981 -29.484  1.00  0.00     0.038 A 
HETATM   27  C   UNL     1      -7.631   4.195 -29.482  1.00  0.00     0.015 A 
HETATM   28  C   UNL     1      -8.414   3.837 -30.586  1.00  0.00    -0.025 A 
HETATM   29  C   UNL     1      -7.806   3.282 -31.746  1.00  0.00    -0.015 A 
HETATM   30  C   UNL     1      -9.805   4.030 -30.532  1.00  0.00     0.012 A 
HETATM   31  C   UNL     1      -8.677   2.920 -32.803  1.00  0.00     0.013 A 
HETATM   32  C   UNL     1     -10.061   3.110 -32.732  1.00  0.00     0.001 A 
HETATM   33  C   UNL     1     -10.624   3.671 -31.598  1.00  0.00     0.001 A 
BRANCH  25  34
HETATM   34  O   UNL     1      -4.309   3.184 -30.485  1.00  0.00    -0.360 OA
HETATM   35  H   UNL     1      -3.967   2.951 -31.378  1.00  0.00     0.217 HD
ENDBRANCH  25  34
ENDBRANCH   1  24
TORSDOF 6
ENDMDL
MODEL 10
REMARK VINA RESULT:      -9.1      3.184      7.800
REMARK  6 active torsions:
REMARK  status: ('A' for Active; 'I' for Inactive)
REMARK    1  A    between atoms: C_4  and  C_5 
REMARK    2  A    between atoms: C_5  and  N_6 
REMARK    3  A    between atoms: C_5  and  C_20 
REMARK       I    between atoms: N_6  and  C_7 
REMARK    4  A    between atoms: C_7  and  C_8 
REMARK    5  A    between atoms: C_8  and  N_9 
REMARK    6  A    between atoms: C_21  and  O_22 
ROOT
HETATM    1  C   UNL     1      -7.706   2.804 -33.357  1.00  0.00     0.154 C 
ENDROOT
BRANCH   1   2
HETATM    2  C   UNL     1      -7.421   1.321 -33.610  1.00  0.00    -0.031 A 
HETATM    3  C   UNL     1      -6.705   0.526 -32.698  1.00  0.00     0.009 A 
HETATM    4  C   UNL     1      -6.446  -0.821 -32.972  1.00  0.00     0.001 A 
HETATM    5  C   UNL     1      -6.879  -1.391 -34.166  1.00  0.00     0.000 A 
HETATM    6  C   UNL     1      -7.561  -0.613 -35.097  1.00  0.00     0.001 A 
HETATM    7  C   UNL     1      -7.820   0.732 -34.825  1.00  0.00     0.009 A 
ENDBRANCH   1   2
BRANCH   1   8
HETATM    8  N   UNL     1      -6.648   3.500 -32.640  1.00  0.00    -0.347 N 
HETATM    9  C   UNL     1      -6.206   4.740 -33.043  1.00  0.00     0.236 C 
HETATM   10  O   UNL     1      -6.623   5.276 -34.074  1.00  0.00    -0.272 OA
HETATM   11  H   UNL     1      -6.532   3.264 -31.656  1.00  0.00     0.163 HD
BRANCH   9  12
HETATM   12  C   UNL     1      -5.337   5.506 -32.037  1.00  0.00     0.236 C 
BRANCH  12  13
HETATM   13  N   UNL     1      -3.966   5.059 -31.924  1.00  0.00    -0.289 N 
HETATM   14  C   UNL     1      -3.569   3.861 -31.301  1.00  0.00     0.328 A 
HETATM   15  O   UNL     1      -4.294   2.938 -30.967  1.00  0.00    -0.247 OA
HETATM   16  N   UNL     1      -2.181   3.918 -31.144  1.00  0.00    -0.306 N 
HETATM   17  C   UNL     1      -1.731   5.153 -31.594  1.00  0.00     0.063 A 
HETATM   18  H   UNL     1      -1.633   3.195 -30.708  1.00  0.00     0.171 HD
HETATM   19  C   UNL     1      -2.828   5.872 -32.073  1.00  0.00     0.066 A 
HETATM   20  C   UNL     1      -0.454   5.667 -31.565  1.00  0.00     0.032 A 
HETATM   21  C   UNL     1      -2.682   7.157 -32.551  1.00  0.00     0.032 A 
HETATM   22  C   UNL     1      -1.392   7.706 -32.531  1.00  0.00     0.002 A 
HETATM   23  C   UNL     1      -0.292   6.970 -32.043  1.00  0.00     0.002 A 
ENDBRANCH  12  13
ENDBRANCH   9  12
ENDBRANCH   1   8
BRANCH   1  24
HETATM   24  C   UNL     1      -9.055   3.098 -32.682  1.00  0.00     0.013 A 
HETATM   25  C   UNL     1      -9.142   3.000 -31.279  1.00  0.00     0.075 A 
HETATM   26  C   UNL     1     -10.281   3.389 -30.588  1.00  0.00     0.038 A 
HETATM   27  C   UNL     1     -11.393   3.836 -31.289  1.00  0.00     0.015 A 
HETATM   28  C   UNL     1     -11.389   3.876 -32.689  1.00  0.00    -0.025 A 
HETATM   29  C   UNL     1     -10.225   3.495 -33.413  1.00  0.00    -0.015 A 
HETATM   30  C   UNL     1     -12.546   4.296 -33.366  1.00  0.00     0.012 A 
HETATM   31  C   UNL     1     -10.321   3.538 -34.826  1.00  0.00     0.013 A 
HETATM   32  C   UNL     1     -11.482   3.948 -35.487  1.00  0.00     0.001 A 
HETATM   33  C   UNL     1     -12.594   4.333 -34.757  1.00  0.00     0.001 A 
BRANCH  25  34
HETATM   34  O   UNL     1      -8.125   2.502 -30.511  1.00  0.00    -0.360 OA
HETATM   35  H   UNL     1      -7.928   1.591 -30.826  1.00  0.00     0.217 HD
ENDBRANCH  25  34
ENDBRANCH   1  24
TORSDOF 6
ENDMDL
