MODEL 1
REMARK VINA RESULT:      -9.5      0.000      0.000
REMARK  3 active torsions:
REMARK  status: ('A' for Active; 'I' for Inactive)
REMARK    1  A    between atoms: N_4  and  C_5 
REMARK    2  A    between atoms: C_15  and  C_16 
REMARK       I    between atoms: C_16  and  N_17 
REMARK    3  A    between atoms: N_17  and  C_18 
ROOT
HETATM    1  C   UNL     1      -6.253   5.996 -33.092  1.00  0.00     0.073 C 
HETATM    2  C   UNL     1      -5.031   5.487 -32.423  1.00  0.00     0.069 A 
HETATM    3  N   UNL     1      -4.026   6.319 -32.120  1.00  0.00    -0.170 NA
HETATM    4  N   UNL     1      -3.092   5.549 -31.481  1.00  0.00    -0.216 N 
HETATM    5  C   UNL     1      -3.469   4.215 -31.522  1.00  0.00     0.145 A 
HETATM    6  C   UNL     1      -4.726   4.158 -32.077  1.00  0.00     0.087 A 
HETATM    7  N   UNL     1      -2.779   3.102 -31.171  1.00  0.00    -0.349 N 
HETATM    8  C   UNL     1      -3.369   1.870 -31.399  1.00  0.00     0.111 A 
HETATM    9  C   UNL     1      -4.613   1.686 -31.897  1.00  0.00     0.098 A 
HETATM   10  C   UNL     1      -5.424   2.902 -32.255  1.00  0.00     0.205 A 
HETATM   11  O   UNL     1      -6.574   2.820 -32.679  1.00  0.00    -0.286 OA
HETATM   12  H   UNL     1      -1.775   3.095 -30.995  1.00  0.00     0.167 HD
ENDROOT
BRANCH   9  13
HETATM   13  C   UNL     1      -5.094   0.282 -32.098  1.00  0.00     0.261 C 
HETATM   14  N   UNL     1      -5.094  -0.143 -33.409  1.00  0.00    -0.323 N 
HETATM   15  H   UNL     1      -4.803   0.537 -34.113  1.00  0.00     0.169 HD
HETATM   16  O   UNL     1      -5.449  -0.383 -31.129  1.00  0.00    -0.267 OA
BRANCH  14  17
HETATM   17  C   UNL     1      -5.435  -1.416 -33.908  1.00  0.00     0.035 A 
HETATM   18  C   UNL     1      -6.731  -1.795 -34.270  1.00  0.00     0.032 A 
HETATM   19  C   UNL     1      -6.984  -3.088 -34.741  1.00  0.00     0.044 A 
HETATM   20  C   UNL     1      -5.941  -3.997 -34.853  1.00  0.00     0.116 A 
HETATM   21  F   UNL     1      -6.187  -5.235 -35.304  1.00  0.00    -0.206 F 
HETATM   22  C   UNL     1      -4.646  -3.641 -34.502  1.00  0.00     0.044 A 
HETATM   23  C   UNL     1      -4.395  -2.352 -34.026  1.00  0.00     0.032 A 
ENDBRANCH  14  17
ENDBRANCH   9  13
BRANCH   4  24
HETATM   24  C   UNL     1      -1.950   6.160 -30.891  1.00  0.00     0.060 A 
HETATM   25  C   UNL     1      -2.024   6.844 -29.671  1.00  0.00     0.031 A 
HETATM   26  C   UNL     1      -0.879   7.428 -29.122  1.00  0.00     0.002 A 
HETATM   27  C   UNL     1       0.342   7.342 -29.788  1.00  0.00     0.000 A 
HETATM   28  C   UNL     1       0.421   6.685 -31.014  1.00  0.00     0.002 A 
HETATM   29  C   UNL     1      -0.721   6.104 -31.570  1.00  0.00     0.031 A 
ENDBRANCH   4  24
TORSDOF 3
ENDMDL
MODEL 2
REMARK VINA RESULT:      -9.2      3.486      8.892
REMARK  3 active torsions:
REMARK  status: ('A' for Active; 'I' for Inactive)
REMARK    1  A    between atoms: N_4  and  C_5 
REMARK    2  A    between atoms: C_15  and  C_16 
REMARK       I    between atoms: C_16  and  N_17 
REMARK    3  A    between atoms: N_17  and  C_18 
ROOT
HETATM    1  C   UNL     1      -8.618   1.669 -34.329  1.00  0.00     0.073 C 
HETATM    2  C   UNL     1      -7.422   0.840 -34.046  1.00  0.00     0.069 A 
HETATM    3  N   UNL     1      -7.447  -0.484 -34.255  1.00  0.00    -0.170 NA
HETATM    4  N   UNL     1      -6.191  -0.929 -33.943  1.00  0.00    -0.216 N 
HETATM    5  C   UNL     1      -5.441   0.107 -33.406  1.00  0.00     0.145 A 
HETATM    6  C   UNL     1      -6.191   1.255 -33.506  1.00  0.00     0.087 A 
HETATM    7  N   UNL     1      -4.222   0.085 -32.813  1.00  0.00    -0.349 N 
HETATM    8  C   UNL     1      -3.735   1.267 -32.279  1.00  0.00     0.111 A 
HETATM    9  C   UNL     1      -4.357   2.465 -32.353  1.00  0.00     0.098 A 
HETATM   10  C   UNL     1      -5.691   2.534 -33.045  1.00  0.00     0.205 A 
HETATM   11  O   UNL     1      -6.302   3.590 -33.185  1.00  0.00    -0.286 OA
HETATM   12  H   UNL     1      -3.761  -0.771 -32.506  1.00  0.00     0.167 HD
ENDROOT
BRANCH   9  13
HETATM   13  C   UNL     1      -3.699   3.645 -31.707  1.00  0.00     0.261 C 
HETATM   14  N   UNL     1      -2.398   3.867 -32.107  1.00  0.00    -0.323 N 
HETATM   15  H   UNL     1      -2.000   3.199 -32.769  1.00  0.00     0.169 HD
HETATM   16  O   UNL     1      -4.322   4.317 -30.890  1.00  0.00    -0.267 OA
BRANCH  14  17
HETATM   17  C   UNL     1      -1.541   4.918 -31.724  1.00  0.00     0.035 A 
HETATM   18  C   UNL     1      -1.539   6.184 -32.316  1.00  0.00     0.032 A 
HETATM   19  C   UNL     1      -0.640   7.166 -31.885  1.00  0.00     0.044 A 
HETATM   20  C   UNL     1       0.251   6.881 -30.859  1.00  0.00     0.116 A 
HETATM   21  F   UNL     1       1.112   7.822 -30.448  1.00  0.00    -0.206 F 
HETATM   22  C   UNL     1       0.264   5.631 -30.255  1.00  0.00     0.044 A 
HETATM   23  C   UNL     1      -0.629   4.650 -30.690  1.00  0.00     0.032 A 
ENDBRANCH  14  17
ENDBRANCH   9  13
BRANCH   4  24
HETATM   24  C   UNL     1      -5.833  -2.283 -34.197  1.00  0.00     0.060 A 
HETATM   25  C   UNL     1      -4.533  -2.757 -33.980  1.00  0.00     0.031 A 
HETATM   26  C   UNL     1      -4.221  -4.094 -34.238  1.00  0.00     0.002 A 
HETATM   27  C   UNL     1      -5.198  -4.963 -34.722  1.00  0.00     0.000 A 
HETATM   28  C   UNL     1      -6.487  -4.495 -34.964  1.00  0.00     0.002 A 
HETATM   29  C   UNL     1      -6.803  -3.158 -34.712  1.00  0.00     0.031 A 
ENDBRANCH   4  24
TORSDOF 3
ENDMDL
MODEL 3
REMARK VINA RESULT:      -8.8      4.165      5.354
REMARK  3 active torsions:
REMARK  status: ('A' for Active; 'I' for Inactive)
REMARK    1  A    between atoms: N_4  and  C_5 
REMARK    2  A    between atoms: C_15  and  C_16 
REMARK       I    between atoms: C_16  and  N_17 
REMARK    3  A    between atoms: N_17  and  C_18 
ROOT
HETATM    1  C   UNL     1      -3.647   0.116 -30.848  1.00  0.00     0.073 C 
HETATM    2  C   UNL     1      -3.811   1.356 -31.646  1.00  0.00     0.069 A 
HETATM    3  N   UNL     1      -2.947   2.371 -31.509  1.00  0.00    -0.170 NA
HETATM    4  N   UNL     1      -3.353   3.322 -32.406  1.00  0.00    -0.216 N 
HETATM    5  C   UNL     1      -4.552   2.942 -32.989  1.00  0.00     0.145 A 
HETATM    6  C   UNL     1      -4.838   1.670 -32.554  1.00  0.00     0.087 A 
HETATM    7  N   UNL     1      -5.391   3.640 -33.794  1.00  0.00    -0.349 N 
HETATM    8  C   UNL     1      -6.582   3.042 -34.170  1.00  0.00     0.111 A 
HETATM    9  C   UNL     1      -6.955   1.784 -33.843  1.00  0.00     0.098 A 
HETATM   10  C   UNL     1      -6.027   0.965 -32.988  1.00  0.00     0.205 A 
HETATM   11  O   UNL     1      -6.277  -0.197 -32.678  1.00  0.00    -0.286 OA
HETATM   12  H   UNL     1      -5.331   4.649 -33.928  1.00  0.00     0.167 HD
ENDROOT
BRANCH   9  13
HETATM   13  C   UNL     1      -8.288   1.296 -34.319  1.00  0.00     0.261 C 
HETATM   14  N   UNL     1      -9.371   1.933 -33.749  1.00  0.00    -0.323 N 
HETATM   15  H   UNL     1      -9.167   2.642 -33.043  1.00  0.00     0.169 HD
HETATM   16  O   UNL     1      -8.344   0.394 -35.151  1.00  0.00    -0.267 OA
BRANCH  14  17
HETATM   17  C   UNL     1     -10.738   1.737 -34.029  1.00  0.00     0.035 A 
HETATM   18  C   UNL     1     -11.508   2.595 -34.820  1.00  0.00     0.032 A 
HETATM   19  C   UNL     1     -12.865   2.335 -35.032  1.00  0.00     0.044 A 
HETATM   20  C   UNL     1     -13.449   1.213 -34.458  1.00  0.00     0.116 A 
HETATM   21  F   UNL     1     -14.750   0.966 -34.662  1.00  0.00    -0.206 F 
HETATM   22  C   UNL     1     -12.703   0.346 -33.672  1.00  0.00     0.044 A 
HETATM   23  C   UNL     1     -11.349   0.611 -33.456  1.00  0.00     0.032 A 
ENDBRANCH  14  17
ENDBRANCH   9  13
BRANCH   4  24
HETATM   24  C   UNL     1      -2.556   4.481 -32.622  1.00  0.00     0.060 A 
HETATM   25  C   UNL     1      -2.035   4.795 -33.884  1.00  0.00     0.031 A 
HETATM   26  C   UNL     1      -1.259   5.945 -34.056  1.00  0.00     0.002 A 
HETATM   27  C   UNL     1      -0.991   6.781 -32.974  1.00  0.00     0.000 A 
HETATM   28  C   UNL     1      -1.485   6.464 -31.711  1.00  0.00     0.002 A 
HETATM   29  C   UNL     1      -2.256   5.314 -31.531  1.00  0.00     0.031 A 
ENDBRANCH   4  24
TORSDOF 3
ENDMDL
MODEL 4
REMARK VINA RESULT:      -8.8      5.848      8.181
REMARK  3 active torsions:
REMARK  status: ('A' for Active; 'I' for Inactive)
REMARK    1  A    between atoms: N_4  and  C_5 
REMARK    2  A    between atoms: C_15  and  C_16 
REMARK       I    between atoms: C_16  and  N_17 
REMARK    3  A    between atoms: N_17  and  C_18 
ROOT
HETATM    1  C   UNL     1     -13.785  -0.126 -33.618  1.00  0.00     0.073 C 
HETATM    2  C   UNL     1     -12.983   1.115 -33.754  1.00  0.00     0.069 A 
HETATM    3  N   UNL     1     -13.556   2.252 -34.172  1.00  0.00    -0.170 NA
HETATM    4  N   UNL     1     -12.564   3.195 -34.140  1.00  0.00    -0.216 N 
HETATM    5  C   UNL     1     -11.350   2.597 -33.837  1.00  0.00     0.145 A 
HETATM    6  C   UNL     1     -11.602   1.278 -33.541  1.00  0.00     0.087 A 
HETATM    7  N   UNL     1     -10.095   3.108 -33.864  1.00  0.00    -0.349 N 
HETATM    8  C   UNL     1      -9.037   2.255 -33.595  1.00  0.00     0.111 A 
HETATM    9  C   UNL     1      -9.160   0.953 -33.249  1.00  0.00     0.098 A 
HETATM   10  C   UNL     1     -10.543   0.365 -33.166  1.00  0.00     0.205 A 
HETATM   11  O   UNL     1     -10.739  -0.798 -32.824  1.00  0.00    -0.286 OA
HETATM   12  H   UNL     1      -9.857   3.993 -34.312  1.00  0.00     0.167 HD
ENDROOT
BRANCH   9  13
HETATM   13  C   UNL     1      -7.910   0.165 -33.008  1.00  0.00     0.261 C 
HETATM   14  N   UNL     1      -7.647  -0.801 -33.956  1.00  0.00    -0.323 N 
HETATM   15  H   UNL     1      -8.335  -0.910 -34.703  1.00  0.00     0.169 HD
HETATM   16  O   UNL     1      -7.219   0.408 -32.022  1.00  0.00    -0.267 OA
BRANCH  14  17
HETATM   17  C   UNL     1      -6.531  -1.658 -34.034  1.00  0.00     0.035 A 
HETATM   18  C   UNL     1      -5.250  -1.321 -33.588  1.00  0.00     0.032 A 
HETATM   19  C   UNL     1      -4.194  -2.228 -33.720  1.00  0.00     0.044 A 
HETATM   20  C   UNL     1      -4.421  -3.472 -34.294  1.00  0.00     0.116 A 
HETATM   21  F   UNL     1      -3.407  -4.339 -34.420  1.00  0.00    -0.206 F 
HETATM   22  C   UNL     1      -5.686  -3.828 -34.741  1.00  0.00     0.044 A 
HETATM   23  C   UNL     1      -6.739  -2.920 -34.614  1.00  0.00     0.032 A 
ENDBRANCH  14  17
ENDBRANCH   9  13
BRANCH   4  24
HETATM   24  C   UNL     1     -12.875   4.562 -34.388  1.00  0.00     0.060 A 
HETATM   25  C   UNL     1     -13.255   5.433 -33.359  1.00  0.00     0.031 A 
HETATM   26  C   UNL     1     -13.549   6.769 -33.643  1.00  0.00     0.002 A 
HETATM   27  C   UNL     1     -13.475   7.242 -34.952  1.00  0.00     0.000 A 
HETATM   28  C   UNL     1     -13.122   6.378 -35.986  1.00  0.00     0.002 A 
HETATM   29  C   UNL     1     -12.832   5.040 -35.709  1.00  0.00     0.031 A 
ENDBRANCH   4  24
TORSDOF 3
ENDMDL
MODEL 5
REMARK VINA RESULT:      -8.7      6.414      9.408
REMARK  3 active torsions:
REMARK  status: ('A' for Active; 'I' for Inactive)
REMARK    1  A    between atoms: N_4  and  C_5 
REMARK    2  A    between atoms: C_15  and  C_16 
REMARK       I    between atoms: C_16  and  N_17 
REMARK    3  A    between atoms: N_17  and  C_18 
ROOT
HETATM    1  C   UNL     1      -7.022   2.562 -30.098  1.00  0.00     0.073 C 
HETATM    2  C   UNL     1      -7.319   1.668 -31.244  1.00  0.00     0.069 A 
HETATM    3  N   UNL     1      -6.382   0.836 -31.718  1.00  0.00    -0.170 NA
HETATM    4  N   UNL     1      -6.988   0.135 -32.725  1.00  0.00    -0.216 N 
HETATM    5  C   UNL     1      -8.258   0.643 -32.959  1.00  0.00     0.145 A 
HETATM    6  C   UNL     1      -8.507   1.590 -31.994  1.00  0.00     0.087 A 
HETATM    7  N   UNL     1      -9.135   0.373 -33.956  1.00  0.00    -0.349 N 
HETATM    8  C   UNL     1     -10.315   1.097 -34.000  1.00  0.00     0.111 A 
HETATM    9  C   UNL     1     -10.692   2.021 -33.087  1.00  0.00     0.098 A 
HETATM   10  C   UNL     1      -9.761   2.312 -31.941  1.00  0.00     0.205 A 
HETATM   11  O   UNL     1     -10.047   3.110 -31.053  1.00  0.00    -0.286 OA
HETATM   12  H   UNL     1      -8.882  -0.128 -34.807  1.00  0.00     0.167 HD
ENDROOT
BRANCH   9  13
HETATM   13  C   UNL     1     -11.997   2.726 -33.293  1.00  0.00     0.261 C 
HETATM   14  N   UNL     1     -12.917   2.540 -32.283  1.00  0.00    -0.323 N 
HETATM   15  H   UNL     1     -12.641   1.922 -31.518  1.00  0.00     0.169 HD
HETATM   16  O   UNL     1     -12.171   3.399 -34.305  1.00  0.00    -0.267 OA
BRANCH  14  17
HETATM   17  C   UNL     1     -14.201   3.110 -32.163  1.00  0.00     0.035 A 
HETATM   18  C   UNL     1     -14.437   4.468 -31.933  1.00  0.00     0.032 A 
HETATM   19  C   UNL     1     -15.746   4.947 -31.810  1.00  0.00     0.044 A 
HETATM   20  C   UNL     1     -16.815   4.068 -31.921  1.00  0.00     0.116 A 
HETATM   21  F   UNL     1     -18.067   4.529 -31.801  1.00  0.00    -0.206 F 
HETATM   22  C   UNL     1     -16.602   2.716 -32.152  1.00  0.00     0.044 A 
HETATM   23  C   UNL     1     -15.295   2.237 -32.269  1.00  0.00     0.032 A 
ENDBRANCH  14  17
ENDBRANCH   9  13
BRANCH   4  24
HETATM   24  C   UNL     1      -6.306  -0.947 -33.350  1.00  0.00     0.060 A 
HETATM   25  C   UNL     1      -6.966  -1.849 -34.193  1.00  0.00     0.031 A 
HETATM   26  C   UNL     1      -6.260  -2.896 -34.791  1.00  0.00     0.002 A 
HETATM   27  C   UNL     1      -4.897  -3.057 -34.544  1.00  0.00     0.000 A 
HETATM   28  C   UNL     1      -4.238  -2.179 -33.687  1.00  0.00     0.002 A 
HETATM   29  C   UNL     1      -4.939  -1.133 -33.083  1.00  0.00     0.031 A 
ENDBRANCH   4  24
TORSDOF 3
ENDMDL
MODEL 6
REMARK VINA RESULT:      -8.6      3.558      3.957
REMARK  3 active torsions:
REMARK  status: ('A' for Active; 'I' for Inactive)
REMARK    1  A    between atoms: N_4  and  C_5 
REMARK    2  A    between atoms: C_15  and  C_16 
REMARK       I    between atoms: C_16  and  N_17 
REMARK    3  A    between atoms: N_17  and  C_18 
ROOT
HETATM    1  C   UNL     1      -1.844   5.107 -34.944  1.00  0.00     0.073 C 
HETATM    2  C   UNL     1      -2.059   5.280 -33.486  1.00  0.00     0.069 A 
HETATM    3  N   UNL     1      -1.032   5.575 -32.678  1.00  0.00    -0.170 NA
HETATM    4  N   UNL     1      -1.575   5.709 -31.429  1.00  0.00    -0.216 N 
HETATM    5  C   UNL     1      -2.915   5.353 -31.454  1.00  0.00     0.145 A 
HETATM    6  C   UNL     1      -3.257   5.121 -32.765  1.00  0.00     0.087 A 
HETATM    7  N   UNL     1      -3.790   5.174 -30.433  1.00  0.00    -0.349 N 
HETATM    8  C   UNL     1      -5.065   4.728 -30.738  1.00  0.00     0.111 A 
HETATM    9  C   UNL     1      -5.531   4.507 -31.988  1.00  0.00     0.098 A 
HETATM   10  C   UNL     1      -4.600   4.739 -33.147  1.00  0.00     0.205 A 
HETATM   11  O   UNL     1      -4.959   4.596 -34.313  1.00  0.00    -0.286 OA
HETATM   12  H   UNL     1      -3.506   5.096 -29.457  1.00  0.00     0.167 HD
ENDROOT
BRANCH   9  13
HETATM   13  C   UNL     1      -6.935   4.008 -32.141  1.00  0.00     0.261 C 
HETATM   14  N   UNL     1      -7.041   2.758 -32.714  1.00  0.00    -0.323 N 
HETATM   15  H   UNL     1      -6.170   2.312 -33.007  1.00  0.00     0.169 HD
HETATM   16  O   UNL     1      -7.873   4.707 -31.768  1.00  0.00    -0.267 OA
BRANCH  14  17
HETATM   17  C   UNL     1      -8.210   2.004 -32.939  1.00  0.00     0.035 A 
HETATM   18  C   UNL     1      -9.106   2.239 -33.986  1.00  0.00     0.032 A 
HETATM   19  C   UNL     1     -10.253   1.451 -34.125  1.00  0.00     0.044 A 
HETATM   20  C   UNL     1     -10.499   0.426 -33.221  1.00  0.00     0.116 A 
HETATM   21  F   UNL     1     -11.599  -0.327 -33.356  1.00  0.00    -0.206 F 
HETATM   22  C   UNL     1      -9.621   0.174 -32.176  1.00  0.00     0.044 A 
HETATM   23  C   UNL     1      -8.479   0.965 -32.034  1.00  0.00     0.032 A 
ENDBRANCH  14  17
ENDBRANCH   9  13
BRANCH   4  24
HETATM   24  C   UNL     1      -0.770   6.169 -30.349  1.00  0.00     0.060 A 
HETATM   25  C   UNL     1      -0.755   7.514 -29.958  1.00  0.00     0.031 A 
HETATM   26  C   UNL     1       0.047   7.926 -28.891  1.00  0.00     0.002 A 
HETATM   27  C   UNL     1       0.844   7.005 -28.214  1.00  0.00     0.000 A 
HETATM   28  C   UNL     1       0.855   5.670 -28.611  1.00  0.00     0.002 A 
HETATM   29  C   UNL     1       0.059   5.253 -29.680  1.00  0.00     0.031 A 
ENDBRANCH   4  24
TORSDOF 3
ENDMDL
MODEL 7
REMARK VINA RESULT:      -8.2      5.845      8.512
REMARK  3 active torsions:
REMARK  status: ('A' for Active; 'I' for Inactive)
REMARK    1  A    between atoms: N_4  and  C_5 
REMARK    2  A    between atoms: C_15  and  C_16 
REMARK       I    between atoms: C_16  and  N_17 
REMARK    3  A    between atoms: N_17  and  C_18 
ROOT
HETATM    1  C   UNL     1      -9.576   5.181 -30.880  1.00  0.00     0.073 C 
HETATM    2  C   UNL     1     -10.561   4.276 -31.521  1.00  0.00     0.069 A 
HETATM    3  N   UNL     1     -11.865   4.374 -31.228  1.00  0.00    -0.170 NA
HETATM    4  N   UNL     1     -12.489   3.442 -32.013  1.00  0.00    -0.216 N 
HETATM    5  C   UNL     1     -11.544   2.676 -32.680  1.00  0.00     0.145 A 
HETATM    6  C   UNL     1     -10.310   3.221 -32.417  1.00  0.00     0.087 A 
HETATM    7  N   UNL     1     -11.698   1.550 -33.419  1.00  0.00    -0.349 N 
HETATM    8  C   UNL     1     -10.560   0.929 -33.908  1.00  0.00     0.111 A 
HETATM    9  C   UNL     1      -9.299   1.392 -33.753  1.00  0.00     0.098 A 
HETATM   10  C   UNL     1      -9.096   2.664 -32.976  1.00  0.00     0.205 A 
HETATM   11  O   UNL     1      -7.986   3.167 -32.823  1.00  0.00    -0.286 OA
HETATM   12  H   UNL     1     -12.552   0.993 -33.424  1.00  0.00     0.167 HD
ENDROOT
BRANCH   9  13
HETATM   13  C   UNL     1      -8.176   0.588 -34.332  1.00  0.00     0.261 C 
HETATM   14  N   UNL     1      -7.710  -0.421 -33.515  1.00  0.00    -0.323 N 
HETATM   15  H   UNL     1      -8.144  -0.503 -32.594  1.00  0.00     0.169 HD
HETATM   16  O   UNL     1      -7.747   0.859 -35.450  1.00  0.00    -0.267 OA
BRANCH  14  17
HETATM   17  C   UNL     1      -6.710  -1.373 -33.797  1.00  0.00     0.035 A 
HETATM   18  C   UNL     1      -6.916  -2.527 -34.559  1.00  0.00     0.032 A 
HETATM   19  C   UNL     1      -5.870  -3.429 -34.775  1.00  0.00     0.044 A 
HETATM   20  C   UNL     1      -4.617  -3.173 -34.233  1.00  0.00     0.116 A 
HETATM   21  F   UNL     1      -3.616  -4.039 -34.441  1.00  0.00    -0.206 F 
HETATM   22  C   UNL     1      -4.389  -2.032 -33.476  1.00  0.00     0.044 A 
HETATM   23  C   UNL     1      -5.436  -1.135 -33.256  1.00  0.00     0.032 A 
ENDBRANCH  14  17
ENDBRANCH   9  13
BRANCH   4  24
HETATM   24  C   UNL     1     -13.910   3.384 -32.055  1.00  0.00     0.060 A 
HETATM   25  C   UNL     1     -14.595   2.182 -32.277  1.00  0.00     0.031 A 
HETATM   26  C   UNL     1     -15.992   2.165 -32.308  1.00  0.00     0.002 A 
HETATM   27  C   UNL     1     -16.713   3.344 -32.129  1.00  0.00     0.000 A 
HETATM   28  C   UNL     1     -16.041   4.548 -31.933  1.00  0.00     0.002 A 
HETATM   29  C   UNL     1     -14.645   4.572 -31.905  1.00  0.00     0.031 A 
ENDBRANCH   4  24
TORSDOF 3
ENDMDL
MODEL 8
REMARK VINA RESULT:      -8.1      4.640      8.379
REMARK  3 active torsions:
REMARK  status: ('A' for Active; 'I' for Inactive)
REMARK    1  A    between atoms: N_4  and  C_5 
REMARK    2  A    between atoms: C_15  and  C_16 
REMARK       I    between atoms: C_16  and  N_17 
REMARK    3  A    between atoms: N_17  and  C_18 
ROOT
HETATM    1  C   UNL     1      -4.296   2.823 -32.233  1.00  0.00     0.073 C 
HETATM    2  C   UNL     1      -4.852   1.486 -32.556  1.00  0.00     0.069 A 
HETATM    3  N   UNL     1      -4.039   0.436 -32.731  1.00  0.00    -0.170 NA
HETATM    4  N   UNL     1      -4.864  -0.631 -32.964  1.00  0.00    -0.216 N 
HETATM    5  C   UNL     1      -6.177  -0.201 -33.073  1.00  0.00     0.145 A 
HETATM    6  C   UNL     1      -6.199   1.140 -32.769  1.00  0.00     0.087 A 
HETATM    7  N   UNL     1      -7.287  -0.875 -33.462  1.00  0.00    -0.349 N 
HETATM    8  C   UNL     1      -8.476  -0.171 -33.566  1.00  0.00     0.111 A 
HETATM    9  C   UNL     1      -8.632   1.135 -33.254  1.00  0.00     0.098 A 
HETATM   10  C   UNL     1      -7.430   1.903 -32.776  1.00  0.00     0.205 A 
HETATM   11  O   UNL     1      -7.497   3.082 -32.439  1.00  0.00    -0.286 OA
HETATM   12  H   UNL     1      -7.260  -1.784 -33.924  1.00  0.00     0.167 HD
ENDROOT
BRANCH   9  13
HETATM   13  C   UNL     1      -9.985   1.749 -33.440  1.00  0.00     0.261 C 
HETATM   14  N   UNL     1      -9.968   3.074 -33.822  1.00  0.00    -0.323 N 
HETATM   15  H   UNL     1      -9.051   3.515 -33.909  1.00  0.00     0.169 HD
HETATM   16  O   UNL     1     -10.992   1.072 -33.248  1.00  0.00    -0.267 OA
BRANCH  14  17
HETATM   17  C   UNL     1     -11.066   3.904 -34.126  1.00  0.00     0.035 A 
HETATM   18  C   UNL     1     -11.538   4.138 -35.420  1.00  0.00     0.032 A 
HETATM   19  C   UNL     1     -12.626   4.991 -35.633  1.00  0.00     0.044 A 
HETATM   20  C   UNL     1     -13.242   5.605 -34.550  1.00  0.00     0.116 A 
HETATM   21  F   UNL     1     -14.284   6.422 -34.757  1.00  0.00    -0.206 F 
HETATM   22  C   UNL     1     -12.791   5.383 -33.257  1.00  0.00     0.044 A 
HETATM   23  C   UNL     1     -11.702   4.536 -33.045  1.00  0.00     0.032 A 
ENDBRANCH  14  17
ENDBRANCH   9  13
BRANCH   4  24
HETATM   24  C   UNL     1      -4.321  -1.945 -33.049  1.00  0.00     0.060 A 
HETATM   25  C   UNL     1      -4.561  -2.775 -34.151  1.00  0.00     0.031 A 
HETATM   26  C   UNL     1      -4.008  -4.057 -34.198  1.00  0.00     0.002 A 
HETATM   27  C   UNL     1      -3.221  -4.522 -33.146  1.00  0.00     0.000 A 
HETATM   28  C   UNL     1      -2.996  -3.713 -32.034  1.00  0.00     0.002 A 
HETATM   29  C   UNL     1      -3.551  -2.433 -31.979  1.00  0.00     0.031 A 
ENDBRANCH   4  24
TORSDOF 3
ENDMDL
MODEL 9
REMARK VINA RESULT:      -8.0      4.821      7.346
REMARK  3 active torsions:
REMARK  status: ('A' for Active; 'I' for Inactive)
REMARK    1  A    between atoms: N_4  and  C_5 
REMARK    2  A    between atoms: C_15  and  C_16 
REMARK       I    between atoms: C_16  and  N_17 
REMARK    3  A    between atoms: N_17  and  C_18 
ROOT
HETATM    1  C   UNL     1      -7.712   3.828 -29.827  1.00  0.00     0.073 C 
HETATM    2  C   UNL     1      -8.867   3.614 -30.734  1.00  0.00     0.069 A 
HETATM    3  N   UNL     1     -10.047   4.197 -30.482  1.00  0.00    -0.170 NA
HETATM    4  N   UNL     1     -10.864   3.836 -31.518  1.00  0.00    -0.216 N 
HETATM    5  C   UNL     1     -10.221   2.912 -32.329  1.00  0.00     0.145 A 
HETATM    6  C   UNL     1      -8.929   2.792 -31.874  1.00  0.00     0.087 A 
HETATM    7  N   UNL     1     -10.702   2.168 -33.355  1.00  0.00    -0.349 N 
HETATM    8  C   UNL     1      -9.853   1.247 -33.947  1.00  0.00     0.111 A 
HETATM    9  C   UNL     1      -8.553   1.068 -33.618  1.00  0.00     0.098 A 
HETATM   10  C   UNL     1      -7.975   1.910 -32.513  1.00  0.00     0.205 A 
HETATM   11  O   UNL     1      -6.796   1.832 -32.180  1.00  0.00    -0.286 OA
HETATM   12  H   UNL     1     -11.696   2.054 -33.549  1.00  0.00     0.167 HD
ENDROOT
BRANCH   9  13
HETATM   13  C   UNL     1      -7.779   0.014 -34.347  1.00  0.00     0.261 C 
HETATM   14  N   UNL     1      -7.217  -0.951 -33.537  1.00  0.00    -0.323 N 
HETATM   15  H   UNL     1      -7.350  -0.840 -32.531  1.00  0.00     0.169 HD
HETATM   16  O   UNL     1      -7.686   0.064 -35.570  1.00  0.00    -0.267 OA
BRANCH  14  17
HETATM   17  C   UNL     1      -6.484  -2.090 -33.926  1.00  0.00     0.035 A 
HETATM   18  C   UNL     1      -5.089  -2.168 -33.910  1.00  0.00     0.032 A 
HETATM   19  C   UNL     1      -4.441  -3.334 -34.330  1.00  0.00     0.044 A 
HETATM   20  C   UNL     1      -5.190  -4.422 -34.759  1.00  0.00     0.116 A 
HETATM   21  F   UNL     1      -4.566  -5.538 -35.162  1.00  0.00    -0.206 F 
HETATM   22  C   UNL     1      -6.576  -4.367 -34.780  1.00  0.00     0.044 A 
HETATM   23  C   UNL     1      -7.222  -3.200 -34.366  1.00  0.00     0.032 A 
ENDBRANCH  14  17
ENDBRANCH   9  13
BRANCH   4  24
HETATM   24  C   UNL     1     -12.161   4.411 -31.635  1.00  0.00     0.060 A 
HETATM   25  C   UNL     1     -12.601   5.007 -32.824  1.00  0.00     0.031 A 
HETATM   26  C   UNL     1     -13.883   5.558 -32.900  1.00  0.00     0.002 A 
HETATM   27  C   UNL     1     -14.728   5.527 -31.793  1.00  0.00     0.000 A 
HETATM   28  C   UNL     1     -14.291   4.958 -30.599  1.00  0.00     0.002 A 
HETATM   29  C   UNL     1     -13.009   4.410 -30.515  1.00  0.00     0.031 A 
ENDBRANCH   4  24
TORSDOF 3
ENDMDL
MODEL 10
REMARK VINA RESULT:      -7.9      3.866      5.225
REMARK  3 active torsions:
REMARK  status: ('A' for Active; 'I' for Inactive)
REMARK    1  A    between atoms: N_4  and  C_5 
REMARK    2  A    between atoms: C_15  and  C_16 
REMARK       I    between atoms: C_16  and  N_17 
REMARK    3  A    between atoms: N_17  and  C_18 
ROOT
HETATM    1  C   UNL     1      -3.756   0.586 -31.496  1.00  0.00     0.073 C 
HETATM    2  C   UNL     1      -3.648   2.043 -31.752  1.00  0.00     0.069 A 
HETATM    3  N   UNL     1      -2.562   2.723 -31.360  1.00  0.00    -0.170 NA
HETATM    4  N   UNL     1      -2.761   4.009 -31.784  1.00  0.00    -0.216 N 
HETATM    5  C   UNL     1      -4.038   4.142 -32.310  1.00  0.00     0.145 A 
HETATM    6  C   UNL     1      -4.604   2.889 -32.343  1.00  0.00     0.087 A 
HETATM    7  N   UNL     1      -4.714   5.255 -32.688  1.00  0.00    -0.349 N 
HETATM    8  C   UNL     1      -6.027   5.110 -33.105  1.00  0.00     0.111 A 
HETATM    9  C   UNL     1      -6.678   3.930 -33.221  1.00  0.00     0.098 A 
HETATM   10  C   UNL     1      -5.941   2.671 -32.853  1.00  0.00     0.205 A 
HETATM   11  O   UNL     1      -6.450   1.558 -32.965  1.00  0.00    -0.286 OA
HETATM   12  H   UNL     1      -4.420   6.201 -32.446  1.00  0.00     0.167 HD
ENDROOT
BRANCH   9  13
HETATM   13  C   UNL     1      -8.105   3.951 -33.672  1.00  0.00     0.261 C 
HETATM   14  N   UNL     1      -8.881   2.926 -33.173  1.00  0.00    -0.323 N 
HETATM   15  H   UNL     1      -8.411   2.240 -32.581  1.00  0.00     0.169 HD
HETATM   16  O   UNL     1      -8.491   4.838 -34.429  1.00  0.00    -0.267 OA
BRANCH  14  17
HETATM   17  C   UNL     1     -10.260   2.708 -33.369  1.00  0.00     0.035 A 
HETATM   18  C   UNL     1     -11.266   3.509 -32.821  1.00  0.00     0.032 A 
HETATM   19  C   UNL     1     -12.613   3.210 -33.052  1.00  0.00     0.044 A 
HETATM   20  C   UNL     1     -12.951   2.113 -33.834  1.00  0.00     0.116 A 
HETATM   21  F   UNL     1     -14.241   1.828 -34.053  1.00  0.00    -0.206 F 
HETATM   22  C   UNL     1     -11.967   1.307 -34.390  1.00  0.00     0.044 A 
HETATM   23  C   UNL     1     -10.623   1.603 -34.154  1.00  0.00     0.032 A 
ENDBRANCH  14  17
ENDBRANCH   9  13
BRANCH   4  24
HETATM   24  C   UNL     1      -1.719   4.970 -31.656  1.00  0.00     0.060 A 
HETATM   25  C   UNL     1      -0.837   4.963 -30.568  1.00  0.00     0.031 A 
HETATM   26  C   UNL     1       0.175   5.922 -30.479  1.00  0.00     0.002 A 
HETATM   27  C   UNL     1       0.309   6.897 -31.466  1.00  0.00     0.000 A 
HETATM   28  C   UNL     1      -0.579   6.927 -32.539  1.00  0.00     0.002 A 
HETATM   29  C   UNL     1      -1.596   5.974 -32.631  1.00  0.00     0.031 A 
ENDBRANCH   4  24
TORSDOF 3
ENDMDL
