MODEL 1
REMARK VINA RESULT:      -8.4      0.000      0.000
REMARK  4 active torsions:
REMARK  status: ('A' for Active; 'I' for Inactive)
REMARK    1  A    between atoms: C_5  and  C_6 
REMARK    2  A    between atoms: C_6  and  N_7 
REMARK    3  A    between atoms: C_6  and  C_18 
REMARK    4  A    between atoms: N_7  and  C_8 
ROOT
HETATM    1  C   UNL     1      -6.237  -0.514 -33.025  1.00  0.00     0.290 C 
ENDROOT
BRANCH   1   2
HETATM    2  C   UNL     1      -5.860  -1.857 -33.654  1.00  0.00     0.021 A 
HETATM    3  C   UNL     1      -6.779  -2.611 -34.409  1.00  0.00     0.055 A 
HETATM    4  C   UNL     1      -6.399  -3.805 -35.023  1.00  0.00     0.117 A 
HETATM    5  C   UNL     1      -5.095  -4.270 -34.946  1.00  0.00     0.045 A 
HETATM    6  F   UNL     1      -7.310  -4.507 -35.707  1.00  0.00    -0.206 F 
HETATM    7  C   UNL     1      -4.153  -3.518 -34.255  1.00  0.00     0.046 A 
HETATM    8  C   UNL     1      -4.532  -2.325 -33.633  1.00  0.00     0.125 A 
HETATM    9  F   UNL     1      -3.570  -1.633 -33.007  1.00  0.00    -0.205 F 
ENDBRANCH   1   2
BRANCH   1  10
HETATM   10  N   UNL     1      -5.919  -0.362 -31.586  1.00  0.00     0.101 NA
HETATM   11  H   UNL     1      -5.474  -1.234 -31.295  1.00  0.00     0.317 HD
BRANCH  10  12
HETATM   12  C   UNL     1      -5.122   0.779 -31.130  1.00  0.00     0.225 C 
HETATM   13  C   UNL     1      -4.298   1.450 -32.248  1.00  0.00     0.069 C 
HETATM   14  C   UNL     1      -3.616   2.694 -31.712  1.00  0.00     0.190 C 
HETATM   15  N   UNL     1      -4.673   3.640 -31.213  1.00  0.00    -0.067 N 
HETATM   16  C   UNL     1      -2.888   3.566 -32.712  1.00  0.00     0.035 C 
HETATM   17  H   UNL     1      -5.353   3.783 -31.975  1.00  0.00     0.280 HD
HETATM   18  C   UNL     1      -5.426   3.084 -30.050  1.00  0.00     0.237 C 
HETATM   19  C   UNL     1      -3.976   4.961 -31.020  1.00  0.00     0.235 C 
HETATM   20  C   UNL     1      -6.109   1.796 -30.503  1.00  0.00     0.063 C 
HETATM   21  C   UNL     1      -2.790   4.906 -31.984  1.00  0.00     0.030 C 
ENDBRANCH  10  12
ENDBRANCH   1  10
BRANCH   1  22
HETATM   22  C   UNL     1      -7.613   0.073 -33.342  1.00  0.00    -0.018 A 
HETATM   23  C   UNL     1      -7.724   1.080 -34.314  1.00  0.00     0.029 A 
HETATM   24  C   UNL     1      -8.964   1.649 -34.558  1.00  0.00     0.116 A 
HETATM   25  N   UNL     1     -10.088   1.296 -33.905  1.00  0.00    -0.273 NA
HETATM   26  C   UNL     1      -9.978   0.323 -32.981  1.00  0.00     0.116 A 
HETATM   27  C   UNL     1      -8.781  -0.301 -32.662  1.00  0.00     0.029 A 
ENDBRANCH   1  22
TORSDOF 4
ENDMDL
MODEL 2
REMARK VINA RESULT:      -8.2      1.790      2.741
REMARK  4 active torsions:
REMARK  status: ('A' for Active; 'I' for Inactive)
REMARK    1  A    between atoms: C_5  and  C_6 
REMARK    2  A    between atoms: C_6  and  N_7 
REMARK    3  A    between atoms: C_6  and  C_18 
REMARK    4  A    between atoms: N_7  and  C_8 
ROOT
HETATM    1  C   UNL     1      -6.670   0.960 -33.396  1.00  0.00     0.290 C 
ENDROOT
BRANCH   1   2
HETATM    2  C   UNL     1      -5.850  -0.305 -33.655  1.00  0.00     0.021 A 
HETATM    3  C   UNL     1      -4.793  -0.695 -32.810  1.00  0.00     0.055 A 
HETATM    4  C   UNL     1      -4.095  -1.883 -33.031  1.00  0.00     0.117 A 
HETATM    5  C   UNL     1      -4.443  -2.741 -34.063  1.00  0.00     0.045 A 
HETATM    6  F   UNL     1      -3.077  -2.203 -32.222  1.00  0.00    -0.206 F 
HETATM    7  C   UNL     1      -5.519  -2.410 -34.878  1.00  0.00     0.046 A 
HETATM    8  C   UNL     1      -6.215  -1.217 -34.664  1.00  0.00     0.125 A 
HETATM    9  F   UNL     1      -7.260  -0.970 -35.466  1.00  0.00    -0.205 F 
ENDBRANCH   1   2
BRANCH   1  10
HETATM   10  N   UNL     1      -6.232   1.792 -32.250  1.00  0.00     0.101 NA
HETATM   11  H   UNL     1      -5.631   1.198 -31.677  1.00  0.00     0.317 HD
BRANCH  10  12
HETATM   12  C   UNL     1      -5.575   3.079 -32.491  1.00  0.00     0.225 C 
HETATM   13  C   UNL     1      -4.053   3.057 -32.244  1.00  0.00     0.069 C 
HETATM   14  C   UNL     1      -3.446   4.388 -32.647  1.00  0.00     0.190 C 
HETATM   15  N   UNL     1      -3.729   4.620 -34.105  1.00  0.00    -0.067 N 
HETATM   16  C   UNL     1      -1.936   4.493 -32.618  1.00  0.00     0.035 C 
HETATM   17  H   UNL     1      -3.402   3.791 -34.625  1.00  0.00     0.280 HD
HETATM   18  C   UNL     1      -5.188   4.765 -34.381  1.00  0.00     0.237 C 
HETATM   19  C   UNL     1      -2.829   5.755 -34.516  1.00  0.00     0.235 C 
HETATM   20  C   UNL     1      -5.879   3.472 -33.959  1.00  0.00     0.063 C 
HETATM   21  C   UNL     1      -1.664   5.690 -33.528  1.00  0.00     0.030 C 
ENDBRANCH  10  12
ENDBRANCH   1  10
BRANCH   1  22
HETATM   22  C   UNL     1      -8.196   0.855 -33.438  1.00  0.00    -0.018 A 
HETATM   23  C   UNL     1      -8.922   1.730 -34.261  1.00  0.00     0.029 A 
HETATM   24  C   UNL     1     -10.307   1.669 -34.254  1.00  0.00     0.116 A 
HETATM   25  N   UNL     1     -11.012   0.814 -33.487  1.00  0.00    -0.273 NA
HETATM   26  C   UNL     1     -10.309  -0.029 -32.707  1.00  0.00     0.116 A 
HETATM   27  C   UNL     1      -8.924  -0.039 -32.641  1.00  0.00     0.029 A 
ENDBRANCH   1  22
TORSDOF 4
ENDMDL
MODEL 3
REMARK VINA RESULT:      -8.1      1.961      5.135
REMARK  4 active torsions:
REMARK  status: ('A' for Active; 'I' for Inactive)
REMARK    1  A    between atoms: C_5  and  C_6 
REMARK    2  A    between atoms: C_6  and  N_7 
REMARK    3  A    between atoms: C_6  and  C_18 
REMARK    4  A    between atoms: N_7  and  C_8 
ROOT
HETATM    1  C   UNL     1      -6.345   0.440 -31.369  1.00  0.00     0.290 C 
ENDROOT
BRANCH   1   2
HETATM    2  C   UNL     1      -5.877  -0.666 -32.317  1.00  0.00     0.021 A 
HETATM    3  C   UNL     1      -6.695  -1.155 -33.355  1.00  0.00     0.055 A 
HETATM    4  C   UNL     1      -6.227  -2.122 -34.245  1.00  0.00     0.117 A 
HETATM    5  C   UNL     1      -4.931  -2.607 -34.166  1.00  0.00     0.045 A 
HETATM    6  F   UNL     1      -7.045  -2.582 -35.199  1.00  0.00    -0.206 F 
HETATM    7  C   UNL     1      -4.083  -2.102 -33.187  1.00  0.00     0.046 A 
HETATM    8  C   UNL     1      -4.550  -1.137 -32.289  1.00  0.00     0.125 A 
HETATM    9  F   UNL     1      -3.675  -0.670 -31.388  1.00  0.00    -0.205 F 
ENDBRANCH   1   2
BRANCH   1  10
HETATM   10  N   UNL     1      -7.804   0.502 -31.118  1.00  0.00     0.101 NA
HETATM   11  H   UNL     1      -7.917   0.740 -30.131  1.00  0.00     0.317 HD
BRANCH  10  12
HETATM   12  C   UNL     1      -8.649   1.373 -31.938  1.00  0.00     0.225 C 
HETATM   13  C   UNL     1      -9.793   0.633 -32.660  1.00  0.00     0.069 C 
HETATM   14  C   UNL     1     -10.688   1.630 -33.370  1.00  0.00     0.190 C 
HETATM   15  N   UNL     1     -11.252   2.578 -32.348  1.00  0.00    -0.067 N 
HETATM   16  C   UNL     1     -11.953   1.092 -34.003  1.00  0.00     0.035 C 
HETATM   17  H   UNL     1     -11.693   2.014 -31.605  1.00  0.00     0.280 HD
HETATM   18  C   UNL     1     -10.193   3.406 -31.700  1.00  0.00     0.237 C 
HETATM   19  C   UNL     1     -12.372   3.304 -33.044  1.00  0.00     0.235 C 
HETATM   20  C   UNL     1      -9.221   2.462 -30.996  1.00  0.00     0.063 C 
HETATM   21  C   UNL     1     -12.818   2.343 -34.146  1.00  0.00     0.030 C 
ENDBRANCH  10  12
ENDBRANCH   1  10
BRANCH   1  22
HETATM   22  C   UNL     1      -5.765   1.843 -31.553  1.00  0.00    -0.018 A 
HETATM   23  C   UNL     1      -5.538   2.646 -30.423  1.00  0.00     0.029 A 
HETATM   24  C   UNL     1      -5.065   3.938 -30.598  1.00  0.00     0.116 A 
HETATM   25  N   UNL     1      -4.815   4.484 -31.804  1.00  0.00    -0.273 NA
HETATM   26  C   UNL     1      -5.026   3.706 -32.883  1.00  0.00     0.116 A 
HETATM   27  C   UNL     1      -5.502   2.405 -32.810  1.00  0.00     0.029 A 
ENDBRANCH   1  22
TORSDOF 4
ENDMDL
MODEL 4
REMARK VINA RESULT:      -8.1      2.544      6.272
REMARK  4 active torsions:
REMARK  status: ('A' for Active; 'I' for Inactive)
REMARK    1  A    between atoms: C_5  and  C_6 
REMARK    2  A    between atoms: C_6  and  N_7 
REMARK    3  A    between atoms: C_6  and  C_18 
REMARK    4  A    between atoms: N_7  and  C_8 
ROOT
HETATM    1  C   UNL     1      -7.268   1.928 -33.697  1.00  0.00     0.290 C 
ENDROOT
BRANCH   1   2
HETATM    2  C   UNL     1      -8.766   1.617 -33.717  1.00  0.00     0.021 A 
HETATM    3  C   UNL     1      -9.284   0.411 -33.208  1.00  0.00     0.055 A 
HETATM    4  C   UNL     1     -10.659   0.172 -33.182  1.00  0.00     0.117 A 
HETATM    5  C   UNL     1     -11.564   1.127 -33.618  1.00  0.00     0.045 A 
HETATM    6  F   UNL     1     -11.110  -0.999 -32.717  1.00  0.00    -0.206 F 
HETATM    7  C   UNL     1     -11.084   2.350 -34.074  1.00  0.00     0.046 A 
HETATM    8  C   UNL     1      -9.707   2.589 -34.107  1.00  0.00     0.125 A 
HETATM    9  F   UNL     1      -9.310   3.798 -34.530  1.00  0.00    -0.205 F 
ENDBRANCH   1   2
BRANCH   1  10
HETATM   10  N   UNL     1      -6.405   1.002 -34.466  1.00  0.00     0.101 NA
HETATM   11  H   UNL     1      -5.528   1.497 -34.633  1.00  0.00     0.317 HD
BRANCH  10  12
HETATM   12  C   UNL     1      -6.126  -0.339 -33.946  1.00  0.00     0.225 C 
HETATM   13  C   UNL     1      -6.535  -1.477 -34.903  1.00  0.00     0.069 C 
HETATM   14  C   UNL     1      -6.087  -2.812 -34.340  1.00  0.00     0.190 C 
HETATM   15  N   UNL     1      -4.592  -2.785 -34.181  1.00  0.00    -0.067 N 
HETATM   16  C   UNL     1      -6.269  -4.028 -35.224  1.00  0.00     0.035 C 
HETATM   17  H   UNL     1      -4.184  -2.510 -35.087  1.00  0.00     0.280 HD
HETATM   18  C   UNL     1      -4.149  -1.777 -33.174  1.00  0.00     0.237 C 
HETATM   19  C   UNL     1      -4.184  -4.217 -33.955  1.00  0.00     0.235 C 
HETATM   20  C   UNL     1      -4.606  -0.401 -33.653  1.00  0.00     0.063 C 
HETATM   21  C   UNL     1      -5.294  -5.035 -34.616  1.00  0.00     0.030 C 
ENDBRANCH  10  12
ENDBRANCH   1  10
BRANCH   1  22
HETATM   22  C   UNL     1      -6.621   2.286 -32.358  1.00  0.00    -0.018 A 
HETATM   23  C   UNL     1      -5.371   2.924 -32.347  1.00  0.00     0.029 A 
HETATM   24  C   UNL     1      -4.763   3.196 -31.131  1.00  0.00     0.116 A 
HETATM   25  N   UNL     1      -5.301   2.874 -29.939  1.00  0.00    -0.273 NA
HETATM   26  C   UNL     1      -6.505   2.271 -29.955  1.00  0.00     0.116 A 
HETATM   27  C   UNL     1      -7.188   1.952 -31.120  1.00  0.00     0.029 A 
ENDBRANCH   1  22
TORSDOF 4
ENDMDL
MODEL 5
REMARK VINA RESULT:      -8.0      2.570      6.647
REMARK  4 active torsions:
REMARK  status: ('A' for Active; 'I' for Inactive)
REMARK    1  A    between atoms: C_5  and  C_6 
REMARK    2  A    between atoms: C_6  and  N_7 
REMARK    3  A    between atoms: C_6  and  C_18 
REMARK    4  A    between atoms: N_7  and  C_8 
ROOT
HETATM    1  C   UNL     1      -6.985   0.181 -33.338  1.00  0.00     0.290 C 
ENDROOT
BRANCH   1   2
HETATM    2  C   UNL     1      -6.116   1.113 -32.492  1.00  0.00     0.021 A 
HETATM    3  C   UNL     1      -5.576   2.305 -33.013  1.00  0.00     0.055 A 
HETATM    4  C   UNL     1      -4.834   3.171 -32.208  1.00  0.00     0.117 A 
HETATM    5  C   UNL     1      -4.637   2.910 -30.861  1.00  0.00     0.045 A 
HETATM    6  F   UNL     1      -4.313   4.280 -32.749  1.00  0.00    -0.206 F 
HETATM    7  C   UNL     1      -5.206   1.770 -30.307  1.00  0.00     0.046 A 
HETATM    8  C   UNL     1      -5.944   0.897 -31.111  1.00  0.00     0.125 A 
HETATM    9  F   UNL     1      -6.490  -0.169 -30.511  1.00  0.00    -0.205 F 
ENDBRANCH   1   2
BRANCH   1  10
HETATM   10  N   UNL     1      -8.362  -0.048 -32.840  1.00  0.00     0.101 NA
HETATM   11  H   UNL     1      -8.315   0.018 -31.822  1.00  0.00     0.317 HD
BRANCH  10  12
HETATM   12  C   UNL     1      -9.466   0.775 -33.341  1.00  0.00     0.225 C 
HETATM   13  C   UNL     1     -10.835   0.066 -33.311  1.00  0.00     0.069 C 
HETATM   14  C   UNL     1     -11.928   1.036 -33.717  1.00  0.00     0.190 C 
HETATM   15  N   UNL     1     -11.924   2.191 -32.754  1.00  0.00    -0.067 N 
HETATM   16  C   UNL     1     -13.358   0.554 -33.594  1.00  0.00     0.035 C 
HETATM   17  H   UNL     1     -11.985   1.805 -31.799  1.00  0.00     0.280 HD
HETATM   18  C   UNL     1     -10.661   2.983 -32.827  1.00  0.00     0.237 C 
HETATM   19  C   UNL     1     -13.217   2.923 -32.995  1.00  0.00     0.235 C 
HETATM   20  C   UNL     1      -9.502   2.057 -32.471  1.00  0.00     0.063 C 
HETATM   21  C   UNL     1     -14.153   1.859 -33.569  1.00  0.00     0.030 C 
ENDBRANCH  10  12
ENDBRANCH   1  10
BRANCH   1  22
HETATM   22  C   UNL     1      -6.367  -1.124 -33.844  1.00  0.00    -0.018 A 
HETATM   23  C   UNL     1      -7.207  -2.142 -34.322  1.00  0.00     0.029 A 
HETATM   24  C   UNL     1      -6.647  -3.344 -34.726  1.00  0.00     0.116 A 
HETATM   25  N   UNL     1      -5.326  -3.604 -34.681  1.00  0.00    -0.273 NA
HETATM   26  C   UNL     1      -4.525  -2.620 -34.231  1.00  0.00     0.116 A 
HETATM   27  C   UNL     1      -4.991  -1.388 -33.798  1.00  0.00     0.029 A 
ENDBRANCH   1  22
TORSDOF 4
ENDMDL
MODEL 6
REMARK VINA RESULT:      -7.8      2.523      6.419
REMARK  4 active torsions:
REMARK  status: ('A' for Active; 'I' for Inactive)
REMARK    1  A    between atoms: C_5  and  C_6 
REMARK    2  A    between atoms: C_6  and  N_7 
REMARK    3  A    between atoms: C_6  and  C_18 
REMARK    4  A    between atoms: N_7  and  C_8 
ROOT
HETATM    1  C   UNL     1      -7.194   0.207 -33.289  1.00  0.00     0.290 C 
ENDROOT
BRANCH   1   2
HETATM    2  C   UNL     1      -6.540   1.112 -32.244  1.00  0.00     0.021 A 
HETATM    3  C   UNL     1      -6.065   2.399 -32.563  1.00  0.00     0.055 A 
HETATM    4  C   UNL     1      -5.525   3.231 -31.583  1.00  0.00     0.117 A 
HETATM    5  C   UNL     1      -5.473   2.838 -30.254  1.00  0.00     0.045 A 
HETATM    6  F   UNL     1      -5.057   4.436 -31.932  1.00  0.00    -0.206 F 
HETATM    7  C   UNL     1      -5.986   1.596 -29.900  1.00  0.00     0.046 A 
HETATM    8  C   UNL     1      -6.522   0.757 -30.881  1.00  0.00     0.125 A 
HETATM    9  F   UNL     1      -7.025  -0.415 -30.471  1.00  0.00    -0.205 F 
ENDBRANCH   1   2
BRANCH   1  10
HETATM   10  N   UNL     1      -8.629  -0.094 -33.077  1.00  0.00     0.101 NA
HETATM   11  H   UNL     1      -8.690  -0.595 -32.189  1.00  0.00     0.317 HD
BRANCH  10  12
HETATM   12  C   UNL     1      -9.615   0.989 -33.105  1.00  0.00     0.225 C 
HETATM   13  C   UNL     1      -9.335   2.059 -34.179  1.00  0.00     0.069 C 
HETATM   14  C   UNL     1     -10.474   3.060 -34.221  1.00  0.00     0.190 C 
HETATM   15  N   UNL     1     -11.744   2.324 -34.546  1.00  0.00    -0.067 N 
HETATM   16  C   UNL     1     -10.442   4.095 -35.325  1.00  0.00     0.035 C 
HETATM   17  H   UNL     1     -11.581   1.779 -35.407  1.00  0.00     0.280 HD
HETATM   18  C   UNL     1     -12.125   1.354 -33.477  1.00  0.00     0.237 C 
HETATM   19  C   UNL     1     -12.747   3.387 -34.907  1.00  0.00     0.235 C 
HETATM   20  C   UNL     1     -10.998   0.333 -33.345  1.00  0.00     0.063 C 
HETATM   21  C   UNL     1     -11.895   4.560 -35.395  1.00  0.00     0.030 C 
ENDBRANCH  10  12
ENDBRANCH   1  10
BRANCH   1  22
HETATM   22  C   UNL     1      -6.438  -1.045 -33.739  1.00  0.00    -0.018 A 
HETATM   23  C   UNL     1      -5.051  -1.121 -33.533  1.00  0.00     0.029 A 
HETATM   24  C   UNL     1      -4.361  -2.232 -33.992  1.00  0.00     0.116 A 
HETATM   25  N   UNL     1      -4.946  -3.257 -34.642  1.00  0.00    -0.273 NA
HETATM   26  C   UNL     1      -6.278  -3.183 -34.828  1.00  0.00     0.116 A 
HETATM   27  C   UNL     1      -7.052  -2.111 -34.411  1.00  0.00     0.029 A 
ENDBRANCH   1  22
TORSDOF 4
ENDMDL
MODEL 7
REMARK VINA RESULT:      -7.7      1.802      2.428
REMARK  4 active torsions:
REMARK  status: ('A' for Active; 'I' for Inactive)
REMARK    1  A    between atoms: C_5  and  C_6 
REMARK    2  A    between atoms: C_6  and  N_7 
REMARK    3  A    between atoms: C_6  and  C_18 
REMARK    4  A    between atoms: N_7  and  C_8 
ROOT
HETATM    1  C   UNL     1      -5.149   1.098 -32.343  1.00  0.00     0.290 C 
ENDROOT
BRANCH   1   2
HETATM    2  C   UNL     1      -4.692  -0.339 -32.600  1.00  0.00     0.021 A 
HETATM    3  C   UNL     1      -5.083  -1.052 -33.750  1.00  0.00     0.055 A 
HETATM    4  C   UNL     1      -4.608  -2.341 -33.994  1.00  0.00     0.117 A 
HETATM    5  C   UNL     1      -3.705  -2.950 -33.136  1.00  0.00     0.045 A 
HETATM    6  F   UNL     1      -5.027  -2.996 -35.084  1.00  0.00    -0.206 F 
HETATM    7  C   UNL     1      -3.258  -2.249 -32.023  1.00  0.00     0.046 A 
HETATM    8  C   UNL     1      -3.737  -0.960 -31.772  1.00  0.00     0.125 A 
HETATM    9  F   UNL     1      -3.245  -0.326 -30.698  1.00  0.00    -0.205 F 
ENDBRANCH   1   2
BRANCH   1  10
HETATM   10  N   UNL     1      -4.542   1.770 -31.170  1.00  0.00     0.101 NA
HETATM   11  H   UNL     1      -4.026   1.051 -30.661  1.00  0.00     0.317 HD
BRANCH  10  12
HETATM   12  C   UNL     1      -3.694   2.949 -31.361  1.00  0.00     0.225 C 
HETATM   13  C   UNL     1      -3.167   3.111 -32.801  1.00  0.00     0.069 C 
HETATM   14  C   UNL     1      -2.416   4.422 -32.932  1.00  0.00     0.190 C 
HETATM   15  N   UNL     1      -3.356   5.546 -32.597  1.00  0.00    -0.067 N 
HETATM   16  C   UNL     1      -1.961   4.820 -34.320  1.00  0.00     0.035 C 
HETATM   17  H   UNL     1      -4.197   5.440 -33.186  1.00  0.00     0.280 HD
HETATM   18  C   UNL     1      -3.806   5.503 -31.175  1.00  0.00     0.237 C 
HETATM   19  C   UNL     1      -2.671   6.801 -33.070  1.00  0.00     0.235 C 
HETATM   20  C   UNL     1      -4.538   4.182 -30.953  1.00  0.00     0.063 C 
HETATM   21  C   UNL     1      -1.736   6.325 -34.183  1.00  0.00     0.030 C 
ENDBRANCH  10  12
ENDBRANCH   1  10
BRANCH   1  22
HETATM   22  C   UNL     1      -6.644   1.410 -32.435  1.00  0.00    -0.018 A 
HETATM   23  C   UNL     1      -7.094   2.352 -33.373  1.00  0.00     0.029 A 
HETATM   24  C   UNL     1      -8.442   2.673 -33.414  1.00  0.00     0.116 A 
HETATM   25  N   UNL     1      -9.362   2.135 -32.590  1.00  0.00    -0.273 NA
HETATM   26  C   UNL     1      -8.926   1.225 -31.698  1.00  0.00     0.116 A 
HETATM   27  C   UNL     1      -7.598   0.844 -31.577  1.00  0.00     0.029 A 
ENDBRANCH   1  22
TORSDOF 4
ENDMDL
MODEL 8
REMARK VINA RESULT:      -7.7      3.300      6.943
REMARK  4 active torsions:
REMARK  status: ('A' for Active; 'I' for Inactive)
REMARK    1  A    between atoms: C_5  and  C_6 
REMARK    2  A    between atoms: C_6  and  N_7 
REMARK    3  A    between atoms: C_6  and  C_18 
REMARK    4  A    between atoms: N_7  and  C_8 
ROOT
HETATM    1  C   UNL     1      -5.167   2.713 -32.167  1.00  0.00     0.290 C 
ENDROOT
BRANCH   1   2
HETATM    2  C   UNL     1      -6.148   3.379 -31.199  1.00  0.00     0.021 A 
HETATM    3  C   UNL     1      -7.486   2.955 -31.084  1.00  0.00     0.055 A 
HETATM    4  C   UNL     1      -8.347   3.537 -30.154  1.00  0.00     0.117 A 
HETATM    5  C   UNL     1      -7.908   4.522 -29.283  1.00  0.00     0.045 A 
HETATM    6  F   UNL     1      -9.620   3.126 -30.095  1.00  0.00    -0.206 F 
HETATM    7  C   UNL     1      -6.577   4.920 -29.335  1.00  0.00     0.046 A 
HETATM    8  C   UNL     1      -5.713   4.344 -30.271  1.00  0.00     0.125 A 
HETATM    9  F   UNL     1      -4.436   4.751 -30.251  1.00  0.00    -0.205 F 
ENDBRANCH   1   2
BRANCH   1  10
HETATM   10  N   UNL     1      -4.321   1.640 -31.594  1.00  0.00     0.101 NA
HETATM   11  H   UNL     1      -4.308   1.791 -30.584  1.00  0.00     0.317 HD
BRANCH  10  12
HETATM   12  C   UNL     1      -4.625   0.237 -31.883  1.00  0.00     0.225 C 
HETATM   13  C   UNL     1      -5.471   0.031 -33.156  1.00  0.00     0.069 C 
HETATM   14  C   UNL     1      -5.618  -1.450 -33.444  1.00  0.00     0.190 C 
HETATM   15  N   UNL     1      -4.248  -2.038 -33.636  1.00  0.00    -0.067 N 
HETATM   16  C   UNL     1      -6.290  -1.835 -34.745  1.00  0.00     0.035 C 
HETATM   17  H   UNL     1      -3.762  -1.478 -34.353  1.00  0.00     0.280 HD
HETATM   18  C   UNL     1      -3.425  -1.970 -32.393  1.00  0.00     0.237 C 
HETATM   19  C   UNL     1      -4.472  -3.397 -34.246  1.00  0.00     0.235 C 
HETATM   20  C   UNL     1      -3.268  -0.500 -32.012  1.00  0.00     0.063 C 
HETATM   21  C   UNL     1      -5.822  -3.275 -34.954  1.00  0.00     0.030 C 
ENDBRANCH  10  12
ENDBRANCH   1  10
BRANCH   1  22
HETATM   22  C   UNL     1      -4.351   3.609 -33.101  1.00  0.00    -0.018 A 
HETATM   23  C   UNL     1      -2.965   3.722 -32.907  1.00  0.00     0.029 A 
HETATM   24  C   UNL     1      -2.238   4.578 -33.719  1.00  0.00     0.116 A 
HETATM   25  N   UNL     1      -2.788   5.328 -34.694  1.00  0.00    -0.273 NA
HETATM   26  C   UNL     1      -4.116   5.208 -34.882  1.00  0.00     0.116 A 
HETATM   27  C   UNL     1      -4.928   4.383 -34.117  1.00  0.00     0.029 A 
ENDBRANCH   1  22
TORSDOF 4
ENDMDL
MODEL 9
REMARK VINA RESULT:      -7.6      1.598      2.861
REMARK  4 active torsions:
REMARK  status: ('A' for Active; 'I' for Inactive)
REMARK    1  A    between atoms: C_5  and  C_6 
REMARK    2  A    between atoms: C_6  and  N_7 
REMARK    3  A    between atoms: C_6  and  C_18 
REMARK    4  A    between atoms: N_7  and  C_8 
ROOT
HETATM    1  C   UNL     1      -6.404   0.967 -33.479  1.00  0.00     0.290 C 
ENDROOT
BRANCH   1   2
HETATM    2  C   UNL     1      -5.699  -0.372 -33.706  1.00  0.00     0.021 A 
HETATM    3  C   UNL     1      -4.687  -0.836 -32.844  1.00  0.00     0.055 A 
HETATM    4  C   UNL     1      -4.098  -2.087 -33.034  1.00  0.00     0.117 A 
HETATM    5  C   UNL     1      -4.515  -2.932 -34.051  1.00  0.00     0.045 A 
HETATM    6  F   UNL     1      -3.118  -2.480 -32.210  1.00  0.00    -0.206 F 
HETATM    7  C   UNL     1      -5.551  -2.523 -34.882  1.00  0.00     0.046 A 
HETATM    8  C   UNL     1      -6.139  -1.268 -34.698  1.00  0.00     0.125 A 
HETATM    9  F   UNL     1      -7.151  -0.946 -35.515  1.00  0.00    -0.205 F 
ENDBRANCH   1   2
BRANCH   1  10
HETATM   10  N   UNL     1      -5.838   1.825 -32.412  1.00  0.00     0.101 NA
HETATM   11  H   UNL     1      -5.295   1.208 -31.806  1.00  0.00     0.317 HD
BRANCH  10  12
HETATM   12  C   UNL     1      -5.041   3.001 -32.766  1.00  0.00     0.225 C 
HETATM   13  C   UNL     1      -5.518   4.303 -32.092  1.00  0.00     0.069 C 
HETATM   14  C   UNL     1      -4.556   5.432 -32.410  1.00  0.00     0.190 C 
HETATM   15  N   UNL     1      -3.193   5.057 -31.900  1.00  0.00    -0.067 N 
HETATM   16  C   UNL     1      -4.784   6.751 -31.703  1.00  0.00     0.035 C 
HETATM   17  H   UNL     1      -3.288   4.803 -30.904  1.00  0.00     0.280 HD
HETATM   18  C   UNL     1      -2.634   3.867 -32.605  1.00  0.00     0.237 C 
HETATM   19  C   UNL     1      -2.384   6.326 -31.933  1.00  0.00     0.235 C 
HETATM   20  C   UNL     1      -3.577   2.690 -32.366  1.00  0.00     0.063 C 
HETATM   21  C   UNL     1      -3.426   7.441 -31.829  1.00  0.00     0.030 C 
ENDBRANCH  10  12
ENDBRANCH   1  10
BRANCH   1  22
HETATM   22  C   UNL     1      -7.934   0.981 -33.432  1.00  0.00    -0.018 A 
HETATM   23  C   UNL     1      -8.604   0.062 -32.610  1.00  0.00     0.029 A 
HETATM   24  C   UNL     1      -9.991   0.041 -32.613  1.00  0.00     0.116 A 
HETATM   25  N   UNL     1     -10.747   0.854 -33.375  1.00  0.00    -0.273 NA
HETATM   26  C   UNL     1     -10.099   1.739 -34.155  1.00  0.00     0.116 A 
HETATM   27  C   UNL     1      -8.716   1.833 -34.225  1.00  0.00     0.029 A 
ENDBRANCH   1  22
TORSDOF 4
ENDMDL
MODEL 10
REMARK VINA RESULT:      -7.5      2.505      4.729
REMARK  4 active torsions:
REMARK  status: ('A' for Active; 'I' for Inactive)
REMARK    1  A    between atoms: C_5  and  C_6 
REMARK    2  A    between atoms: C_6  and  N_7 
REMARK    3  A    between atoms: C_6  and  C_18 
REMARK    4  A    between atoms: N_7  and  C_8 
ROOT
HETATM    1  C   UNL     1      -5.485   1.196 -32.274  1.00  0.00     0.290 C 
ENDROOT
BRANCH   1   2
HETATM    2  C   UNL     1      -7.003   1.260 -32.453  1.00  0.00     0.021 A 
HETATM    3  C   UNL     1      -7.598   1.940 -33.533  1.00  0.00     0.055 A 
HETATM    4  C   UNL     1      -8.982   1.937 -33.711  1.00  0.00     0.117 A 
HETATM    5  C   UNL     1      -9.816   1.231 -32.857  1.00  0.00     0.045 A 
HETATM    6  F   UNL     1      -9.511   2.620 -34.734  1.00  0.00    -0.206 F 
HETATM    7  C   UNL     1      -9.252   0.504 -31.816  1.00  0.00     0.046 A 
HETATM    8  C   UNL     1      -7.866   0.511 -31.630  1.00  0.00     0.125 A 
HETATM    9  F   UNL     1      -7.383  -0.233 -30.626  1.00  0.00    -0.205 F 
ENDBRANCH   1   2
BRANCH   1  10
HETATM   10  N   UNL     1      -4.715   2.312 -32.871  1.00  0.00     0.101 NA
HETATM   11  H   UNL     1      -5.381   2.862 -33.416  1.00  0.00     0.317 HD
BRANCH  10  12
HETATM   12  C   UNL     1      -3.926   3.197 -32.012  1.00  0.00     0.225 C 
HETATM   13  C   UNL     1      -2.634   3.719 -32.673  1.00  0.00     0.069 C 
HETATM   14  C   UNL     1      -1.958   4.727 -31.764  1.00  0.00     0.190 C 
HETATM   15  N   UNL     1      -2.910   5.866 -31.523  1.00  0.00    -0.067 N 
HETATM   16  C   UNL     1      -0.756   5.459 -32.320  1.00  0.00     0.035 C 
HETATM   17  H   UNL     1      -3.222   6.215 -32.442  1.00  0.00     0.280 HD
HETATM   18  C   UNL     1      -4.130   5.435 -30.779  1.00  0.00     0.237 C 
HETATM   19  C   UNL     1      -2.080   6.966 -30.916  1.00  0.00     0.235 C 
HETATM   20  C   UNL     1      -4.846   4.380 -31.618  1.00  0.00     0.063 C 
HETATM   21  C   UNL     1      -0.662   6.688 -31.417  1.00  0.00     0.030 C 
ENDBRANCH  10  12
ENDBRANCH   1  10
BRANCH   1  22
HETATM   22  C   UNL     1      -4.782  -0.141 -32.520  1.00  0.00    -0.018 A 
HETATM   23  C   UNL     1      -5.148  -0.915 -33.633  1.00  0.00     0.029 A 
HETATM   24  C   UNL     1      -4.549  -2.151 -33.821  1.00  0.00     0.116 A 
HETATM   25  N   UNL     1      -3.629  -2.669 -32.984  1.00  0.00    -0.273 NA
HETATM   26  C   UNL     1      -3.276  -1.918 -31.924  1.00  0.00     0.116 A 
HETATM   27  C   UNL     1      -3.822  -0.673 -31.648  1.00  0.00     0.029 A 
ENDBRANCH   1  22
TORSDOF 4
ENDMDL
