MODEL 1
REMARK VINA RESULT:      -8.1      0.000      0.000
REMARK  2 active torsions:
REMARK  status: ('A' for Active; 'I' for Inactive)
REMARK    1  A    between atoms: C_5  and  C_7 
REMARK    2  A    between atoms: C_5  and  O_6 
ROOT
HETATM    1  C   UNL     1      -4.040  -3.920 -33.923  1.00  0.00     0.050 C 
HETATM    2  C   UNL     1      -4.710  -2.583 -33.978  1.00  0.00    -0.035 A 
HETATM    3  C   UNL     1      -4.302  -1.510 -33.201  1.00  0.00     0.051 A 
HETATM    4  C   UNL     1      -4.950  -0.269 -33.228  1.00  0.00     0.018 A 
HETATM    5  C   UNL     1      -4.241   0.693 -32.300  1.00  0.00     0.198 A 
HETATM    6  C   UNL     1      -3.129  -0.228 -31.685  1.00  0.00     0.266 A 
HETATM    7  O   UNL     1      -2.265   0.055 -30.869  1.00  0.00    -0.269 OA
HETATM    8  N   UNL     1      -3.247  -1.476 -32.299  1.00  0.00    -0.323 N 
HETATM    9  C   UNL     1      -6.045  -0.065 -34.053  1.00  0.00     0.013 A 
HETATM   10  C   UNL     1      -6.491  -1.134 -34.830  1.00  0.00     0.001 A 
HETATM   11  C   UNL     1      -5.835  -2.378 -34.791  1.00  0.00     0.009 A 
HETATM   12  H   UNL     1      -2.627  -2.241 -32.078  1.00  0.00     0.169 HD
ENDROOT
BRANCH   5  13
HETATM   13  C   UNL     1      -5.224   1.185 -31.269  1.00  0.00     0.018 A 
HETATM   14  C   UNL     1      -6.101   2.332 -31.311  1.00  0.00     0.002 A 
HETATM   15  C   UNL     1      -6.833   2.348 -30.121  1.00  0.00     0.043 A 
HETATM   16  C   UNL     1      -6.345   3.365 -32.243  1.00  0.00     0.014 A 
HETATM   17  C   UNL     1      -7.782   3.333 -29.818  1.00  0.00     0.030 A 
HETATM   18  N   UNL     1      -6.440   1.257 -29.386  1.00  0.00    -0.365 N 
HETATM   19  C   UNL     1      -7.993   4.344 -30.757  1.00  0.00     0.002 A 
HETATM   20  C   UNL     1      -7.286   4.362 -31.954  1.00  0.00     0.001 A 
HETATM   21  H   UNL     1      -6.817   1.007 -28.482  1.00  0.00     0.165 HD
HETATM   22  C   UNL     1      -5.478   0.560 -30.056  1.00  0.00     0.100 A 
ENDBRANCH   5  13
BRANCH   5  23
HETATM   23  O   UNL     1      -3.682   1.752 -33.077  1.00  0.00    -0.371 OA
HETATM   24  H   UNL     1      -3.015   2.181 -32.518  1.00  0.00     0.212 HD
ENDBRANCH   5  23
TORSDOF 2
ENDMDL
MODEL 2
REMARK VINA RESULT:      -8.0      2.383      3.369
REMARK  2 active torsions:
REMARK  status: ('A' for Active; 'I' for Inactive)
REMARK    1  A    between atoms: C_5  and  C_7 
REMARK    2  A    between atoms: C_5  and  O_6 
ROOT
HETATM    1  C   UNL     1      -6.591  -2.186 -34.940  1.00  0.00     0.050 C 
HETATM    2  C   UNL     1      -5.805  -1.626 -33.796  1.00  0.00    -0.035 A 
HETATM    3  C   UNL     1      -6.345  -0.731 -32.886  1.00  0.00     0.051 A 
HETATM    4  C   UNL     1      -5.600  -0.181 -31.835  1.00  0.00     0.018 A 
HETATM    5  C   UNL     1      -6.484   0.723 -31.006  1.00  0.00     0.198 A 
HETATM    6  C   UNL     1      -7.835   0.657 -31.803  1.00  0.00     0.266 A 
HETATM    7  O   UNL     1      -8.896   1.209 -31.558  1.00  0.00    -0.269 OA
HETATM    8  N   UNL     1      -7.641  -0.235 -32.859  1.00  0.00    -0.323 N 
HETATM    9  C   UNL     1      -4.267  -0.523 -31.663  1.00  0.00     0.013 A 
HETATM   10  C   UNL     1      -3.692  -1.407 -32.577  1.00  0.00     0.001 A 
HETATM   11  C   UNL     1      -4.449  -1.948 -33.632  1.00  0.00     0.009 A 
HETATM   12  H   UNL     1      -8.378  -0.457 -33.512  1.00  0.00     0.169 HD
ENDROOT
BRANCH   5  13
HETATM   13  C   UNL     1      -5.886   2.107 -30.993  1.00  0.00     0.018 A 
HETATM   14  C   UNL     1      -5.693   3.033 -32.084  1.00  0.00     0.002 A 
HETATM   15  C   UNL     1      -5.119   4.193 -31.558  1.00  0.00     0.043 A 
HETATM   16  C   UNL     1      -5.947   3.002 -33.474  1.00  0.00     0.014 A 
HETATM   17  C   UNL     1      -4.787   5.307 -32.340  1.00  0.00     0.030 A 
HETATM   18  N   UNL     1      -4.978   4.000 -30.206  1.00  0.00    -0.365 N 
HETATM   19  C   UNL     1      -5.043   5.240 -33.710  1.00  0.00     0.002 A 
HETATM   20  C   UNL     1      -5.615   4.104 -34.272  1.00  0.00     0.001 A 
HETATM   21  H   UNL     1      -4.602   4.685 -29.564  1.00  0.00     0.165 HD
HETATM   22  C   UNL     1      -5.426   2.760 -29.858  1.00  0.00     0.100 A 
ENDBRANCH   5  13
BRANCH   5  23
HETATM   23  O   UNL     1      -6.612   0.167 -29.698  1.00  0.00    -0.371 OA
HETATM   24  H   UNL     1      -5.723  -0.114 -29.430  1.00  0.00     0.212 HD
ENDBRANCH   5  23
TORSDOF 2
ENDMDL
MODEL 3
REMARK VINA RESULT:      -8.0     15.092     16.233
REMARK  2 active torsions:
REMARK  status: ('A' for Active; 'I' for Inactive)
REMARK    1  A    between atoms: C_5  and  C_7 
REMARK    2  A    between atoms: C_5  and  O_6 
ROOT
HETATM    1  C   UNL     1      -0.982 -15.115 -40.984  1.00  0.00     0.050 C 
HETATM    2  C   UNL     1      -2.371 -14.681 -41.332  1.00  0.00    -0.035 A 
HETATM    3  C   UNL     1      -3.130 -13.869 -40.504  1.00  0.00     0.051 A 
HETATM    4  C   UNL     1      -4.443 -13.490 -40.814  1.00  0.00     0.018 A 
HETATM    5  C   UNL     1      -4.976 -12.578 -39.733  1.00  0.00     0.198 A 
HETATM    6  C   UNL     1      -3.778 -12.562 -38.718  1.00  0.00     0.266 A 
HETATM    7  O   UNL     1      -3.682 -11.965 -37.657  1.00  0.00    -0.269 OA
HETATM    8  N   UNL     1      -2.756 -13.326 -39.283  1.00  0.00    -0.323 N 
HETATM    9  C   UNL     1      -5.040 -13.921 -41.989  1.00  0.00     0.013 A 
HETATM   10  C   UNL     1      -4.306 -14.758 -42.831  1.00  0.00     0.001 A 
HETATM   11  C   UNL     1      -2.991 -15.136 -42.506  1.00  0.00     0.009 A 
HETATM   12  H   UNL     1      -1.868 -13.455 -38.821  1.00  0.00     0.169 HD
ENDROOT
BRANCH   5  13
HETATM   13  C   UNL     1      -6.222 -13.194 -39.149  1.00  0.00     0.018 A 
HETATM   14  C   UNL     1      -7.608 -12.927 -39.456  1.00  0.00     0.002 A 
HETATM   15  C   UNL     1      -8.387 -13.772 -38.663  1.00  0.00     0.043 A 
HETATM   16  C   UNL     1      -8.282 -12.045 -40.330  1.00  0.00     0.014 A 
HETATM   17  C   UNL     1      -9.788 -13.779 -38.695  1.00  0.00     0.030 A 
HETATM   18  N   UNL     1      -7.526 -14.536 -37.913  1.00  0.00    -0.365 N 
HETATM   19  C   UNL     1     -10.423 -12.889 -39.563  1.00  0.00     0.002 A 
HETATM   20  C   UNL     1      -9.682 -12.033 -40.371  1.00  0.00     0.001 A 
HETATM   21  H   UNL     1      -7.814 -15.249 -37.258  1.00  0.00     0.165 HD
HETATM   22  C   UNL     1      -6.234 -14.197 -38.190  1.00  0.00     0.100 A 
ENDBRANCH   5  13
BRANCH   5  23
HETATM   23  O   UNL     1      -5.212 -11.288 -40.295  1.00  0.00    -0.371 OA
HETATM   24  H   UNL     1      -4.699 -10.658 -39.765  1.00  0.00     0.212 HD
ENDBRANCH   5  23
TORSDOF 2
ENDMDL
MODEL 4
REMARK VINA RESULT:      -7.9      1.864      5.684
REMARK  2 active torsions:
REMARK  status: ('A' for Active; 'I' for Inactive)
REMARK    1  A    between atoms: C_5  and  C_7 
REMARK    2  A    between atoms: C_5  and  O_6 
ROOT
HETATM    1  C   UNL     1      -4.950   5.382 -30.487  1.00  0.00     0.050 C 
HETATM    2  C   UNL     1      -5.411   4.376 -31.495  1.00  0.00    -0.035 A 
HETATM    3  C   UNL     1      -5.647   3.049 -31.172  1.00  0.00     0.051 A 
HETATM    4  C   UNL     1      -6.047   2.100 -32.122  1.00  0.00     0.018 A 
HETATM    5  C   UNL     1      -6.257   0.763 -31.446  1.00  0.00     0.198 A 
HETATM    6  C   UNL     1      -5.837   1.090 -29.969  1.00  0.00     0.266 A 
HETATM    7  O   UNL     1      -5.824   0.352 -28.996  1.00  0.00    -0.269 OA
HETATM    8  N   UNL     1      -5.526   2.450 -29.925  1.00  0.00    -0.323 N 
HETATM    9  C   UNL     1      -6.226   2.464 -33.448  1.00  0.00     0.013 A 
HETATM   10  C   UNL     1      -5.975   3.790 -33.805  1.00  0.00     0.001 A 
HETATM   11  C   UNL     1      -5.569   4.732 -32.843  1.00  0.00     0.009 A 
HETATM   12  H   UNL     1      -5.239   2.905 -29.072  1.00  0.00     0.169 HD
ENDROOT
BRANCH   5  13
HETATM   13  C   UNL     1      -5.353  -0.255 -32.094  1.00  0.00     0.018 A 
HETATM   14  C   UNL     1      -5.650  -1.218 -33.129  1.00  0.00     0.002 A 
HETATM   15  C   UNL     1      -4.473  -1.919 -33.404  1.00  0.00     0.043 A 
HETATM   16  C   UNL     1      -6.806  -1.570 -33.860  1.00  0.00     0.014 A 
HETATM   17  C   UNL     1      -4.395  -2.941 -34.359  1.00  0.00     0.030 A 
HETATM   18  N   UNL     1      -3.493  -1.404 -32.592  1.00  0.00    -0.365 N 
HETATM   19  C   UNL     1      -5.558  -3.270 -35.057  1.00  0.00     0.002 A 
HETATM   20  C   UNL     1      -6.749  -2.595 -34.813  1.00  0.00     0.001 A 
HETATM   21  H   UNL     1      -2.530  -1.711 -32.588  1.00  0.00     0.165 HD
HETATM   22  C   UNL     1      -4.006  -0.416 -31.803  1.00  0.00     0.100 A 
ENDBRANCH   5  13
BRANCH   5  23
HETATM   23  O   UNL     1      -7.636   0.413 -31.540  1.00  0.00    -0.371 OA
HETATM   24  H   UNL     1      -7.681  -0.387 -32.087  1.00  0.00     0.212 HD
ENDBRANCH   5  23
TORSDOF 2
ENDMDL
MODEL 5
REMARK VINA RESULT:      -7.8      3.116      5.634
REMARK  2 active torsions:
REMARK  status: ('A' for Active; 'I' for Inactive)
REMARK    1  A    between atoms: C_5  and  C_7 
REMARK    2  A    between atoms: C_5  and  O_6 
ROOT
HETATM    1  C   UNL     1      -0.983   5.114 -32.345  1.00  0.00     0.050 C 
HETATM    2  C   UNL     1      -2.283   4.987 -33.075  1.00  0.00    -0.035 A 
HETATM    3  C   UNL     1      -3.410   4.417 -32.504  1.00  0.00     0.051 A 
HETATM    4  C   UNL     1      -4.616   4.267 -33.199  1.00  0.00     0.018 A 
HETATM    5  C   UNL     1      -5.653   3.650 -32.287  1.00  0.00     0.198 A 
HETATM    6  C   UNL     1      -4.816   3.402 -30.983  1.00  0.00     0.266 A 
HETATM    7  O   UNL     1      -5.178   2.921 -29.921  1.00  0.00    -0.269 OA
HETATM    8  N   UNL     1      -3.537   3.908 -31.218  1.00  0.00    -0.323 N 
HETATM    9  C   UNL     1      -4.729   4.697 -34.512  1.00  0.00     0.013 A 
HETATM   10  C   UNL     1      -3.604   5.255 -35.121  1.00  0.00     0.001 A 
HETATM   11  C   UNL     1      -2.396   5.395 -34.413  1.00  0.00     0.009 A 
HETATM   12  H   UNL     1      -2.813   3.878 -30.515  1.00  0.00     0.169 HD
ENDROOT
BRANCH   5  13
HETATM   13  C   UNL     1      -6.146   2.369 -32.912  1.00  0.00     0.018 A 
HETATM   14  C   UNL     1      -5.462   1.108 -33.080  1.00  0.00     0.002 A 
HETATM   15  C   UNL     1      -6.352   0.223 -33.695  1.00  0.00     0.043 A 
HETATM   16  C   UNL     1      -4.170   0.627 -32.771  1.00  0.00     0.014 A 
HETATM   17  C   UNL     1      -6.018  -1.098 -34.018  1.00  0.00     0.030 A 
HETATM   18  N   UNL     1      -7.532   0.899 -33.885  1.00  0.00    -0.365 N 
HETATM   19  C   UNL     1      -4.731  -1.539 -33.708  1.00  0.00     0.002 A 
HETATM   20  C   UNL     1      -3.817  -0.690 -33.093  1.00  0.00     0.001 A 
HETATM   21  H   UNL     1      -8.363   0.498 -34.298  1.00  0.00     0.165 HD
HETATM   22  C   UNL     1      -7.420   2.179 -33.428  1.00  0.00     0.100 A 
ENDBRANCH   5  13
BRANCH   5  23
HETATM   23  O   UNL     1      -6.699   4.596 -32.075  1.00  0.00    -0.371 OA
HETATM   24  H   UNL     1      -6.305   5.474 -32.195  1.00  0.00     0.212 HD
ENDBRANCH   5  23
TORSDOF 2
ENDMDL
MODEL 6
REMARK VINA RESULT:      -7.7      2.787      3.866
REMARK  2 active torsions:
REMARK  status: ('A' for Active; 'I' for Inactive)
REMARK    1  A    between atoms: C_5  and  C_7 
REMARK    2  A    between atoms: C_5  and  O_6 
ROOT
HETATM    1  C   UNL     1      -6.861  -3.377 -34.892  1.00  0.00     0.050 C 
HETATM    2  C   UNL     1      -5.961  -2.414 -34.182  1.00  0.00    -0.035 A 
HETATM    3  C   UNL     1      -6.431  -1.258 -33.579  1.00  0.00     0.051 A 
HETATM    4  C   UNL     1      -5.585  -0.340 -32.944  1.00  0.00     0.018 A 
HETATM    5  C   UNL     1      -6.407   0.786 -32.358  1.00  0.00     0.198 A 
HETATM    6  C   UNL     1      -7.853   0.397 -32.831  1.00  0.00     0.266 A 
HETATM    7  O   UNL     1      -8.908   0.975 -32.621  1.00  0.00    -0.269 OA
HETATM    8  N   UNL     1      -7.746  -0.818 -33.509  1.00  0.00    -0.323 N 
HETATM    9  C   UNL     1      -4.217  -0.562 -32.894  1.00  0.00     0.013 A 
HETATM   10  C   UNL     1      -3.714  -1.708 -33.512  1.00  0.00     0.001 A 
HETATM   11  C   UNL     1      -4.574  -2.620 -34.151  1.00  0.00     0.009 A 
HETATM   12  H   UNL     1      -8.552  -1.285 -33.899  1.00  0.00     0.169 HD
ENDROOT
BRANCH   5  13
HETATM   13  C   UNL     1      -5.935   2.090 -32.950  1.00  0.00     0.018 A 
HETATM   14  C   UNL     1      -4.776   2.884 -32.614  1.00  0.00     0.002 A 
HETATM   15  C   UNL     1      -4.763   3.993 -33.463  1.00  0.00     0.043 A 
HETATM   16  C   UNL     1      -3.733   2.772 -31.668  1.00  0.00     0.014 A 
HETATM   17  C   UNL     1      -3.776   4.986 -33.412  1.00  0.00     0.030 A 
HETATM   18  N   UNL     1      -5.852   3.884 -34.293  1.00  0.00    -0.365 N 
HETATM   19  C   UNL     1      -2.764   4.850 -32.460  1.00  0.00     0.002 A 
HETATM   20  C   UNL     1      -2.740   3.758 -31.599  1.00  0.00     0.001 A 
HETATM   21  H   UNL     1      -6.085   4.543 -35.023  1.00  0.00     0.165 HD
HETATM   22  C   UNL     1      -6.561   2.758 -33.994  1.00  0.00     0.100 A 
ENDBRANCH   5  13
BRANCH   5  23
HETATM   23  O   UNL     1      -6.286   0.752 -30.937  1.00  0.00    -0.371 OA
HETATM   24  H   UNL     1      -5.504   0.213 -30.740  1.00  0.00     0.212 HD
ENDBRANCH   5  23
TORSDOF 2
ENDMDL
MODEL 7
REMARK VINA RESULT:      -7.6      3.525      4.101
REMARK  2 active torsions:
REMARK  status: ('A' for Active; 'I' for Inactive)
REMARK    1  A    between atoms: C_5  and  C_7 
REMARK    2  A    between atoms: C_5  and  O_6 
ROOT
HETATM    1  C   UNL     1      -3.730  -1.653 -31.905  1.00  0.00     0.050 C 
HETATM    2  C   UNL     1      -4.762  -1.375 -32.954  1.00  0.00    -0.035 A 
HETATM    3  C   UNL     1      -5.614  -0.283 -32.894  1.00  0.00     0.051 A 
HETATM    4  C   UNL     1      -6.601  -0.041 -33.858  1.00  0.00     0.018 A 
HETATM    5  C   UNL     1      -7.330   1.242 -33.526  1.00  0.00     0.198 A 
HETATM    6  C   UNL     1      -6.645   1.650 -32.174  1.00  0.00     0.266 A 
HETATM    7  O   UNL     1      -6.860   2.625 -31.471  1.00  0.00    -0.269 OA
HETATM    8  N   UNL     1      -5.651   0.705 -31.919  1.00  0.00    -0.323 N 
HETATM    9  C   UNL     1      -6.762  -0.904 -34.931  1.00  0.00     0.013 A 
HETATM   10  C   UNL     1      -5.932  -2.023 -35.006  1.00  0.00     0.001 A 
HETATM   11  C   UNL     1      -4.947  -2.258 -34.029  1.00  0.00     0.009 A 
HETATM   12  H   UNL     1      -5.057   0.760 -31.105  1.00  0.00     0.169 HD
ENDROOT
BRANCH   5  13
HETATM   13  C   UNL     1      -8.797   0.938 -33.365  1.00  0.00     0.018 A 
HETATM   14  C   UNL     1      -9.944   1.653 -33.875  1.00  0.00     0.002 A 
HETATM   15  C   UNL     1     -11.088   0.960 -33.473  1.00  0.00     0.043 A 
HETATM   16  C   UNL     1     -10.126   2.828 -34.640  1.00  0.00     0.014 A 
HETATM   17  C   UNL     1     -12.388   1.377 -33.788  1.00  0.00     0.030 A 
HETATM   18  N   UNL     1     -10.670  -0.138 -32.762  1.00  0.00    -0.365 N 
HETATM   19  C   UNL     1     -12.532   2.546 -34.537  1.00  0.00     0.002 A 
HETATM   20  C   UNL     1     -11.418   3.264 -34.959  1.00  0.00     0.001 A 
HETATM   21  H   UNL     1     -11.287  -0.831 -32.361  1.00  0.00     0.165 HD
HETATM   22  C   UNL     1      -9.309  -0.159 -32.686  1.00  0.00     0.100 A 
ENDBRANCH   5  13
BRANCH   5  23
HETATM   23  O   UNL     1      -7.075   2.194 -34.557  1.00  0.00    -0.371 OA
HETATM   24  H   UNL     1      -6.413   2.810 -34.207  1.00  0.00     0.212 HD
ENDBRANCH   5  23
TORSDOF 2
ENDMDL
MODEL 8
REMARK VINA RESULT:      -7.5      2.986      4.162
REMARK  2 active torsions:
REMARK  status: ('A' for Active; 'I' for Inactive)
REMARK    1  A    between atoms: C_5  and  C_7 
REMARK    2  A    between atoms: C_5  and  O_6 
ROOT
HETATM    1  C   UNL     1      -6.171  -1.890 -34.961  1.00  0.00     0.050 C 
HETATM    2  C   UNL     1      -6.235  -1.197 -33.636  1.00  0.00    -0.035 A 
HETATM    3  C   UNL     1      -7.295  -0.383 -33.268  1.00  0.00     0.051 A 
HETATM    4  C   UNL     1      -7.339   0.292 -32.042  1.00  0.00     0.018 A 
HETATM    5  C   UNL     1      -8.638   1.059 -31.932  1.00  0.00     0.198 A 
HETATM    6  C   UNL     1      -9.291   0.770 -33.329  1.00  0.00     0.266 A 
HETATM    7  O   UNL     1     -10.366   1.152 -33.766  1.00  0.00    -0.269 OA
HETATM    8  N   UNL     1      -8.434  -0.096 -34.009  1.00  0.00    -0.323 N 
HETATM    9  C   UNL     1      -6.301   0.165 -31.132  1.00  0.00     0.013 A 
HETATM   10  C   UNL     1      -5.211  -0.631 -31.485  1.00  0.00     0.001 A 
HETATM   11  C   UNL     1      -5.176  -1.300 -32.721  1.00  0.00     0.009 A 
HETATM   12  H   UNL     1      -8.645  -0.441 -34.934  1.00  0.00     0.169 HD
ENDROOT
BRANCH   5  13
HETATM   13  C   UNL     1      -8.323   2.519 -31.730  1.00  0.00     0.018 A 
HETATM   14  C   UNL     1      -7.444   3.381 -32.486  1.00  0.00     0.002 A 
HETATM   15  C   UNL     1      -7.510   4.656 -31.917  1.00  0.00     0.043 A 
HETATM   16  C   UNL     1      -6.592   3.205 -33.599  1.00  0.00     0.014 A 
HETATM   17  C   UNL     1      -6.775   5.748 -32.396  1.00  0.00     0.030 A 
HETATM   18  N   UNL     1      -8.397   4.590 -30.871  1.00  0.00    -0.365 N 
HETATM   19  C   UNL     1      -5.936   5.538 -33.492  1.00  0.00     0.002 A 
HETATM   20  C   UNL     1      -5.844   4.285 -34.087  1.00  0.00     0.001 A 
HETATM   21  H   UNL     1      -8.654   5.373 -30.286  1.00  0.00     0.165 HD
HETATM   22  C   UNL     1      -8.884   3.322 -30.746  1.00  0.00     0.100 A 
ENDBRANCH   5  13
BRANCH   5  23
HETATM   23  O   UNL     1      -9.407   0.509 -30.863  1.00  0.00    -0.371 OA
HETATM   24  H   UNL     1     -10.002  -0.146 -31.260  1.00  0.00     0.212 HD
ENDBRANCH   5  23
TORSDOF 2
ENDMDL
MODEL 9
REMARK VINA RESULT:      -7.5     14.988     16.836
REMARK  2 active torsions:
REMARK  status: ('A' for Active; 'I' for Inactive)
REMARK    1  A    between atoms: C_5  and  C_7 
REMARK    2  A    between atoms: C_5  and  O_6 
ROOT
HETATM    1  C   UNL     1     -11.120 -15.871 -41.378  1.00  0.00     0.050 C 
HETATM    2  C   UNL     1     -10.457 -14.607 -40.927  1.00  0.00    -0.035 A 
HETATM    3  C   UNL     1      -9.081 -14.449 -40.909  1.00  0.00     0.051 A 
HETATM    4  C   UNL     1      -8.459 -13.279 -40.455  1.00  0.00     0.018 A 
HETATM    5  C   UNL     1      -6.960 -13.412 -40.600  1.00  0.00     0.198 A 
HETATM    6  C   UNL     1      -6.827 -14.879 -41.140  1.00  0.00     0.266 A 
HETATM    7  O   UNL     1      -5.815 -15.497 -41.436  1.00  0.00    -0.269 OA
HETATM    8  N   UNL     1      -8.121 -15.373 -41.302  1.00  0.00    -0.323 N 
HETATM    9  C   UNL     1      -9.218 -12.211 -40.000  1.00  0.00     0.013 A 
HETATM   10  C   UNL     1     -10.607 -12.350 -39.986  1.00  0.00     0.001 A 
HETATM   11  C   UNL     1     -11.219 -13.533 -40.440  1.00  0.00     0.009 A 
HETATM   12  H   UNL     1      -8.299 -16.302 -41.655  1.00  0.00     0.169 HD
ENDROOT
BRANCH   5  13
HETATM   13  C   UNL     1      -6.324 -13.232 -39.245  1.00  0.00     0.018 A 
HETATM   14  C   UNL     1      -6.522 -13.990 -38.031  1.00  0.00     0.002 A 
HETATM   15  C   UNL     1      -5.686 -13.447 -37.052  1.00  0.00     0.043 A 
HETATM   16  C   UNL     1      -7.333 -15.086 -37.663  1.00  0.00     0.014 A 
HETATM   17  C   UNL     1      -5.623 -13.934 -35.741  1.00  0.00     0.030 A 
HETATM   18  N   UNL     1      -4.994 -12.413 -37.635  1.00  0.00    -0.365 N 
HETATM   19  C   UNL     1      -6.444 -15.013 -35.407  1.00  0.00     0.002 A 
HETATM   20  C   UNL     1      -7.289 -15.583 -36.354  1.00  0.00     0.001 A 
HETATM   21  H   UNL     1      -4.303 -11.847 -37.164  1.00  0.00     0.165 HD
HETATM   22  C   UNL     1      -5.369 -12.272 -38.939  1.00  0.00     0.100 A 
ENDBRANCH   5  13
BRANCH   5  23
HETATM   23  O   UNL     1      -6.504 -12.452 -41.553  1.00  0.00    -0.371 OA
HETATM   24  H   UNL     1      -6.313 -11.641 -41.057  1.00  0.00     0.212 HD
ENDBRANCH   5  23
TORSDOF 2
ENDMDL
MODEL 10
REMARK VINA RESULT:      -7.4      2.741      4.154
REMARK  2 active torsions:
REMARK  status: ('A' for Active; 'I' for Inactive)
REMARK    1  A    between atoms: C_5  and  C_7 
REMARK    2  A    between atoms: C_5  and  O_6 
ROOT
HETATM    1  C   UNL     1     -10.158   0.481 -33.135  1.00  0.00     0.050 C 
HETATM    2  C   UNL     1      -8.699   0.167 -33.016  1.00  0.00    -0.035 A 
HETATM    3  C   UNL     1      -7.870   0.803 -32.105  1.00  0.00     0.051 A 
HETATM    4  C   UNL     1      -6.498   0.535 -32.017  1.00  0.00     0.018 A 
HETATM    5  C   UNL     1      -5.890   1.361 -30.905  1.00  0.00     0.198 A 
HETATM    6  C   UNL     1      -7.127   2.200 -30.427  1.00  0.00     0.266 A 
HETATM    7  O   UNL     1      -7.189   3.033 -29.536  1.00  0.00    -0.269 OA
HETATM    8  N   UNL     1      -8.223   1.775 -31.179  1.00  0.00    -0.323 N 
HETATM    9  C   UNL     1      -5.909  -0.401 -32.854  1.00  0.00     0.013 A 
HETATM   10  C   UNL     1      -6.717  -1.042 -33.795  1.00  0.00     0.001 A 
HETATM   11  C   UNL     1      -8.092  -0.759 -33.878  1.00  0.00     0.009 A 
HETATM   12  H   UNL     1      -9.146   2.161 -31.044  1.00  0.00     0.169 HD
ENDROOT
BRANCH   5  13
HETATM   13  C   UNL     1      -4.795   2.220 -31.484  1.00  0.00     0.018 A 
HETATM   14  C   UNL     1      -4.857   3.188 -32.555  1.00  0.00     0.002 A 
HETATM   15  C   UNL     1      -3.580   3.736 -32.703  1.00  0.00     0.043 A 
HETATM   16  C   UNL     1      -5.873   3.653 -33.419  1.00  0.00     0.014 A 
HETATM   17  C   UNL     1      -3.271   4.710 -33.661  1.00  0.00     0.030 A 
HETATM   18  N   UNL     1      -2.772   3.148 -31.762  1.00  0.00    -0.365 N 
HETATM   19  C   UNL     1      -4.296   5.142 -34.505  1.00  0.00     0.002 A 
HETATM   20  C   UNL     1      -5.581   4.622 -34.387  1.00  0.00     0.001 A 
HETATM   21  H   UNL     1      -1.795   3.366 -31.627  1.00  0.00     0.165 HD
HETATM   22  C   UNL     1      -3.482   2.240 -31.033  1.00  0.00     0.100 A 
ENDBRANCH   5  13
BRANCH   5  23
HETATM   23  O   UNL     1      -5.419   0.482 -29.885  1.00  0.00    -0.371 OA
HETATM   24  H   UNL     1      -5.184   1.040 -29.127  1.00  0.00     0.212 HD
ENDBRANCH   5  23
TORSDOF 2
ENDMDL
