MODEL 1
REMARK VINA RESULT:      -8.2      0.000      0.000
REMARK  8 active torsions:
REMARK  status: ('A' for Active; 'I' for Inactive)
REMARK    1  A    between atoms: C_2  and  C_3 
REMARK    2  A    between atoms: C_3  and  O_4 
REMARK    3  A    between atoms: O_4  and  C_5 
REMARK    4  A    between atoms: C_6  and  C_7 
REMARK    5  A    between atoms: C_11  and  C_12 
REMARK       I    between atoms: C_12  and  N_13 
REMARK    6  A    between atoms: N_13  and  N_14 
REMARK    7  A    between atoms: C_15  and  C_16 
REMARK    8  A    between atoms: C_19  and  N_20 
ROOT
HETATM    1  C   UNL     1      -7.127  -1.158 -34.453  1.00  0.00     0.092 A 
HETATM    2  N   UNL     1      -7.048  -0.251 -35.443  1.00  0.00    -0.174 NA
HETATM    3  N   UNL     1      -7.979   0.664 -35.142  1.00  0.00    -0.272 N 
HETATM    4  H   UNL     1      -8.112   1.457 -35.762  1.00  0.00     0.189 HD
HETATM    5  C   UNL     1      -8.656   0.417 -33.981  1.00  0.00     0.121 A 
HETATM    6  C   UNL     1      -8.117  -0.761 -33.509  1.00  0.00     0.071 A 
ENDROOT
BRANCH   5   7
HETATM    7  C   UNL     1      -9.678   1.321 -33.514  1.00  0.00     0.289 C 
HETATM    8  N   UNL     1     -10.743   1.497 -34.385  1.00  0.00    -0.242 N 
HETATM    9  H   UNL     1     -10.764   1.015 -35.274  1.00  0.00     0.192 HD
HETATM   10  O   UNL     1      -9.581   1.871 -32.419  1.00  0.00    -0.264 OA
BRANCH   8  11
HETATM   11  N   UNL     1     -11.788   2.298 -34.029  1.00  0.00    -0.184 NA
HETATM   12  C   UNL     1     -12.760   1.715 -33.403  1.00  0.00     0.150 C 
BRANCH  12  13
HETATM   13  C   UNL     1     -13.941   2.470 -32.940  1.00  0.00    -0.017 A 
HETATM   14  C   UNL     1     -13.867   3.841 -32.700  1.00  0.00     0.015 A 
HETATM   15  C   UNL     1     -14.993   4.532 -32.234  1.00  0.00     0.030 A 
HETATM   16  C   UNL     1     -16.219   3.885 -32.011  1.00  0.00     0.029 A 
HETATM   17  C   UNL     1     -16.257   2.500 -32.258  1.00  0.00     0.030 A 
HETATM   18  C   UNL     1     -15.139   1.794 -32.719  1.00  0.00     0.015 A 
BRANCH  16  19
HETATM   19  N   UNL     1     -17.357   4.545 -31.520  1.00  0.00    -0.390 N 
HETATM   20  C   UNL     1     -18.636   3.978 -31.958  1.00  0.00     0.149 C 
HETATM   21  C   UNL     1     -17.337   6.006 -31.454  1.00  0.00     0.149 C 
ENDBRANCH  16  19
ENDBRANCH  12  13
ENDBRANCH   8  11
ENDBRANCH   5   7
BRANCH   1  22
HETATM   22  C   UNL     1      -6.240  -2.334 -34.429  1.00  0.00     0.028 A 
HETATM   23  C   UNL     1      -4.886  -2.273 -34.035  1.00  0.00     0.081 A 
HETATM   24  C   UNL     1      -4.112  -3.446 -34.051  1.00  0.00     0.038 A 
HETATM   25  C   UNL     1      -4.668  -4.667 -34.438  1.00  0.00     0.003 A 
HETATM   26  C   UNL     1      -6.002  -4.735 -34.817  1.00  0.00     0.001 A 
HETATM   27  C   UNL     1      -6.780  -3.579 -34.811  1.00  0.00     0.017 A 
BRANCH  23  28
HETATM   28  O   UNL     1      -4.392  -1.051 -33.648  1.00  0.00    -0.350 OA
BRANCH  28  29
HETATM   29  C   UNL     1      -4.011  -0.885 -32.282  1.00  0.00     0.175 C 
BRANCH  29  30
HETATM   30  C   UNL     1      -5.037   0.033 -31.623  1.00  0.00     0.022 C 
HETATM   31  C   UNL     1      -5.207   1.332 -32.391  1.00  0.00     0.007 C 
ENDBRANCH  29  30
ENDBRANCH  28  29
ENDBRANCH  23  28
ENDBRANCH   1  22
TORSDOF 8
ENDMDL
MODEL 2
REMARK VINA RESULT:      -7.6      7.832     12.319
REMARK  8 active torsions:
REMARK  status: ('A' for Active; 'I' for Inactive)
REMARK    1  A    between atoms: C_2  and  C_3 
REMARK    2  A    between atoms: C_3  and  O_4 
REMARK    3  A    between atoms: O_4  and  C_5 
REMARK    4  A    between atoms: C_6  and  C_7 
REMARK    5  A    between atoms: C_11  and  C_12 
REMARK       I    between atoms: C_12  and  N_13 
REMARK    6  A    between atoms: N_13  and  N_14 
REMARK    7  A    between atoms: C_15  and  C_16 
REMARK    8  A    between atoms: C_19  and  N_20 
ROOT
HETATM    1  C   UNL     1      -0.552   7.526 -29.126  1.00  0.00     0.092 A 
HETATM    2  N   UNL     1      -1.378   8.213 -29.935  1.00  0.00    -0.174 NA
HETATM    3  N   UNL     1      -1.725   7.339 -30.888  1.00  0.00    -0.272 N 
HETATM    4  H   UNL     1      -2.351   7.639 -31.631  1.00  0.00     0.189 HD
HETATM    5  C   UNL     1      -1.187   6.093 -30.735  1.00  0.00     0.121 A 
HETATM    6  C   UNL     1      -0.422   6.185 -29.590  1.00  0.00     0.071 A 
ENDROOT
BRANCH   5   7
HETATM    7  C   UNL     1      -1.482   5.038 -31.672  1.00  0.00     0.289 C 
HETATM    8  N   UNL     1      -2.358   4.070 -31.202  1.00  0.00    -0.242 N 
HETATM    9  H   UNL     1      -2.737   4.131 -30.266  1.00  0.00     0.192 HD
HETATM   10  O   UNL     1      -0.982   5.032 -32.794  1.00  0.00    -0.264 OA
BRANCH   8  11
HETATM   11  N   UNL     1      -2.742   3.046 -32.018  1.00  0.00    -0.184 NA
HETATM   12  C   UNL     1      -3.651   2.255 -31.544  1.00  0.00     0.150 C 
BRANCH  12  13
HETATM   13  C   UNL     1      -4.172   1.121 -32.333  1.00  0.00    -0.017 A 
HETATM   14  C   UNL     1      -5.471   1.136 -32.839  1.00  0.00     0.015 A 
HETATM   15  C   UNL     1      -5.954   0.038 -33.562  1.00  0.00     0.030 A 
HETATM   16  C   UNL     1      -5.158  -1.092 -33.811  1.00  0.00     0.029 A 
HETATM   17  C   UNL     1      -3.854  -1.077 -33.281  1.00  0.00     0.030 A 
HETATM   18  C   UNL     1      -3.358   0.013 -32.553  1.00  0.00     0.015 A 
BRANCH  16  19
HETATM   19  N   UNL     1      -5.621  -2.220 -34.508  1.00  0.00    -0.390 N 
HETATM   20  C   UNL     1      -7.047  -2.512 -34.330  1.00  0.00     0.149 C 
HETATM   21  C   UNL     1      -4.764  -3.405 -34.557  1.00  0.00     0.149 C 
ENDBRANCH  16  19
ENDBRANCH  12  13
ENDBRANCH   8  11
ENDBRANCH   5   7
BRANCH   1  22
HETATM   22  C   UNL     1       0.044   8.157 -27.936  1.00  0.00     0.028 A 
HETATM   23  C   UNL     1      -0.716   8.586 -26.826  1.00  0.00     0.081 A 
HETATM   24  C   UNL     1      -0.062   9.186 -25.737  1.00  0.00     0.038 A 
HETATM   25  C   UNL     1       1.325   9.351 -25.734  1.00  0.00     0.003 A 
HETATM   26  C   UNL     1       2.079   8.922 -26.819  1.00  0.00     0.001 A 
HETATM   27  C   UNL     1       1.443   8.330 -27.908  1.00  0.00     0.017 A 
BRANCH  23  28
HETATM   28  O   UNL     1      -2.073   8.386 -26.871  1.00  0.00    -0.350 OA
BRANCH  28  29
HETATM   29  C   UNL     1      -2.637   7.416 -25.989  1.00  0.00     0.175 C 
BRANCH  29  30
HETATM   30  C   UNL     1      -3.623   8.139 -25.074  1.00  0.00     0.022 C 
HETATM   31  C   UNL     1      -2.981   8.542 -23.759  1.00  0.00     0.007 C 
ENDBRANCH  29  30
ENDBRANCH  28  29
ENDBRANCH  23  28
ENDBRANCH   1  22
TORSDOF 8
ENDMDL
MODEL 3
REMARK VINA RESULT:      -7.6      1.337      3.062
REMARK  8 active torsions:
REMARK  status: ('A' for Active; 'I' for Inactive)
REMARK    1  A    between atoms: C_2  and  C_3 
REMARK    2  A    between atoms: C_3  and  O_4 
REMARK    3  A    between atoms: O_4  and  C_5 
REMARK    4  A    between atoms: C_6  and  C_7 
REMARK    5  A    between atoms: C_11  and  C_12 
REMARK       I    between atoms: C_12  and  N_13 
REMARK    6  A    between atoms: N_13  and  N_14 
REMARK    7  A    between atoms: C_15  and  C_16 
REMARK    8  A    between atoms: C_19  and  N_20 
ROOT
HETATM    1  C   UNL     1      -7.373   0.297 -33.638  1.00  0.00     0.092 A 
HETATM    2  N   UNL     1      -7.703   0.965 -34.758  1.00  0.00    -0.174 NA
HETATM    3  N   UNL     1      -9.035   1.093 -34.698  1.00  0.00    -0.272 N 
HETATM    4  H   UNL     1      -9.520   1.568 -35.454  1.00  0.00     0.189 HD
HETATM    5  C   UNL     1      -9.603   0.561 -33.576  1.00  0.00     0.121 A 
HETATM    6  C   UNL     1      -8.542   0.040 -32.864  1.00  0.00     0.071 A 
ENDROOT
BRANCH   5   7
HETATM    7  C   UNL     1     -11.027   0.635 -33.360  1.00  0.00     0.289 C 
HETATM    8  N   UNL     1     -11.541   1.922 -33.306  1.00  0.00    -0.242 N 
HETATM    9  H   UNL     1     -10.932   2.723 -33.411  1.00  0.00     0.192 HD
HETATM   10  O   UNL     1     -11.701  -0.386 -33.242  1.00  0.00    -0.264 OA
BRANCH   8  11
HETATM   11  N   UNL     1     -12.883   2.112 -33.148  1.00  0.00    -0.184 NA
HETATM   12  C   UNL     1     -13.230   3.163 -32.476  1.00  0.00     0.150 C 
BRANCH  12  13
HETATM   13  C   UNL     1     -14.650   3.498 -32.251  1.00  0.00    -0.017 A 
HETATM   14  C   UNL     1     -15.625   2.503 -32.209  1.00  0.00     0.015 A 
HETATM   15  C   UNL     1     -16.970   2.846 -32.022  1.00  0.00     0.030 A 
HETATM   16  C   UNL     1     -17.378   4.180 -31.859  1.00  0.00     0.029 A 
HETATM   17  C   UNL     1     -16.369   5.161 -31.913  1.00  0.00     0.030 A 
HETATM   18  C   UNL     1     -15.020   4.833 -32.103  1.00  0.00     0.015 A 
BRANCH  16  19
HETATM   19  N   UNL     1     -18.720   4.559 -31.698  1.00  0.00    -0.390 N 
HETATM   20  C   UNL     1     -19.237   5.456 -32.736  1.00  0.00     0.149 C 
HETATM   21  C   UNL     1     -19.197   4.861 -30.348  1.00  0.00     0.149 C 
ENDBRANCH  16  19
ENDBRANCH  12  13
ENDBRANCH   8  11
ENDBRANCH   5   7
BRANCH   1  22
HETATM   22  C   UNL     1      -5.970  -0.033 -33.336  1.00  0.00     0.028 A 
HETATM   23  C   UNL     1      -5.406  -1.305 -33.577  1.00  0.00     0.081 A 
HETATM   24  C   UNL     1      -4.059  -1.532 -33.250  1.00  0.00     0.038 A 
HETATM   25  C   UNL     1      -3.272  -0.516 -32.702  1.00  0.00     0.003 A 
HETATM   26  C   UNL     1      -3.818   0.739 -32.472  1.00  0.00     0.001 A 
HETATM   27  C   UNL     1      -5.155   0.977 -32.787  1.00  0.00     0.017 A 
BRANCH  23  28
HETATM   28  O   UNL     1      -6.217  -2.264 -34.132  1.00  0.00    -0.350 OA
BRANCH  28  29
HETATM   29  C   UNL     1      -5.698  -3.036 -35.215  1.00  0.00     0.175 C 
BRANCH  29  30
HETATM   30  C   UNL     1      -5.895  -4.509 -34.869  1.00  0.00     0.022 C 
HETATM   31  C   UNL     1      -4.687  -5.088 -34.155  1.00  0.00     0.007 C 
ENDBRANCH  29  30
ENDBRANCH  28  29
ENDBRANCH  23  28
ENDBRANCH   1  22
TORSDOF 8
ENDMDL
MODEL 4
REMARK VINA RESULT:      -7.5      3.564      4.154
REMARK  8 active torsions:
REMARK  status: ('A' for Active; 'I' for Inactive)
REMARK    1  A    between atoms: C_2  and  C_3 
REMARK    2  A    between atoms: C_3  and  O_4 
REMARK    3  A    between atoms: O_4  and  C_5 
REMARK    4  A    between atoms: C_6  and  C_7 
REMARK    5  A    between atoms: C_11  and  C_12 
REMARK       I    between atoms: C_12  and  N_13 
REMARK    6  A    between atoms: N_13  and  N_14 
REMARK    7  A    between atoms: C_15  and  C_16 
REMARK    8  A    between atoms: C_19  and  N_20 
ROOT
HETATM    1  C   UNL     1      -6.572  -0.765 -33.709  1.00  0.00     0.092 A 
HETATM    2  N   UNL     1      -6.944  -0.482 -32.448  1.00  0.00    -0.174 NA
HETATM    3  N   UNL     1      -7.373   0.786 -32.497  1.00  0.00    -0.272 N 
HETATM    4  H   UNL     1      -7.704   1.229 -31.644  1.00  0.00     0.189 HD
HETATM    5  C   UNL     1      -7.327   1.350 -33.740  1.00  0.00     0.121 A 
HETATM    6  C   UNL     1      -6.813   0.359 -34.551  1.00  0.00     0.071 A 
ENDROOT
BRANCH   5   7
HETATM    7  C   UNL     1      -7.772   2.704 -33.956  1.00  0.00     0.289 C 
HETATM    8  N   UNL     1      -9.144   2.849 -34.108  1.00  0.00    -0.242 N 
HETATM    9  H   UNL     1      -9.752   2.043 -34.068  1.00  0.00     0.192 HD
HETATM   10  O   UNL     1      -6.970   3.634 -33.992  1.00  0.00    -0.264 OA
BRANCH   8  11
HETATM   11  N   UNL     1      -9.682   4.091 -34.276  1.00  0.00    -0.184 NA
HETATM   12  C   UNL     1     -10.627   4.184 -35.156  1.00  0.00     0.150 C 
BRANCH  12  13
HETATM   13  C   UNL     1     -11.310   5.466 -35.419  1.00  0.00    -0.017 A 
HETATM   14  C   UNL     1     -12.696   5.527 -35.553  1.00  0.00     0.015 A 
HETATM   15  C   UNL     1     -13.321   6.749 -35.830  1.00  0.00     0.030 A 
HETATM   16  C   UNL     1     -12.589   7.941 -35.965  1.00  0.00     0.029 A 
HETATM   17  C   UNL     1     -11.191   7.843 -35.829  1.00  0.00     0.030 A 
HETATM   18  C   UNL     1     -10.552   6.627 -35.557  1.00  0.00     0.015 A 
BRANCH  16  19
HETATM   19  N   UNL     1     -13.183   9.176 -36.269  1.00  0.00    -0.390 N 
HETATM   20  C   UNL     1     -14.280   9.112 -37.240  1.00  0.00     0.149 C 
HETATM   21  C   UNL     1     -12.314  10.344 -36.419  1.00  0.00     0.149 C 
ENDBRANCH  16  19
ENDBRANCH  12  13
ENDBRANCH   8  11
ENDBRANCH   5   7
BRANCH   1  22
HETATM   22  C   UNL     1      -6.042  -2.093 -34.064  1.00  0.00     0.028 A 
HETATM   23  C   UNL     1      -4.683  -2.446 -33.921  1.00  0.00     0.081 A 
HETATM   24  C   UNL     1      -4.266  -3.735 -34.294  1.00  0.00     0.038 A 
HETATM   25  C   UNL     1      -5.177  -4.670 -34.791  1.00  0.00     0.003 A 
HETATM   26  C   UNL     1      -6.517  -4.331 -34.925  1.00  0.00     0.001 A 
HETATM   27  C   UNL     1      -6.944  -3.054 -34.564  1.00  0.00     0.017 A 
BRANCH  23  28
HETATM   28  O   UNL     1      -3.831  -1.498 -33.412  1.00  0.00    -0.350 OA
BRANCH  28  29
HETATM   29  C   UNL     1      -3.307  -1.702 -32.100  1.00  0.00     0.175 C 
BRANCH  29  30
HETATM   30  C   UNL     1      -3.504  -0.408 -31.315  1.00  0.00     0.022 C 
HETATM   31  C   UNL     1      -3.542   0.805 -32.226  1.00  0.00     0.007 C 
ENDBRANCH  29  30
ENDBRANCH  28  29
ENDBRANCH  23  28
ENDBRANCH   1  22
TORSDOF 8
ENDMDL
MODEL 5
REMARK VINA RESULT:      -7.4      2.134      2.472
REMARK  8 active torsions:
REMARK  status: ('A' for Active; 'I' for Inactive)
REMARK    1  A    between atoms: C_2  and  C_3 
REMARK    2  A    between atoms: C_3  and  O_4 
REMARK    3  A    between atoms: O_4  and  C_5 
REMARK    4  A    between atoms: C_6  and  C_7 
REMARK    5  A    between atoms: C_11  and  C_12 
REMARK       I    between atoms: C_12  and  N_13 
REMARK    6  A    between atoms: N_13  and  N_14 
REMARK    7  A    between atoms: C_15  and  C_16 
REMARK    8  A    between atoms: C_19  and  N_20 
ROOT
HETATM    1  C   UNL     1      -7.102  -1.057 -34.540  1.00  0.00     0.092 A 
HETATM    2  N   UNL     1      -6.901  -0.130 -35.494  1.00  0.00    -0.174 NA
HETATM    3  N   UNL     1      -7.835   0.803 -35.264  1.00  0.00    -0.272 N 
HETATM    4  H   UNL     1      -7.885   1.614 -35.874  1.00  0.00     0.189 HD
HETATM    5  C   UNL     1      -8.632   0.548 -34.184  1.00  0.00     0.121 A 
HETATM    6  C   UNL     1      -8.172  -0.655 -33.690  1.00  0.00     0.071 A 
ENDROOT
BRANCH   5   7
HETATM    7  C   UNL     1      -9.673   1.468 -33.798  1.00  0.00     0.289 C 
HETATM    8  N   UNL     1     -10.534   1.836 -34.822  1.00  0.00    -0.242 N 
HETATM    9  H   UNL     1     -10.407   1.469 -35.756  1.00  0.00     0.192 HD
HETATM   10  O   UNL     1      -9.763   1.871 -32.641  1.00  0.00    -0.264 OA
BRANCH   8  11
HETATM   11  N   UNL     1     -11.583   2.669 -34.563  1.00  0.00    -0.184 NA
HETATM   12  C   UNL     1     -11.451   3.890 -34.976  1.00  0.00     0.150 C 
BRANCH  12  13
HETATM   13  C   UNL     1     -12.521   4.888 -34.781  1.00  0.00    -0.017 A 
HETATM   14  C   UNL     1     -12.952   5.693 -35.833  1.00  0.00     0.015 A 
HETATM   15  C   UNL     1     -13.950   6.653 -35.619  1.00  0.00     0.030 A 
HETATM   16  C   UNL     1     -14.551   6.827 -34.361  1.00  0.00     0.029 A 
HETATM   17  C   UNL     1     -14.088   6.001 -33.319  1.00  0.00     0.030 A 
HETATM   18  C   UNL     1     -13.088   5.040 -33.518  1.00  0.00     0.015 A 
BRANCH  16  19
HETATM   19  N   UNL     1     -15.533   7.797 -34.107  1.00  0.00    -0.390 N 
HETATM   20  C   UNL     1     -16.659   7.796 -35.045  1.00  0.00     0.149 C 
HETATM   21  C   UNL     1     -15.097   9.131 -33.691  1.00  0.00     0.149 C 
ENDBRANCH  16  19
ENDBRANCH  12  13
ENDBRANCH   8  11
ENDBRANCH   5   7
BRANCH   1  22
HETATM   22  C   UNL     1      -6.252  -2.256 -34.456  1.00  0.00     0.028 A 
HETATM   23  C   UNL     1      -4.933  -2.235 -33.953  1.00  0.00     0.081 A 
HETATM   24  C   UNL     1      -4.192  -3.429 -33.918  1.00  0.00     0.038 A 
HETATM   25  C   UNL     1      -4.746  -4.631 -34.364  1.00  0.00     0.003 A 
HETATM   26  C   UNL     1      -6.046  -4.660 -34.851  1.00  0.00     0.001 A 
HETATM   27  C   UNL     1      -6.790  -3.483 -34.895  1.00  0.00     0.017 A 
BRANCH  23  28
HETATM   28  O   UNL     1      -4.441  -1.032 -33.512  1.00  0.00    -0.350 OA
BRANCH  28  29
HETATM   29  C   UNL     1      -4.205  -0.876 -32.114  1.00  0.00     0.175 C 
BRANCH  29  30
HETATM   30  C   UNL     1      -5.010   0.331 -31.639  1.00  0.00     0.022 C 
HETATM   31  C   UNL     1      -6.192  -0.081 -30.782  1.00  0.00     0.007 C 
ENDBRANCH  29  30
ENDBRANCH  28  29
ENDBRANCH  23  28
ENDBRANCH   1  22
TORSDOF 8
ENDMDL
MODEL 6
REMARK VINA RESULT:      -7.3      7.325     12.086
REMARK  8 active torsions:
REMARK  status: ('A' for Active; 'I' for Inactive)
REMARK    1  A    between atoms: C_2  and  C_3 
REMARK    2  A    between atoms: C_3  and  O_4 
REMARK    3  A    between atoms: O_4  and  C_5 
REMARK    4  A    between atoms: C_6  and  C_7 
REMARK    5  A    between atoms: C_11  and  C_12 
REMARK       I    between atoms: C_12  and  N_13 
REMARK    6  A    between atoms: N_13  and  N_14 
REMARK    7  A    between atoms: C_15  and  C_16 
REMARK    8  A    between atoms: C_19  and  N_20 
ROOT
HETATM    1  C   UNL     1      -2.122   8.256 -31.183  1.00  0.00     0.092 A 
HETATM    2  N   UNL     1      -1.837   8.551 -32.464  1.00  0.00    -0.174 NA
HETATM    3  N   UNL     1      -1.842   7.370 -33.095  1.00  0.00    -0.272 N 
HETATM    4  H   UNL     1      -1.641   7.340 -34.090  1.00  0.00     0.189 HD
HETATM    5  C   UNL     1      -2.142   6.304 -32.294  1.00  0.00     0.121 A 
HETATM    6  C   UNL     1      -2.335   6.854 -31.043  1.00  0.00     0.071 A 
ENDROOT
BRANCH   5   7
HETATM    7  C   UNL     1      -2.203   4.968 -32.832  1.00  0.00     0.289 C 
HETATM    8  N   UNL     1      -2.703   4.012 -31.959  1.00  0.00    -0.242 N 
HETATM    9  H   UNL     1      -2.988   4.269 -31.024  1.00  0.00     0.192 HD
HETATM   10  O   UNL     1      -1.837   4.732 -33.980  1.00  0.00    -0.264 OA
BRANCH   8  11
HETATM   11  N   UNL     1      -2.845   2.720 -32.375  1.00  0.00    -0.184 NA
HETATM   12  C   UNL     1      -4.028   2.210 -32.242  1.00  0.00     0.150 C 
BRANCH  12  13
HETATM   13  C   UNL     1      -4.324   0.830 -32.673  1.00  0.00    -0.017 A 
HETATM   14  C   UNL     1      -3.363  -0.174 -32.576  1.00  0.00     0.015 A 
HETATM   15  C   UNL     1      -3.656  -1.471 -33.017  1.00  0.00     0.030 A 
HETATM   16  C   UNL     1      -4.912  -1.805 -33.551  1.00  0.00     0.029 A 
HETATM   17  C   UNL     1      -5.857  -0.766 -33.641  1.00  0.00     0.030 A 
HETATM   18  C   UNL     1      -5.577   0.537 -33.207  1.00  0.00     0.015 A 
BRANCH  16  19
HETATM   19  N   UNL     1      -5.227  -3.087 -34.027  1.00  0.00    -0.390 N 
HETATM   20  C   UNL     1      -4.093  -4.013 -34.107  1.00  0.00     0.149 C 
HETATM   21  C   UNL     1      -6.177  -3.201 -35.135  1.00  0.00     0.149 C 
ENDBRANCH  16  19
ENDBRANCH  12  13
ENDBRANCH   8  11
ENDBRANCH   5   7
BRANCH   1  22
HETATM   22  C   UNL     1      -2.215   9.314 -30.163  1.00  0.00     0.028 A 
HETATM   23  C   UNL     1      -1.516   9.270 -28.937  1.00  0.00     0.081 A 
HETATM   24  C   UNL     1      -1.672  10.322 -28.019  1.00  0.00     0.038 A 
HETATM   25  C   UNL     1      -2.498  11.412 -28.308  1.00  0.00     0.003 A 
HETATM   26  C   UNL     1      -3.180  11.465 -29.517  1.00  0.00     0.001 A 
HETATM   27  C   UNL     1      -3.038  10.426 -30.435  1.00  0.00     0.017 A 
BRANCH  23  28
HETATM   28  O   UNL     1      -0.706   8.186 -28.708  1.00  0.00    -0.350 OA
BRANCH  28  29
HETATM   29  C   UNL     1      -0.496   7.780 -27.356  1.00  0.00     0.175 C 
BRANCH  29  30
HETATM   30  C   UNL     1       0.995   7.504 -27.180  1.00  0.00     0.022 C 
HETATM   31  C   UNL     1       1.825   8.764 -27.339  1.00  0.00     0.007 C 
ENDBRANCH  29  30
ENDBRANCH  28  29
ENDBRANCH  23  28
ENDBRANCH   1  22
TORSDOF 8
ENDMDL
MODEL 7
REMARK VINA RESULT:      -7.2      4.165      4.907
REMARK  8 active torsions:
REMARK  status: ('A' for Active; 'I' for Inactive)
REMARK    1  A    between atoms: C_2  and  C_3 
REMARK    2  A    between atoms: C_3  and  O_4 
REMARK    3  A    between atoms: O_4  and  C_5 
REMARK    4  A    between atoms: C_6  and  C_7 
REMARK    5  A    between atoms: C_11  and  C_12 
REMARK       I    between atoms: C_12  and  N_13 
REMARK    6  A    between atoms: N_13  and  N_14 
REMARK    7  A    between atoms: C_15  and  C_16 
REMARK    8  A    between atoms: C_19  and  N_20 
ROOT
HETATM    1  C   UNL     1      -6.744  -1.050 -34.306  1.00  0.00     0.092 A 
HETATM    2  N   UNL     1      -6.802  -0.259 -35.393  1.00  0.00    -0.174 NA
HETATM    3  N   UNL     1      -7.473   0.827 -34.988  1.00  0.00    -0.272 N 
HETATM    4  H   UNL     1      -7.649   1.576 -35.653  1.00  0.00     0.189 HD
HETATM    5  C   UNL     1      -7.843   0.805 -33.673  1.00  0.00     0.121 A 
HETATM    6  C   UNL     1      -7.376  -0.406 -33.203  1.00  0.00     0.071 A 
ENDROOT
BRANCH   5   7
HETATM    7  C   UNL     1      -8.558   1.910 -33.086  1.00  0.00     0.289 C 
HETATM    8  N   UNL     1      -8.389   2.051 -31.716  1.00  0.00    -0.242 N 
HETATM    9  H   UNL     1      -7.805   1.405 -31.202  1.00  0.00     0.192 HD
HETATM   10  O   UNL     1      -9.249   2.654 -33.778  1.00  0.00    -0.264 OA
BRANCH   8  11
HETATM   11  N   UNL     1      -8.984   3.088 -31.060  1.00  0.00    -0.184 NA
HETATM   12  C   UNL     1      -8.197   4.043 -30.678  1.00  0.00     0.150 C 
BRANCH  12  13
HETATM   13  C   UNL     1      -8.716   5.235 -29.978  1.00  0.00    -0.017 A 
HETATM   14  C   UNL     1      -9.836   5.914 -30.453  1.00  0.00     0.015 A 
HETATM   15  C   UNL     1     -10.295   7.059 -29.789  1.00  0.00     0.030 A 
HETATM   16  C   UNL     1      -9.664   7.548 -28.634  1.00  0.00     0.029 A 
HETATM   17  C   UNL     1      -8.532   6.841 -28.184  1.00  0.00     0.030 A 
HETATM   18  C   UNL     1      -8.059   5.697 -28.840  1.00  0.00     0.015 A 
BRANCH  16  19
HETATM   19  N   UNL     1     -10.082   8.707 -27.962  1.00  0.00    -0.390 N 
HETATM   20  C   UNL     1      -9.388   8.973 -26.698  1.00  0.00     0.149 C 
HETATM   21  C   UNL     1     -11.512   9.017 -27.940  1.00  0.00     0.149 C 
ENDBRANCH  16  19
ENDBRANCH  12  13
ENDBRANCH   8  11
ENDBRANCH   5   7
BRANCH   1  22
HETATM   22  C   UNL     1      -6.066  -2.356 -34.353  1.00  0.00     0.028 A 
HETATM   23  C   UNL     1      -4.716  -2.540 -33.982  1.00  0.00     0.081 A 
HETATM   24  C   UNL     1      -4.150  -3.823 -34.067  1.00  0.00     0.038 A 
HETATM   25  C   UNL     1      -4.905  -4.915 -34.500  1.00  0.00     0.003 A 
HETATM   26  C   UNL     1      -6.236  -4.742 -34.856  1.00  0.00     0.001 A 
HETATM   27  C   UNL     1      -6.810  -3.474 -34.782  1.00  0.00     0.017 A 
BRANCH  23  28
HETATM   28  O   UNL     1      -4.022  -1.438 -33.548  1.00  0.00    -0.350 OA
BRANCH  28  29
HETATM   29  C   UNL     1      -3.476  -1.466 -32.229  1.00  0.00     0.175 C 
BRANCH  29  30
HETATM   30  C   UNL     1      -4.062  -0.286 -31.460  1.00  0.00     0.022 C 
HETATM   31  C   UNL     1      -3.852   1.026 -32.193  1.00  0.00     0.007 C 
ENDBRANCH  29  30
ENDBRANCH  28  29
ENDBRANCH  23  28
ENDBRANCH   1  22
TORSDOF 8
ENDMDL
MODEL 8
REMARK VINA RESULT:      -7.2      2.315      2.774
REMARK  8 active torsions:
REMARK  status: ('A' for Active; 'I' for Inactive)
REMARK    1  A    between atoms: C_2  and  C_3 
REMARK    2  A    between atoms: C_3  and  O_4 
REMARK    3  A    between atoms: O_4  and  C_5 
REMARK    4  A    between atoms: C_6  and  C_7 
REMARK    5  A    between atoms: C_11  and  C_12 
REMARK       I    between atoms: C_12  and  N_13 
REMARK    6  A    between atoms: N_13  and  N_14 
REMARK    7  A    between atoms: C_15  and  C_16 
REMARK    8  A    between atoms: C_19  and  N_20 
ROOT
HETATM    1  C   UNL     1      -7.236  -1.073 -34.391  1.00  0.00     0.092 A 
HETATM    2  N   UNL     1      -7.163  -0.128 -35.346  1.00  0.00    -0.174 NA
HETATM    3  N   UNL     1      -8.160   0.720 -35.062  1.00  0.00    -0.272 N 
HETATM    4  H   UNL     1      -8.310   1.526 -35.662  1.00  0.00     0.189 HD
HETATM    5  C   UNL     1      -8.878   0.394 -33.946  1.00  0.00     0.121 A 
HETATM    6  C   UNL     1      -8.293  -0.768 -33.485  1.00  0.00     0.071 A 
ENDROOT
BRANCH   5   7
HETATM    7  C   UNL     1      -9.973   1.220 -33.501  1.00  0.00     0.289 C 
HETATM    8  N   UNL     1      -9.617   2.510 -33.133  1.00  0.00    -0.242 N 
HETATM    9  H   UNL     1      -8.653   2.810 -33.181  1.00  0.00     0.192 HD
HETATM   10  O   UNL     1     -11.121   0.783 -33.470  1.00  0.00    -0.264 OA
BRANCH   8  11
HETATM   11  N   UNL     1     -10.578   3.393 -32.736  1.00  0.00    -0.184 NA
HETATM   12  C   UNL     1     -10.543   3.746 -31.491  1.00  0.00     0.150 C 
BRANCH  12  13
HETATM   13  C   UNL     1     -11.511   4.713 -30.937  1.00  0.00    -0.017 A 
HETATM   14  C   UNL     1     -11.145   6.036 -30.695  1.00  0.00     0.015 A 
HETATM   15  C   UNL     1     -12.072   6.930 -30.144  1.00  0.00     0.030 A 
HETATM   16  C   UNL     1     -13.385   6.538 -29.834  1.00  0.00     0.029 A 
HETATM   17  C   UNL     1     -13.719   5.193 -30.086  1.00  0.00     0.030 A 
HETATM   18  C   UNL     1     -12.802   4.287 -30.633  1.00  0.00     0.015 A 
BRANCH  16  19
HETATM   19  N   UNL     1     -14.328   7.401 -29.256  1.00  0.00    -0.390 N 
HETATM   20  C   UNL     1     -13.802   8.273 -28.201  1.00  0.00     0.149 C 
HETATM   21  C   UNL     1     -15.673   6.885 -28.996  1.00  0.00     0.149 C 
ENDBRANCH  16  19
ENDBRANCH  12  13
ENDBRANCH   8  11
ENDBRANCH   5   7
BRANCH   1  22
HETATM   22  C   UNL     1      -6.283  -2.195 -34.360  1.00  0.00     0.028 A 
HETATM   23  C   UNL     1      -4.968  -2.080 -33.859  1.00  0.00     0.081 A 
HETATM   24  C   UNL     1      -4.125  -3.204 -33.876  1.00  0.00     0.038 A 
HETATM   25  C   UNL     1      -4.575  -4.431 -34.370  1.00  0.00     0.003 A 
HETATM   26  C   UNL     1      -5.870  -4.553 -34.854  1.00  0.00     0.001 A 
HETATM   27  C   UNL     1      -6.715  -3.445 -34.847  1.00  0.00     0.017 A 
BRANCH  23  28
HETATM   28  O   UNL     1      -4.581  -0.856 -33.371  1.00  0.00    -0.350 OA
BRANCH  28  29
HETATM   29  C   UNL     1      -3.629  -0.831 -32.307  1.00  0.00     0.175 C 
BRANCH  29  30
HETATM   30  C   UNL     1      -4.126   0.168 -31.265  1.00  0.00     0.022 C 
HETATM   31  C   UNL     1      -5.623   0.057 -31.045  1.00  0.00     0.007 C 
ENDBRANCH  29  30
ENDBRANCH  28  29
ENDBRANCH  23  28
ENDBRANCH   1  22
TORSDOF 8
ENDMDL
MODEL 9
REMARK VINA RESULT:      -7.0      1.695      2.468
REMARK  8 active torsions:
REMARK  status: ('A' for Active; 'I' for Inactive)
REMARK    1  A    between atoms: C_2  and  C_3 
REMARK    2  A    between atoms: C_3  and  O_4 
REMARK    3  A    between atoms: O_4  and  C_5 
REMARK    4  A    between atoms: C_6  and  C_7 
REMARK    5  A    between atoms: C_11  and  C_12 
REMARK       I    between atoms: C_12  and  N_13 
REMARK    6  A    between atoms: N_13  and  N_14 
REMARK    7  A    between atoms: C_15  and  C_16 
REMARK    8  A    between atoms: C_19  and  N_20 
ROOT
HETATM    1  C   UNL     1      -8.285  -0.006 -33.300  1.00  0.00     0.092 A 
HETATM    2  N   UNL     1      -8.711   0.087 -32.027  1.00  0.00    -0.174 NA
HETATM    3  N   UNL     1      -9.835   0.813 -32.097  1.00  0.00    -0.272 N 
HETATM    4  H   UNL     1     -10.340   1.025 -31.242  1.00  0.00     0.189 HD
HETATM    5  C   UNL     1     -10.188   1.186 -33.363  1.00  0.00     0.121 A 
HETATM    6  C   UNL     1      -9.198   0.660 -34.168  1.00  0.00     0.071 A 
ENDROOT
BRANCH   5   7
HETATM    7  C   UNL     1     -11.383   1.957 -33.602  1.00  0.00     0.289 C 
HETATM    8  N   UNL     1     -12.551   1.383 -33.122  1.00  0.00    -0.242 N 
HETATM    9  H   UNL     1     -12.528   0.490 -32.650  1.00  0.00     0.192 HD
HETATM   10  O   UNL     1     -11.331   3.037 -34.185  1.00  0.00    -0.264 OA
BRANCH   8  11
HETATM   11  N   UNL     1     -13.738   2.044 -33.254  1.00  0.00    -0.184 NA
HETATM   12  C   UNL     1     -14.288   2.446 -32.153  1.00  0.00     0.150 C 
BRANCH  12  13
HETATM   13  C   UNL     1     -15.561   3.193 -32.156  1.00  0.00    -0.017 A 
HETATM   14  C   UNL     1     -16.777   2.538 -32.342  1.00  0.00     0.015 A 
HETATM   15  C   UNL     1     -17.970   3.271 -32.370  1.00  0.00     0.030 A 
HETATM   16  C   UNL     1     -17.987   4.665 -32.199  1.00  0.00     0.029 A 
HETATM   17  C   UNL     1     -16.741   5.295 -32.019  1.00  0.00     0.030 A 
HETATM   18  C   UNL     1     -15.539   4.576 -31.994  1.00  0.00     0.015 A 
BRANCH  16  19
HETATM   19  N   UNL     1     -19.163   5.431 -32.249  1.00  0.00    -0.390 N 
HETATM   20  C   UNL     1     -19.447   6.043 -33.550  1.00  0.00     0.149 C 
HETATM   21  C   UNL     1     -19.486   6.279 -31.101  1.00  0.00     0.149 C 
ENDBRANCH  16  19
ENDBRANCH  12  13
ENDBRANCH   8  11
ENDBRANCH   5   7
BRANCH   1  22
HETATM   22  C   UNL     1      -7.059  -0.749 -33.638  1.00  0.00     0.028 A 
HETATM   23  C   UNL     1      -5.762  -0.262 -33.369  1.00  0.00     0.081 A 
HETATM   24  C   UNL     1      -4.648  -1.038 -33.734  1.00  0.00     0.038 A 
HETATM   25  C   UNL     1      -4.810  -2.282 -34.347  1.00  0.00     0.003 A 
HETATM   26  C   UNL     1      -6.084  -2.770 -34.605  1.00  0.00     0.001 A 
HETATM   27  C   UNL     1      -7.197  -2.010 -34.252  1.00  0.00     0.017 A 
BRANCH  23  28
HETATM   28  O   UNL     1      -5.658   0.959 -32.750  1.00  0.00    -0.350 OA
BRANCH  28  29
HETATM   29  C   UNL     1      -4.371   1.574 -32.695  1.00  0.00     0.175 C 
BRANCH  29  30
HETATM   30  C   UNL     1      -3.902   1.539 -31.243  1.00  0.00     0.022 C 
HETATM   31  C   UNL     1      -3.071   0.304 -30.948  1.00  0.00     0.007 C 
ENDBRANCH  29  30
ENDBRANCH  28  29
ENDBRANCH  23  28
ENDBRANCH   1  22
TORSDOF 8
ENDMDL
MODEL 10
REMARK VINA RESULT:      -7.0      1.603      3.237
REMARK  8 active torsions:
REMARK  status: ('A' for Active; 'I' for Inactive)
REMARK    1  A    between atoms: C_2  and  C_3 
REMARK    2  A    between atoms: C_3  and  O_4 
REMARK    3  A    between atoms: O_4  and  C_5 
REMARK    4  A    between atoms: C_6  and  C_7 
REMARK    5  A    between atoms: C_11  and  C_12 
REMARK       I    between atoms: C_12  and  N_13 
REMARK    6  A    between atoms: N_13  and  N_14 
REMARK    7  A    between atoms: C_15  and  C_16 
REMARK    8  A    between atoms: C_19  and  N_20 
ROOT
HETATM    1  C   UNL     1      -6.622   1.190 -32.486  1.00  0.00     0.092 A 
HETATM    2  N   UNL     1      -6.788   1.947 -33.586  1.00  0.00    -0.174 NA
HETATM    3  N   UNL     1      -7.967   2.556 -33.404  1.00  0.00    -0.272 N 
HETATM    4  H   UNL     1      -8.314   3.185 -34.123  1.00  0.00     0.189 HD
HETATM    5  C   UNL     1      -8.581   2.257 -32.221  1.00  0.00     0.121 A 
HETATM    6  C   UNL     1      -7.723   1.373 -31.600  1.00  0.00     0.071 A 
ENDROOT
BRANCH   5   7
HETATM    7  C   UNL     1      -9.849   2.849 -31.874  1.00  0.00     0.289 C 
HETATM    8  N   UNL     1     -10.741   2.975 -32.930  1.00  0.00    -0.242 N 
HETATM    9  H   UNL     1     -10.484   2.668 -33.858  1.00  0.00     0.192 HD
HETATM   10  O   UNL     1     -10.089   3.197 -30.721  1.00  0.00    -0.264 OA
BRANCH   8  11
HETATM   11  N   UNL     1     -11.988   3.483 -32.710  1.00  0.00    -0.184 NA
HETATM   12  C   UNL     1     -12.958   2.625 -32.721  1.00  0.00     0.150 C 
BRANCH  12  13
HETATM   13  C   UNL     1     -14.354   3.039 -32.473  1.00  0.00    -0.017 A 
HETATM   14  C   UNL     1     -15.381   2.099 -32.416  1.00  0.00     0.015 A 
HETATM   15  C   UNL     1     -16.702   2.516 -32.208  1.00  0.00     0.030 A 
HETATM   16  C   UNL     1     -17.032   3.871 -32.037  1.00  0.00     0.029 A 
HETATM   17  C   UNL     1     -15.971   4.794 -32.106  1.00  0.00     0.030 A 
HETATM   18  C   UNL     1     -14.646   4.392 -32.318  1.00  0.00     0.015 A 
BRANCH  16  19
HETATM   19  N   UNL     1     -18.348   4.323 -31.854  1.00  0.00    -0.390 N 
HETATM   20  C   UNL     1     -18.718   4.599 -30.462  1.00  0.00     0.149 C 
HETATM   21  C   UNL     1     -19.410   3.705 -32.648  1.00  0.00     0.149 C 
ENDBRANCH  16  19
ENDBRANCH  12  13
ENDBRANCH   8  11
ENDBRANCH   5   7
BRANCH   1  22
HETATM   22  C   UNL     1      -5.418   0.362 -32.309  1.00  0.00     0.028 A 
HETATM   23  C   UNL     1      -5.121  -0.755 -33.121  1.00  0.00     0.081 A 
HETATM   24  C   UNL     1      -3.951  -1.492 -32.873  1.00  0.00     0.038 A 
HETATM   25  C   UNL     1      -3.076  -1.129 -31.846  1.00  0.00     0.003 A 
HETATM   26  C   UNL     1      -3.358  -0.026 -31.051  1.00  0.00     0.001 A 
HETATM   27  C   UNL     1      -4.517   0.712 -31.283  1.00  0.00     0.017 A 
BRANCH  23  28
HETATM   28  O   UNL     1      -6.004  -1.060 -34.126  1.00  0.00    -0.350 OA
BRANCH  28  29
HETATM   29  C   UNL     1      -5.763  -2.238 -34.895  1.00  0.00     0.175 C 
BRANCH  29  30
HETATM   30  C   UNL     1      -6.858  -3.246 -34.555  1.00  0.00     0.022 C 
HETATM   31  C   UNL     1      -6.687  -4.545 -35.321  1.00  0.00     0.007 C 
ENDBRANCH  29  30
ENDBRANCH  28  29
ENDBRANCH  23  28
ENDBRANCH   1  22
TORSDOF 8
ENDMDL
