MODEL 1
REMARK VINA RESULT:      -7.5      0.000      0.000
REMARK  6 active torsions:
REMARK  status: ('A' for Active; 'I' for Inactive)
REMARK    1  A    between atoms: C_2  and  C_3 
REMARK    2  A    between atoms: C_3  and  N_4 
REMARK    3  A    between atoms: C_3  and  C_15 
REMARK       I    between atoms: N_4  and  C_5 
REMARK       I    between atoms: C_5  and  N_6 
REMARK    4  A    between atoms: N_6  and  C_7 
REMARK    5  A    between atoms: C_16  and  O_17 
REMARK    6  A    between atoms: O_17  and  C_18 
ROOT
HETATM    1  N   UNL     1      -3.830   1.550 -32.603  1.00  0.00    -0.334 N 
HETATM    2  C   UNL     1      -3.724   2.898 -32.359  1.00  0.00     0.321 C 
HETATM    3  N   UNL     1      -2.643   3.425 -33.028  1.00  0.00    -0.307 N 
HETATM    4  O   UNL     1      -4.532   3.520 -31.684  1.00  0.00    -0.247 OA
HETATM    5  H   UNL     1      -2.981   1.035 -32.785  1.00  0.00     0.165 HD
HETATM    6  H   UNL     1      -2.283   2.836 -33.762  1.00  0.00     0.170 HD
ENDROOT
BRANCH   1   7
HETATM    7  C   UNL     1      -4.942   0.752 -32.113  1.00  0.00     0.122 C 
BRANCH   7   8
HETATM    8  C   UNL     1      -4.775   0.277 -30.654  1.00  0.00     0.026 C 
HETATM    9  C   UNL     1      -5.878   0.689 -29.690  1.00  0.00     0.007 C 
ENDBRANCH   7   8
BRANCH   7  10
HETATM   10  C   UNL     1      -5.287  -0.376 -33.080  1.00  0.00    -0.002 A 
HETATM   11  C   UNL     1      -6.517  -0.477 -33.765  1.00  0.00     0.077 A 
HETATM   12  C   UNL     1      -6.751  -1.564 -34.619  1.00  0.00     0.037 A 
HETATM   13  C   UNL     1      -5.771  -2.535 -34.819  1.00  0.00     0.003 A 
HETATM   14  C   UNL     1      -4.548  -2.436 -34.166  1.00  0.00     0.001 A 
HETATM   15  C   UNL     1      -4.308  -1.365 -33.305  1.00  0.00     0.012 A 
BRANCH  11  16
HETATM   16  O   UNL     1      -7.451   0.501 -33.518  1.00  0.00    -0.351 OA
BRANCH  16  17
HETATM   17  C   UNL     1      -8.732   0.061 -33.059  1.00  0.00     0.171 C 
HETATM   18  C   UNL     1      -9.021   0.750 -31.739  1.00  0.00     0.034 C 
ENDBRANCH  16  17
ENDBRANCH  11  16
ENDBRANCH   7  10
ENDBRANCH   1   7
BRANCH   3  19
HETATM   19  C   UNL     1      -2.185   4.761 -32.977  1.00  0.00     0.059 A 
HETATM   20  C   UNL     1      -2.564   5.662 -33.989  1.00  0.00    -0.032 A 
HETATM   21  C   UNL     1      -3.479   5.274 -35.117  1.00  0.00     0.050 C 
HETATM   22  C   UNL     1      -2.088   6.980 -33.931  1.00  0.00     0.028 A 
HETATM   23  C   UNL     1      -1.256   7.352 -32.888  1.00  0.00     0.117 A 
HETATM   24  N   UNL     1      -0.868   6.514 -31.910  1.00  0.00    -0.271 NA
HETATM   25  C   UNL     1      -1.343   5.243 -31.974  1.00  0.00     0.146 A 
ENDBRANCH   3  19
TORSDOF 6
ENDMDL
MODEL 2
REMARK VINA RESULT:      -7.4      3.624      4.869
REMARK  6 active torsions:
REMARK  status: ('A' for Active; 'I' for Inactive)
REMARK    1  A    between atoms: C_2  and  C_3 
REMARK    2  A    between atoms: C_3  and  N_4 
REMARK    3  A    between atoms: C_3  and  C_15 
REMARK       I    between atoms: N_4  and  C_5 
REMARK       I    between atoms: C_5  and  N_6 
REMARK    4  A    between atoms: N_6  and  C_7 
REMARK    5  A    between atoms: C_16  and  O_17 
REMARK    6  A    between atoms: O_17  and  C_18 
ROOT
HETATM    1  N   UNL     1      -6.565   0.158 -32.936  1.00  0.00    -0.334 N 
HETATM    2  C   UNL     1      -6.385   1.457 -32.526  1.00  0.00     0.321 C 
HETATM    3  N   UNL     1      -6.673   1.584 -31.186  1.00  0.00    -0.307 N 
HETATM    4  O   UNL     1      -5.969   2.338 -33.264  1.00  0.00    -0.247 OA
HETATM    5  H   UNL     1      -7.263  -0.395 -32.460  1.00  0.00     0.165 HD
HETATM    6  H   UNL     1      -6.703   0.710 -30.685  1.00  0.00     0.170 HD
ENDROOT
BRANCH   1   7
HETATM    7  C   UNL     1      -6.232  -0.292 -34.277  1.00  0.00     0.122 C 
BRANCH   7   8
HETATM    8  C   UNL     1      -7.337  -0.019 -35.320  1.00  0.00     0.026 C 
HETATM    9  C   UNL     1      -8.648   0.527 -34.772  1.00  0.00     0.007 C 
ENDBRANCH   7   8
BRANCH   7  10
HETATM   10  C   UNL     1      -5.748  -1.739 -34.276  1.00  0.00    -0.002 A 
HETATM   11  C   UNL     1      -4.502  -2.151 -33.755  1.00  0.00     0.077 A 
HETATM   12  C   UNL     1      -4.134  -3.502 -33.818  1.00  0.00     0.037 A 
HETATM   13  C   UNL     1      -4.997  -4.450 -34.368  1.00  0.00     0.003 A 
HETATM   14  C   UNL     1      -6.235  -4.059 -34.865  1.00  0.00     0.001 A 
HETATM   15  C   UNL     1      -6.607  -2.716 -34.819  1.00  0.00     0.012 A 
BRANCH  11  16
HETATM   16  O   UNL     1      -3.687  -1.172 -33.239  1.00  0.00    -0.351 OA
BRANCH  16  17
HETATM   17  C   UNL     1      -3.248  -1.349 -31.890  1.00  0.00     0.171 C 
HETATM   18  C   UNL     1      -3.182   0.017 -31.234  1.00  0.00     0.034 C 
ENDBRANCH  16  17
ENDBRANCH  11  16
ENDBRANCH   7  10
ENDBRANCH   1   7
BRANCH   3  19
HETATM   19  C   UNL     1      -6.655   2.774 -30.425  1.00  0.00     0.059 A 
HETATM   20  C   UNL     1      -7.863   3.445 -30.160  1.00  0.00    -0.032 A 
HETATM   21  C   UNL     1      -9.195   2.925 -30.623  1.00  0.00     0.050 C 
HETATM   22  C   UNL     1      -7.825   4.633 -29.415  1.00  0.00     0.028 A 
HETATM   23  C   UNL     1      -6.603   5.112 -28.972  1.00  0.00     0.117 A 
HETATM   24  N   UNL     1      -5.431   4.501 -29.214  1.00  0.00    -0.271 NA
HETATM   25  C   UNL     1      -5.482   3.347 -29.929  1.00  0.00     0.146 A 
ENDBRANCH   3  19
TORSDOF 6
ENDMDL
MODEL 3
REMARK VINA RESULT:      -7.4      0.844      1.531
REMARK  6 active torsions:
REMARK  status: ('A' for Active; 'I' for Inactive)
REMARK    1  A    between atoms: C_2  and  C_3 
REMARK    2  A    between atoms: C_3  and  N_4 
REMARK    3  A    between atoms: C_3  and  C_15 
REMARK       I    between atoms: N_4  and  C_5 
REMARK       I    between atoms: C_5  and  N_6 
REMARK    4  A    between atoms: N_6  and  C_7 
REMARK    5  A    between atoms: C_16  and  O_17 
REMARK    6  A    between atoms: O_17  and  C_18 
ROOT
HETATM    1  N   UNL     1      -3.904   1.794 -32.453  1.00  0.00    -0.334 N 
HETATM    2  C   UNL     1      -3.879   3.166 -32.508  1.00  0.00     0.321 C 
HETATM    3  N   UNL     1      -2.662   3.608 -32.974  1.00  0.00    -0.307 N 
HETATM    4  O   UNL     1      -4.844   3.863 -32.228  1.00  0.00    -0.247 OA
HETATM    5  H   UNL     1      -3.033   1.312 -32.284  1.00  0.00     0.165 HD
HETATM    6  H   UNL     1      -2.113   2.899 -33.433  1.00  0.00     0.170 HD
ENDROOT
BRANCH   1   7
HETATM    7  C   UNL     1      -5.100   1.047 -32.100  1.00  0.00     0.122 C 
BRANCH   7   8
HETATM    8  C   UNL     1      -5.147   0.605 -30.622  1.00  0.00     0.026 C 
HETATM    9  C   UNL     1      -6.471   0.028 -30.143  1.00  0.00     0.007 C 
ENDBRANCH   7   8
BRANCH   7  10
HETATM   10  C   UNL     1      -5.354  -0.095 -33.080  1.00  0.00    -0.002 A 
HETATM   11  C   UNL     1      -6.442  -0.134 -33.978  1.00  0.00     0.077 A 
HETATM   12  C   UNL     1      -6.605  -1.237 -34.827  1.00  0.00     0.037 A 
HETATM   13  C   UNL     1      -5.687  -2.288 -34.811  1.00  0.00     0.003 A 
HETATM   14  C   UNL     1      -4.600  -2.251 -33.946  1.00  0.00     0.001 A 
HETATM   15  C   UNL     1      -4.435  -1.164 -33.089  1.00  0.00     0.012 A 
BRANCH  11  16
HETATM   16  O   UNL     1      -7.322   0.921 -33.938  1.00  0.00    -0.351 OA
BRANCH  16  17
HETATM   17  C   UNL     1      -8.710   0.602 -34.065  1.00  0.00     0.171 C 
HETATM   18  C   UNL     1      -9.234   0.231 -32.690  1.00  0.00     0.034 C 
ENDBRANCH  16  17
ENDBRANCH  11  16
ENDBRANCH   7  10
ENDBRANCH   1   7
BRANCH   3  19
HETATM   19  C   UNL     1      -2.246   4.951 -33.115  1.00  0.00     0.059 A 
HETATM   20  C   UNL     1      -1.428   5.531 -32.128  1.00  0.00    -0.032 A 
HETATM   21  C   UNL     1      -0.937   4.763 -30.932  1.00  0.00     0.050 C 
HETATM   22  C   UNL     1      -1.036   6.869 -32.277  1.00  0.00     0.028 A 
HETATM   23  C   UNL     1      -1.472   7.580 -33.383  1.00  0.00     0.117 A 
HETATM   24  N   UNL     1      -2.260   7.060 -34.340  1.00  0.00    -0.271 NA
HETATM   25  C   UNL     1      -2.625   5.760 -34.188  1.00  0.00     0.146 A 
ENDBRANCH   3  19
TORSDOF 6
ENDMDL
MODEL 4
REMARK VINA RESULT:      -7.2      1.484      2.525
REMARK  6 active torsions:
REMARK  status: ('A' for Active; 'I' for Inactive)
REMARK    1  A    between atoms: C_2  and  C_3 
REMARK    2  A    between atoms: C_3  and  N_4 
REMARK    3  A    between atoms: C_3  and  C_15 
REMARK       I    between atoms: N_4  and  C_5 
REMARK       I    between atoms: C_5  and  N_6 
REMARK    4  A    between atoms: N_6  and  C_7 
REMARK    5  A    between atoms: C_16  and  O_17 
REMARK    6  A    between atoms: O_17  and  C_18 
ROOT
HETATM    1  N   UNL     1      -4.526   2.168 -32.333  1.00  0.00    -0.334 N 
HETATM    2  C   UNL     1      -4.123   3.476 -32.213  1.00  0.00     0.321 C 
HETATM    3  N   UNL     1      -2.768   3.584 -32.424  1.00  0.00    -0.307 N 
HETATM    4  O   UNL     1      -4.899   4.397 -32.003  1.00  0.00    -0.247 OA
HETATM    5  H   UNL     1      -3.863   1.445 -32.091  1.00  0.00     0.165 HD
HETATM    6  H   UNL     1      -2.354   2.784 -32.876  1.00  0.00     0.170 HD
ENDROOT
BRANCH   1   7
HETATM    7  C   UNL     1      -5.922   1.771 -32.266  1.00  0.00     0.122 C 
BRANCH   7   8
HETATM    8  C   UNL     1      -6.444   1.561 -30.829  1.00  0.00     0.026 C 
HETATM    9  C   UNL     1      -7.404   2.621 -30.309  1.00  0.00     0.007 C 
ENDBRANCH   7   8
BRANCH   7  10
HETATM   10  C   UNL     1      -6.212   0.592 -33.192  1.00  0.00    -0.002 A 
HETATM   11  C   UNL     1      -5.608  -0.676 -33.063  1.00  0.00     0.077 A 
HETATM   12  C   UNL     1      -5.921  -1.693 -33.976  1.00  0.00     0.037 A 
HETATM   13  C   UNL     1      -6.844  -1.471 -34.998  1.00  0.00     0.003 A 
HETATM   14  C   UNL     1      -7.461  -0.232 -35.122  1.00  0.00     0.001 A 
HETATM   15  C   UNL     1      -7.148   0.790 -34.226  1.00  0.00     0.012 A 
BRANCH  11  16
HETATM   16  O   UNL     1      -4.694  -0.832 -32.047  1.00  0.00    -0.351 OA
BRANCH  16  17
HETATM   17  C   UNL     1      -3.372  -1.221 -32.429  1.00  0.00     0.171 C 
HETATM   18  C   UNL     1      -3.129  -2.627 -31.914  1.00  0.00     0.034 C 
ENDBRANCH  16  17
ENDBRANCH  11  16
ENDBRANCH   7  10
ENDBRANCH   1   7
BRANCH   3  19
HETATM   19  C   UNL     1      -1.987   4.758 -32.331  1.00  0.00     0.059 A 
HETATM   20  C   UNL     1      -1.687   5.485 -33.498  1.00  0.00    -0.032 A 
HETATM   21  C   UNL     1      -2.200   5.086 -34.854  1.00  0.00     0.050 C 
HETATM   22  C   UNL     1      -0.899   6.640 -33.389  1.00  0.00     0.028 A 
HETATM   23  C   UNL     1      -0.434   7.024 -32.142  1.00  0.00     0.117 A 
HETATM   24  N   UNL     1      -0.694   6.348 -31.009  1.00  0.00    -0.271 NA
HETATM   25  C   UNL     1      -1.466   5.237 -31.127  1.00  0.00     0.146 A 
ENDBRANCH   3  19
TORSDOF 6
ENDMDL
MODEL 5
REMARK VINA RESULT:      -7.1      2.466      7.373
REMARK  6 active torsions:
REMARK  status: ('A' for Active; 'I' for Inactive)
REMARK    1  A    between atoms: C_2  and  C_3 
REMARK    2  A    between atoms: C_3  and  N_4 
REMARK    3  A    between atoms: C_3  and  C_15 
REMARK       I    between atoms: N_4  and  C_5 
REMARK       I    between atoms: C_5  and  N_6 
REMARK    4  A    between atoms: N_6  and  C_7 
REMARK    5  A    between atoms: C_16  and  O_17 
REMARK    6  A    between atoms: O_17  and  C_18 
ROOT
HETATM    1  N   UNL     1      -4.407   2.051 -32.071  1.00  0.00    -0.334 N 
HETATM    2  C   UNL     1      -3.761   0.844 -31.954  1.00  0.00     0.321 C 
HETATM    3  N   UNL     1      -4.407  -0.121 -32.692  1.00  0.00    -0.307 N 
HETATM    4  O   UNL     1      -2.726   0.699 -31.320  1.00  0.00    -0.247 OA
HETATM    5  H   UNL     1      -5.405   2.040 -32.225  1.00  0.00     0.165 HD
HETATM    6  H   UNL     1      -5.050   0.243 -33.378  1.00  0.00     0.170 HD
ENDROOT
BRANCH   1   7
HETATM    7  C   UNL     1      -3.887   3.276 -31.485  1.00  0.00     0.122 C 
BRANCH   7   8
HETATM    8  C   UNL     1      -4.926   4.062 -30.658  1.00  0.00     0.026 C 
HETATM    9  C   UNL     1      -6.185   3.299 -30.274  1.00  0.00     0.007 C 
ENDBRANCH   7   8
BRANCH   7  10
HETATM   10  C   UNL     1      -3.171   4.131 -32.526  1.00  0.00    -0.002 A 
HETATM   11  C   UNL     1      -1.855   4.618 -32.374  1.00  0.00     0.077 A 
HETATM   12  C   UNL     1      -1.288   5.417 -33.377  1.00  0.00     0.037 A 
HETATM   13  C   UNL     1      -2.002   5.714 -34.538  1.00  0.00     0.003 A 
HETATM   14  C   UNL     1      -3.291   5.223 -34.708  1.00  0.00     0.001 A 
HETATM   15  C   UNL     1      -3.870   4.438 -33.711  1.00  0.00     0.012 A 
BRANCH  11  16
HETATM   16  O   UNL     1      -1.206   4.306 -31.204  1.00  0.00    -0.351 OA
BRANCH  16  17
HETATM   17  C   UNL     1      -0.556   5.384 -30.525  1.00  0.00     0.171 C 
HETATM   18  C   UNL     1       0.766   4.870 -29.986  1.00  0.00     0.034 C 
ENDBRANCH  16  17
ENDBRANCH  11  16
ENDBRANCH   7  10
ENDBRANCH   1   7
BRANCH   3  19
HETATM   19  C   UNL     1      -4.070  -1.491 -32.774  1.00  0.00     0.059 A 
HETATM   20  C   UNL     1      -4.665  -2.292 -33.767  1.00  0.00    -0.032 A 
HETATM   21  C   UNL     1      -5.625  -1.741 -34.783  1.00  0.00     0.050 C 
HETATM   22  C   UNL     1      -4.329  -3.653 -33.825  1.00  0.00     0.028 A 
HETATM   23  C   UNL     1      -3.434  -4.167 -32.902  1.00  0.00     0.117 A 
HETATM   24  N   UNL     1      -2.855  -3.432 -31.936  1.00  0.00    -0.271 NA
HETATM   25  C   UNL     1      -3.181  -2.114 -31.897  1.00  0.00     0.146 A 
ENDBRANCH   3  19
TORSDOF 6
ENDMDL
MODEL 6
REMARK VINA RESULT:      -6.9      2.370      6.667
REMARK  6 active torsions:
REMARK  status: ('A' for Active; 'I' for Inactive)
REMARK    1  A    between atoms: C_2  and  C_3 
REMARK    2  A    between atoms: C_3  and  N_4 
REMARK    3  A    between atoms: C_3  and  C_15 
REMARK       I    between atoms: N_4  and  C_5 
REMARK       I    between atoms: C_5  and  N_6 
REMARK    4  A    between atoms: N_6  and  C_7 
REMARK    5  A    between atoms: C_16  and  O_17 
REMARK    6  A    between atoms: O_17  and  C_18 
ROOT
HETATM    1  N   UNL     1      -4.579   1.788 -32.162  1.00  0.00    -0.334 N 
HETATM    2  C   UNL     1      -3.882   0.604 -32.123  1.00  0.00     0.321 C 
HETATM    3  N   UNL     1      -4.571  -0.383 -32.789  1.00  0.00    -0.307 N 
HETATM    4  O   UNL     1      -2.779   0.497 -31.608  1.00  0.00    -0.247 OA
HETATM    5  H   UNL     1      -5.587   1.741 -32.204  1.00  0.00     0.165 HD
HETATM    6  H   UNL     1      -5.298  -0.041 -33.398  1.00  0.00     0.170 HD
ENDROOT
BRANCH   1   7
HETATM    7  C   UNL     1      -4.043   3.030 -31.631  1.00  0.00     0.122 C 
BRANCH   7   8
HETATM    8  C   UNL     1      -4.988   3.749 -30.646  1.00  0.00     0.026 C 
HETATM    9  C   UNL     1      -6.336   3.082 -30.412  1.00  0.00     0.007 C 
ENDBRANCH   7   8
BRANCH   7  10
HETATM   10  C   UNL     1      -3.529   3.936 -32.746  1.00  0.00    -0.002 A 
HETATM   11  C   UNL     1      -4.330   4.408 -33.808  1.00  0.00     0.077 A 
HETATM   12  C   UNL     1      -3.763   5.221 -34.800  1.00  0.00     0.037 A 
HETATM   13  C   UNL     1      -2.419   5.589 -34.734  1.00  0.00     0.003 A 
HETATM   14  C   UNL     1      -1.626   5.148 -33.682  1.00  0.00     0.001 A 
HETATM   15  C   UNL     1      -2.177   4.330 -32.696  1.00  0.00     0.012 A 
BRANCH  11  16
HETATM   16  O   UNL     1      -5.642   4.000 -33.829  1.00  0.00    -0.351 OA
BRANCH  16  17
HETATM   17  C   UNL     1      -6.634   5.028 -33.768  1.00  0.00     0.171 C 
HETATM   18  C   UNL     1      -7.999   4.365 -33.772  1.00  0.00     0.034 C 
ENDBRANCH  16  17
ENDBRANCH  11  16
ENDBRANCH   7  10
ENDBRANCH   1   7
BRANCH   3  19
HETATM   19  C   UNL     1      -4.196  -1.740 -32.915  1.00  0.00     0.059 A 
HETATM   20  C   UNL     1      -4.752  -2.519 -33.946  1.00  0.00    -0.032 A 
HETATM   21  C   UNL     1      -5.710  -1.956 -34.959  1.00  0.00     0.050 C 
HETATM   22  C   UNL     1      -4.380  -3.868 -34.047  1.00  0.00     0.028 A 
HETATM   23  C   UNL     1      -3.487  -4.392 -33.127  1.00  0.00     0.117 A 
HETATM   24  N   UNL     1      -2.944  -3.677 -32.126  1.00  0.00    -0.271 NA
HETATM   25  C   UNL     1      -3.306  -2.371 -32.044  1.00  0.00     0.146 A 
ENDBRANCH   3  19
TORSDOF 6
ENDMDL
MODEL 7
REMARK VINA RESULT:      -6.8      1.275      2.152
REMARK  6 active torsions:
REMARK  status: ('A' for Active; 'I' for Inactive)
REMARK    1  A    between atoms: C_2  and  C_3 
REMARK    2  A    between atoms: C_3  and  N_4 
REMARK    3  A    between atoms: C_3  and  C_15 
REMARK       I    between atoms: N_4  and  C_5 
REMARK       I    between atoms: C_5  and  N_6 
REMARK    4  A    between atoms: N_6  and  C_7 
REMARK    5  A    between atoms: C_16  and  O_17 
REMARK    6  A    between atoms: O_17  and  C_18 
ROOT
HETATM    1  N   UNL     1      -3.449   1.901 -31.969  1.00  0.00    -0.334 N 
HETATM    2  C   UNL     1      -3.516   3.229 -32.314  1.00  0.00     0.321 C 
HETATM    3  N   UNL     1      -2.253   3.756 -32.452  1.00  0.00    -0.307 N 
HETATM    4  O   UNL     1      -4.571   3.812 -32.518  1.00  0.00    -0.247 OA
HETATM    5  H   UNL     1      -2.653   1.593 -31.429  1.00  0.00     0.165 HD
HETATM    6  H   UNL     1      -1.524   3.066 -32.544  1.00  0.00     0.170 HD
ENDROOT
BRANCH   1   7
HETATM    7  C   UNL     1      -4.629   1.059 -31.861  1.00  0.00     0.122 C 
BRANCH   7   8
HETATM    8  C   UNL     1      -5.300   1.100 -30.472  1.00  0.00     0.026 C 
HETATM    9  C   UNL     1      -6.784   1.436 -30.461  1.00  0.00     0.007 C 
ENDBRANCH   7   8
BRANCH   7  10
HETATM   10  C   UNL     1      -4.351  -0.357 -32.357  1.00  0.00    -0.002 A 
HETATM   11  C   UNL     1      -4.947  -0.919 -33.506  1.00  0.00     0.077 A 
HETATM   12  C   UNL     1      -4.646  -2.239 -33.872  1.00  0.00     0.037 A 
HETATM   13  C   UNL     1      -3.744  -2.995 -33.124  1.00  0.00     0.003 A 
HETATM   14  C   UNL     1      -3.135  -2.445 -32.002  1.00  0.00     0.001 A 
HETATM   15  C   UNL     1      -3.436  -1.137 -31.623  1.00  0.00     0.012 A 
BRANCH  11  16
HETATM   16  O   UNL     1      -5.840  -0.133 -34.195  1.00  0.00    -0.351 OA
BRANCH  16  17
HETATM   17  C   UNL     1      -7.224  -0.461 -34.052  1.00  0.00     0.171 C 
HETATM   18  C   UNL     1      -7.963   0.082 -35.261  1.00  0.00     0.034 C 
ENDBRANCH  16  17
ENDBRANCH  11  16
ENDBRANCH   7  10
ENDBRANCH   1   7
BRANCH   3  19
HETATM   19  C   UNL     1      -1.923   5.099 -32.745  1.00  0.00     0.059 A 
HETATM   20  C   UNL     1      -1.130   5.830 -31.841  1.00  0.00    -0.032 A 
HETATM   21  C   UNL     1      -0.578   5.228 -30.579  1.00  0.00     0.050 C 
HETATM   22  C   UNL     1      -0.824   7.165 -32.141  1.00  0.00     0.028 A 
HETATM   23  C   UNL     1      -1.316   7.725 -33.309  1.00  0.00     0.117 A 
HETATM   24  N   UNL     1      -2.082   7.057 -34.189  1.00  0.00    -0.271 NA
HETATM   25  C   UNL     1      -2.364   5.762 -33.891  1.00  0.00     0.146 A 
ENDBRANCH   3  19
TORSDOF 6
ENDMDL
MODEL 8
REMARK VINA RESULT:      -6.7      4.011      6.306
REMARK  6 active torsions:
REMARK  status: ('A' for Active; 'I' for Inactive)
REMARK    1  A    between atoms: C_2  and  C_3 
REMARK    2  A    between atoms: C_3  and  N_4 
REMARK    3  A    between atoms: C_3  and  C_15 
REMARK       I    between atoms: N_4  and  C_5 
REMARK       I    between atoms: C_5  and  N_6 
REMARK    4  A    between atoms: N_6  and  C_7 
REMARK    5  A    between atoms: C_16  and  O_17 
REMARK    6  A    between atoms: O_17  and  C_18 
ROOT
HETATM    1  N   UNL     1      -7.226   1.736 -32.313  1.00  0.00    -0.334 N 
HETATM    2  C   UNL     1      -8.577   1.747 -32.565  1.00  0.00     0.321 C 
HETATM    3  N   UNL     1      -8.838   2.358 -33.770  1.00  0.00    -0.307 N 
HETATM    4  O   UNL     1      -9.398   1.224 -31.825  1.00  0.00    -0.247 OA
HETATM    5  H   UNL     1      -6.670   2.490 -32.689  1.00  0.00     0.165 HD
HETATM    6  H   UNL     1      -8.033   2.450 -34.370  1.00  0.00     0.170 HD
ENDROOT
BRANCH   1   7
HETATM    7  C   UNL     1      -6.651   1.059 -31.163  1.00  0.00     0.122 C 
BRANCH   7   8
HETATM    8  C   UNL     1      -6.388   1.988 -29.959  1.00  0.00     0.026 C 
HETATM    9  C   UNL     1      -6.324   3.477 -30.269  1.00  0.00     0.007 C 
ENDBRANCH   7   8
BRANCH   7  10
HETATM   10  C   UNL     1      -5.437   0.223 -31.557  1.00  0.00    -0.002 A 
HETATM   11  C   UNL     1      -5.482  -0.841 -32.483  1.00  0.00     0.077 A 
HETATM   12  C   UNL     1      -4.317  -1.567 -32.766  1.00  0.00     0.037 A 
HETATM   13  C   UNL     1      -3.106  -1.233 -32.160  1.00  0.00     0.003 A 
HETATM   14  C   UNL     1      -3.045  -0.173 -31.262  1.00  0.00     0.001 A 
HETATM   15  C   UNL     1      -4.200   0.548 -30.964  1.00  0.00     0.012 A 
BRANCH  11  16
HETATM   16  O   UNL     1      -6.705  -1.135 -33.037  1.00  0.00    -0.351 OA
BRANCH  16  17
HETATM   17  C   UNL     1      -6.707  -1.530 -34.411  1.00  0.00     0.171 C 
HETATM   18  C   UNL     1      -6.970  -0.295 -35.254  1.00  0.00     0.034 C 
ENDBRANCH  16  17
ENDBRANCH  11  16
ENDBRANCH   7  10
ENDBRANCH   1   7
BRANCH   3  19
HETATM   19  C   UNL     1     -10.108   2.604 -34.338  1.00  0.00     0.059 A 
HETATM   20  C   UNL     1     -10.466   3.918 -34.691  1.00  0.00    -0.032 A 
HETATM   21  C   UNL     1      -9.531   5.083 -34.527  1.00  0.00     0.050 C 
HETATM   22  C   UNL     1     -11.736   4.146 -35.241  1.00  0.00     0.028 A 
HETATM   23  C   UNL     1     -12.600   3.076 -35.410  1.00  0.00     0.117 A 
HETATM   24  N   UNL     1     -12.292   1.810 -35.075  1.00  0.00    -0.271 NA
HETATM   25  C   UNL     1     -11.056   1.602 -34.553  1.00  0.00     0.146 A 
ENDBRANCH   3  19
TORSDOF 6
ENDMDL
MODEL 9
REMARK VINA RESULT:      -6.6      4.423      7.817
REMARK  6 active torsions:
REMARK  status: ('A' for Active; 'I' for Inactive)
REMARK    1  A    between atoms: C_2  and  C_3 
REMARK    2  A    between atoms: C_3  and  N_4 
REMARK    3  A    between atoms: C_3  and  C_15 
REMARK       I    between atoms: N_4  and  C_5 
REMARK       I    between atoms: C_5  and  N_6 
REMARK    4  A    between atoms: N_6  and  C_7 
REMARK    5  A    between atoms: C_16  and  O_17 
REMARK    6  A    between atoms: O_17  and  C_18 
ROOT
HETATM    1  N   UNL     1     -10.104   1.576 -34.953  1.00  0.00    -0.334 N 
HETATM    2  C   UNL     1      -9.250   0.799 -34.209  1.00  0.00     0.321 C 
HETATM    3  N   UNL     1      -8.116   0.503 -34.930  1.00  0.00    -0.307 N 
HETATM    4  O   UNL     1      -9.474   0.483 -33.049  1.00  0.00    -0.247 OA
HETATM    5  H   UNL     1     -10.094   1.461 -35.957  1.00  0.00     0.165 HD
HETATM    6  H   UNL     1      -7.973   1.091 -35.737  1.00  0.00     0.170 HD
ENDROOT
BRANCH   1   7
HETATM    7  C   UNL     1     -11.333   2.130 -34.409  1.00  0.00     0.122 C 
BRANCH   7   8
HETATM    8  C   UNL     1     -12.591   1.297 -34.733  1.00  0.00     0.026 C 
HETATM    9  C   UNL     1     -13.008   0.284 -33.676  1.00  0.00     0.007 C 
ENDBRANCH   7   8
BRANCH   7  10
HETATM   10  C   UNL     1     -11.481   3.608 -34.757  1.00  0.00    -0.002 A 
HETATM   11  C   UNL     1     -10.448   4.558 -34.609  1.00  0.00     0.077 A 
HETATM   12  C   UNL     1     -10.685   5.901 -34.936  1.00  0.00     0.037 A 
HETATM   13  C   UNL     1     -11.926   6.304 -35.430  1.00  0.00     0.003 A 
HETATM   14  C   UNL     1     -12.944   5.373 -35.601  1.00  0.00     0.001 A 
HETATM   15  C   UNL     1     -12.722   4.037 -35.268  1.00  0.00     0.012 A 
BRANCH  11  16
HETATM   16  O   UNL     1      -9.253   4.107 -34.102  1.00  0.00    -0.351 OA
BRANCH  16  17
HETATM   17  C   UNL     1      -8.817   4.693 -32.873  1.00  0.00     0.171 C 
HETATM   18  C   UNL     1      -9.138   3.723 -31.751  1.00  0.00     0.034 C 
ENDBRANCH  16  17
ENDBRANCH  11  16
ENDBRANCH   7  10
ENDBRANCH   1   7
BRANCH   3  19
HETATM   19  C   UNL     1      -7.039  -0.315 -34.518  1.00  0.00     0.059 A 
HETATM   20  C   UNL     1      -5.975   0.253 -33.794  1.00  0.00    -0.032 A 
HETATM   21  C   UNL     1      -5.949   1.703 -33.398  1.00  0.00     0.050 C 
HETATM   22  C   UNL     1      -4.909  -0.571 -33.406  1.00  0.00     0.028 A 
HETATM   23  C   UNL     1      -4.931  -1.912 -33.753  1.00  0.00     0.117 A 
HETATM   24  N   UNL     1      -5.927  -2.484 -34.452  1.00  0.00    -0.271 NA
HETATM   25  C   UNL     1      -6.958  -1.677 -34.814  1.00  0.00     0.146 A 
ENDBRANCH   3  19
TORSDOF 6
ENDMDL
MODEL 10
REMARK VINA RESULT:      -6.5      2.821      7.037
REMARK  6 active torsions:
REMARK  status: ('A' for Active; 'I' for Inactive)
REMARK    1  A    between atoms: C_2  and  C_3 
REMARK    2  A    between atoms: C_3  and  N_4 
REMARK    3  A    between atoms: C_3  and  C_15 
REMARK       I    between atoms: N_4  and  C_5 
REMARK       I    between atoms: C_5  and  N_6 
REMARK    4  A    between atoms: N_6  and  C_7 
REMARK    5  A    between atoms: C_16  and  O_17 
REMARK    6  A    between atoms: O_17  and  C_18 
ROOT
HETATM    1  N   UNL     1      -6.456   1.051 -33.424  1.00  0.00    -0.334 N 
HETATM    2  C   UNL     1      -6.053  -0.123 -32.835  1.00  0.00     0.321 C 
HETATM    3  N   UNL     1      -5.015  -0.686 -33.541  1.00  0.00    -0.307 N 
HETATM    4  O   UNL     1      -6.536  -0.547 -31.795  1.00  0.00    -0.247 OA
HETATM    5  H   UNL     1      -6.349   1.138 -34.425  1.00  0.00     0.165 HD
HETATM    6  H   UNL     1      -4.558  -0.053 -34.179  1.00  0.00     0.170 HD
ENDROOT
BRANCH   1   7
HETATM    7  C   UNL     1      -7.464   1.916 -32.835  1.00  0.00     0.122 C 
BRANCH   7   8
HETATM    8  C   UNL     1      -8.405   2.572 -33.868  1.00  0.00     0.026 C 
HETATM    9  C   UNL     1      -9.739   1.872 -34.090  1.00  0.00     0.007 C 
ENDBRANCH   7   8
BRANCH   7  10
HETATM   10  C   UNL     1      -6.842   2.916 -31.864  1.00  0.00    -0.002 A 
HETATM   11  C   UNL     1      -5.750   3.749 -32.185  1.00  0.00     0.077 A 
HETATM   12  C   UNL     1      -5.232   4.623 -31.219  1.00  0.00     0.037 A 
HETATM   13  C   UNL     1      -5.803   4.695 -29.948  1.00  0.00     0.003 A 
HETATM   14  C   UNL     1      -6.893   3.894 -29.627  1.00  0.00     0.001 A 
HETATM   15  C   UNL     1      -7.408   3.013 -30.577  1.00  0.00     0.012 A 
BRANCH  11  16
HETATM   16  O   UNL     1      -5.219   3.624 -33.447  1.00  0.00    -0.351 OA
BRANCH  16  17
HETATM   17  C   UNL     1      -5.274   4.782 -34.283  1.00  0.00     0.171 C 
HETATM   18  C   UNL     1      -3.853   5.152 -34.667  1.00  0.00     0.034 C 
ENDBRANCH  16  17
ENDBRANCH  11  16
ENDBRANCH   7  10
ENDBRANCH   1   7
BRANCH   3  19
HETATM   19  C   UNL     1      -4.376  -1.917 -33.271  1.00  0.00     0.059 A 
HETATM   20  C   UNL     1      -4.600  -3.014 -34.123  1.00  0.00    -0.032 A 
HETATM   21  C   UNL     1      -5.468  -2.924 -35.347  1.00  0.00     0.050 C 
HETATM   22  C   UNL     1      -3.969  -4.233 -33.832  1.00  0.00     0.028 A 
HETATM   23  C   UNL     1      -3.155  -4.321 -32.715  1.00  0.00     0.117 A 
HETATM   24  N   UNL     1      -2.927  -3.295 -31.876  1.00  0.00    -0.271 NA
HETATM   25  C   UNL     1      -3.537  -2.119 -32.174  1.00  0.00     0.146 A 
ENDBRANCH   3  19
TORSDOF 6
ENDMDL
