MODEL 1
REMARK VINA RESULT:     -11.2      0.000      0.000
REMARK  8 active torsions:
REMARK  status: ('A' for Active; 'I' for Inactive)
REMARK    1  A    between atoms: C_5  and  N_6 
REMARK       I    between atoms: N_6  and  C_7 
REMARK    2  A    between atoms: C_7  and  C_8 
REMARK    3  A    between atoms: C_8  and  N_9 
REMARK    4  A    between atoms: N_12  and  C_13 
REMARK    5  A    between atoms: C_13  and  C_14 
REMARK    6  A    between atoms: C_17  and  C_18 
REMARK       I    between atoms: C_18  and  N_19 
REMARK    7  A    between atoms: N_19  and  C_20 
REMARK    8  A    between atoms: C_20  and  C_21 
ROOT
HETATM    1  N   UNL     1      -6.936   0.671 -33.945  1.00  0.00    -0.290 N 
HETATM    2  C   UNL     1      -6.648   1.692 -33.048  1.00  0.00     0.332 C 
HETATM    3  O   UNL     1      -7.208   2.786 -33.143  1.00  0.00    -0.246 OA
HETATM    4  N   UNL     1      -5.734   1.410 -32.044  1.00  0.00    -0.261 N 
HETATM    5  C   UNL     1      -5.050   0.208 -31.924  1.00  0.00     0.264 C 
HETATM    6  O   UNL     1      -4.381  -0.114 -30.944  1.00  0.00    -0.267 OA
HETATM    7  C   UNL     1      -5.194  -0.750 -33.030  1.00  0.00     0.059 A 
HETATM    8  C   UNL     1      -6.168  -0.523 -34.001  1.00  0.00     0.055 A 
HETATM    9  C   UNL     1      -4.406  -1.911 -33.049  1.00  0.00     0.019 A 
HETATM   10  C   UNL     1      -4.587  -2.858 -34.051  1.00  0.00     0.001 A 
HETATM   11  C   UNL     1      -5.559  -2.650 -35.025  1.00  0.00     0.002 A 
HETATM   12  C   UNL     1      -6.347  -1.492 -34.999  1.00  0.00     0.031 A 
ENDROOT
BRANCH   4  13
HETATM   13  C   UNL     1      -5.675   2.323 -30.908  1.00  0.00     0.175 C 
BRANCH  13  14
HETATM   14  C   UNL     1      -4.654   3.433 -31.035  1.00  0.00    -0.040 A 
HETATM   15  C   UNL     1      -4.941   4.736 -30.607  1.00  0.00     0.010 A 
HETATM   16  C   UNL     1      -3.949   5.727 -30.632  1.00  0.00     0.017 A 
HETATM   17  C   UNL     1      -2.662   5.429 -31.101  1.00  0.00     0.032 A 
HETATM   18  C   UNL     1      -2.384   4.134 -31.551  1.00  0.00     0.017 A 
HETATM   19  C   UNL     1      -3.371   3.149 -31.524  1.00  0.00     0.010 A 
BRANCH  17  20
HETATM   20  C   UNL     1      -1.539   6.411 -31.083  1.00  0.00     0.251 C 
HETATM   21  N   UNL     1      -0.776   6.474 -29.939  1.00  0.00    -0.353 N 
HETATM   22  H   UNL     1      -1.057   5.978 -29.107  1.00  0.00     0.163 HD
HETATM   23  O   UNL     1      -1.342   7.128 -32.058  1.00  0.00    -0.268 OA
BRANCH  21  24
HETATM   24  C   UNL     1       0.338   7.390 -29.822  1.00  0.00     0.161 C 
BRANCH  24  25
HETATM   25  C   UNL     1       0.370   8.044 -28.463  1.00  0.00    -0.038 A 
HETATM   26  C   UNL     1      -0.815   8.218 -27.731  1.00  0.00     0.048 A 
HETATM   27  C   UNL     1      -0.730   8.798 -26.483  1.00  0.00     0.105 A 
HETATM   28  C   UNL     1       0.471   9.205 -25.952  1.00  0.00     0.105 A 
HETATM   29  O   UNL     1      -1.774   9.033 -25.645  1.00  0.00    -0.323 OA
HETATM   30  O   UNL     1       0.333   9.749 -24.713  1.00  0.00    -0.323 OA
HETATM   31  C   UNL     1       1.656   9.051 -26.637  1.00  0.00     0.040 A 
HETATM   32  C   UNL     1      -1.090   9.620 -24.517  1.00  0.00     0.352 A 
HETATM   33  C   UNL     1       1.601   8.460 -27.903  1.00  0.00     0.012 A 
ENDBRANCH  24  25
ENDBRANCH  21  24
ENDBRANCH  17  20
ENDBRANCH  13  14
ENDBRANCH   4  13
BRANCH   1  34
HETATM   34  C   UNL     1      -8.170   0.782 -34.734  1.00  0.00     0.237 C 
BRANCH  34  35
HETATM   35  C   UNL     1      -9.493   0.695 -33.974  1.00  0.00     0.240 C 
HETATM   36  N   UNL     1     -10.476   1.548 -34.436  1.00  0.00    -0.326 N 
HETATM   37  H   UNL     1     -10.229   2.131 -35.227  1.00  0.00     0.169 HD
HETATM   38  O   UNL     1      -9.562  -0.018 -32.975  1.00  0.00    -0.271 OA
BRANCH  36  39
HETATM   39  C   UNL     1     -11.764   1.734 -33.890  1.00  0.00     0.034 A 
HETATM   40  C   UNL     1     -12.144   2.854 -33.147  1.00  0.00     0.030 A 
HETATM   41  C   UNL     1     -13.447   2.976 -32.650  1.00  0.00     0.009 A 
HETATM   42  C   UNL     1     -14.396   1.981 -32.890  1.00  0.00    -0.062 A 
HETATM   43  C   UNL     1     -15.787   2.102 -32.342  1.00  0.00     0.048 C 
HETATM   44  C   UNL     1     -14.015   0.849 -33.617  1.00  0.00     0.009 A 
HETATM   45  C   UNL     1     -12.712   0.730 -34.116  1.00  0.00     0.030 A 
ENDBRANCH  36  39
ENDBRANCH  34  35
ENDBRANCH   1  34
TORSDOF 8
ENDMDL
MODEL 2
REMARK VINA RESULT:     -10.8      2.462      5.484
REMARK  8 active torsions:
REMARK  status: ('A' for Active; 'I' for Inactive)
REMARK    1  A    between atoms: C_5  and  N_6 
REMARK       I    between atoms: N_6  and  C_7 
REMARK    2  A    between atoms: C_7  and  C_8 
REMARK    3  A    between atoms: C_8  and  N_9 
REMARK    4  A    between atoms: N_12  and  C_13 
REMARK    5  A    between atoms: C_13  and  C_14 
REMARK    6  A    between atoms: C_17  and  C_18 
REMARK       I    between atoms: C_18  and  N_19 
REMARK    7  A    between atoms: N_19  and  C_20 
REMARK    8  A    between atoms: C_20  and  C_21 
ROOT
HETATM    1  N   UNL     1      -7.873   2.875 -33.430  1.00  0.00    -0.290 N 
HETATM    2  C   UNL     1      -6.616   3.321 -33.822  1.00  0.00     0.332 C 
HETATM    3  O   UNL     1      -5.889   2.612 -34.520  1.00  0.00    -0.246 OA
HETATM    4  N   UNL     1      -6.243   4.593 -33.413  1.00  0.00    -0.261 N 
HETATM    5  C   UNL     1      -7.013   5.408 -32.593  1.00  0.00     0.264 C 
HETATM    6  O   UNL     1      -6.775   6.594 -32.376  1.00  0.00    -0.267 OA
HETATM    7  C   UNL     1      -8.215   4.805 -31.999  1.00  0.00     0.059 A 
HETATM    8  C   UNL     1      -8.650   3.564 -32.461  1.00  0.00     0.055 A 
HETATM    9  C   UNL     1      -8.945   5.519 -31.037  1.00  0.00     0.019 A 
HETATM   10  C   UNL     1     -10.124   4.988 -30.524  1.00  0.00     0.001 A 
HETATM   11  C   UNL     1     -10.575   3.753 -30.979  1.00  0.00     0.002 A 
HETATM   12  C   UNL     1      -9.846   3.047 -31.943  1.00  0.00     0.031 A 
ENDROOT
BRANCH   4  13
HETATM   13  C   UNL     1      -5.105   5.211 -34.083  1.00  0.00     0.175 C 
BRANCH  13  14
HETATM   14  C   UNL     1      -3.815   5.195 -33.292  1.00  0.00    -0.040 A 
HETATM   15  C   UNL     1      -2.968   6.311 -33.263  1.00  0.00     0.010 A 
HETATM   16  C   UNL     1      -1.831   6.320 -32.441  1.00  0.00     0.017 A 
HETATM   17  C   UNL     1      -1.522   5.205 -31.649  1.00  0.00     0.032 A 
HETATM   18  C   UNL     1      -2.356   4.083 -31.697  1.00  0.00     0.017 A 
HETATM   19  C   UNL     1      -3.487   4.076 -32.514  1.00  0.00     0.010 A 
BRANCH  17  20
HETATM   20  C   UNL     1      -0.376   5.175 -30.694  1.00  0.00     0.251 C 
HETATM   21  N   UNL     1      -0.544   5.819 -29.490  1.00  0.00    -0.353 N 
HETATM   22  H   UNL     1      -1.352   6.401 -29.326  1.00  0.00     0.163 HD
HETATM   23  O   UNL     1       0.662   4.604 -31.008  1.00  0.00    -0.268 OA
BRANCH  21  24
HETATM   24  C   UNL     1       0.506   5.846 -28.493  1.00  0.00     0.161 C 
BRANCH  24  25
HETATM   25  C   UNL     1       0.600   7.198 -27.831  1.00  0.00    -0.038 A 
HETATM   26  C   UNL     1      -0.304   8.218 -28.168  1.00  0.00     0.048 A 
HETATM   27  C   UNL     1      -0.192   9.428 -27.516  1.00  0.00     0.105 A 
HETATM   28  C   UNL     1       0.772   9.652 -26.561  1.00  0.00     0.105 A 
HETATM   29  O   UNL     1      -0.985  10.513 -27.718  1.00  0.00    -0.323 OA
HETATM   30  O   UNL     1       0.707  10.907 -26.043  1.00  0.00    -0.323 OA
HETATM   31  C   UNL     1       1.676   8.677 -26.201  1.00  0.00     0.040 A 
HETATM   32  C   UNL     1      -0.421  11.441 -26.767  1.00  0.00     0.352 A 
HETATM   33  C   UNL     1       1.582   7.437 -26.841  1.00  0.00     0.012 A 
ENDBRANCH  24  25
ENDBRANCH  21  24
ENDBRANCH  17  20
ENDBRANCH  13  14
ENDBRANCH   4  13
BRANCH   1  34
HETATM   34  C   UNL     1      -8.460   1.750 -34.170  1.00  0.00     0.237 C 
BRANCH  34  35
HETATM   35  C   UNL     1      -7.980   0.347 -33.801  1.00  0.00     0.240 C 
HETATM   36  N   UNL     1      -6.877  -0.086 -34.509  1.00  0.00    -0.326 N 
HETATM   37  H   UNL     1      -6.493   0.564 -35.185  1.00  0.00     0.169 HD
HETATM   38  O   UNL     1      -8.644  -0.322 -33.011  1.00  0.00    -0.271 OA
BRANCH  36  39
HETATM   39  C   UNL     1      -6.261  -1.354 -34.430  1.00  0.00     0.034 A 
HETATM   40  C   UNL     1      -6.848  -2.537 -34.883  1.00  0.00     0.030 A 
HETATM   41  C   UNL     1      -6.170  -3.757 -34.785  1.00  0.00     0.009 A 
HETATM   42  C   UNL     1      -4.887  -3.816 -34.236  1.00  0.00    -0.062 A 
HETATM   43  C   UNL     1      -4.166  -5.126 -34.114  1.00  0.00     0.048 C 
HETATM   44  C   UNL     1      -4.303  -2.637 -33.764  1.00  0.00     0.009 A 
HETATM   45  C   UNL     1      -4.983  -1.417 -33.865  1.00  0.00     0.030 A 
ENDBRANCH  36  39
ENDBRANCH  34  35
ENDBRANCH   1  34
TORSDOF 8
ENDMDL
MODEL 3
REMARK VINA RESULT:     -10.7      2.993     10.204
REMARK  8 active torsions:
REMARK  status: ('A' for Active; 'I' for Inactive)
REMARK    1  A    between atoms: C_5  and  N_6 
REMARK       I    between atoms: N_6  and  C_7 
REMARK    2  A    between atoms: C_7  and  C_8 
REMARK    3  A    between atoms: C_8  and  N_9 
REMARK    4  A    between atoms: N_12  and  C_13 
REMARK    5  A    between atoms: C_13  and  C_14 
REMARK    6  A    between atoms: C_17  and  C_18 
REMARK       I    between atoms: C_18  and  N_19 
REMARK    7  A    between atoms: N_19  and  C_20 
REMARK    8  A    between atoms: C_20  and  C_21 
ROOT
HETATM    1  N   UNL     1      -2.252   8.291 -29.703  1.00  0.00    -0.290 N 
HETATM    2  C   UNL     1      -3.599   8.402 -29.381  1.00  0.00     0.332 C 
HETATM    3  O   UNL     1      -4.388   8.938 -30.162  1.00  0.00    -0.246 OA
HETATM    4  N   UNL     1      -4.004   7.865 -28.168  1.00  0.00    -0.261 N 
HETATM    5  C   UNL     1      -3.144   7.290 -27.241  1.00  0.00     0.264 C 
HETATM    6  O   UNL     1      -3.512   6.656 -26.255  1.00  0.00    -0.267 OA
HETATM    7  C   UNL     1      -1.703   7.417 -27.506  1.00  0.00     0.059 A 
HETATM    8  C   UNL     1      -1.281   7.875 -28.753  1.00  0.00     0.055 A 
HETATM    9  C   UNL     1      -0.781   7.003 -26.533  1.00  0.00     0.019 A 
HETATM   10  C   UNL     1       0.583   7.050 -26.804  1.00  0.00     0.001 A 
HETATM   11  C   UNL     1       1.021   7.499 -28.046  1.00  0.00     0.002 A 
HETATM   12  C   UNL     1       0.096   7.906 -29.015  1.00  0.00     0.031 A 
ENDROOT
BRANCH   4  13
HETATM   13  C   UNL     1      -5.433   7.659 -27.964  1.00  0.00     0.175 C 
BRANCH  13  14
HETATM   14  C   UNL     1      -6.053   6.589 -28.835  1.00  0.00    -0.040 A 
HETATM   15  C   UNL     1      -5.637   5.253 -28.752  1.00  0.00     0.010 A 
HETATM   16  C   UNL     1      -6.294   4.256 -29.488  1.00  0.00     0.017 A 
HETATM   17  C   UNL     1      -7.366   4.588 -30.328  1.00  0.00     0.032 A 
HETATM   18  C   UNL     1      -7.765   5.925 -30.428  1.00  0.00     0.017 A 
HETATM   19  C   UNL     1      -7.112   6.915 -29.695  1.00  0.00     0.010 A 
BRANCH  17  20
HETATM   20  C   UNL     1      -8.160   3.571 -31.077  1.00  0.00     0.251 C 
HETATM   21  N   UNL     1      -8.029   2.257 -30.687  1.00  0.00    -0.353 N 
HETATM   22  H   UNL     1      -7.321   1.988 -30.021  1.00  0.00     0.163 HD
HETATM   23  O   UNL     1      -8.878   3.924 -32.006  1.00  0.00    -0.268 OA
BRANCH  21  24
HETATM   24  C   UNL     1      -8.758   1.196 -31.348  1.00  0.00     0.161 C 
BRANCH  24  25
HETATM   25  C   UNL     1      -7.832   0.302 -32.135  1.00  0.00    -0.038 A 
HETATM   26  C   UNL     1      -6.540   0.025 -31.662  1.00  0.00     0.048 A 
HETATM   27  C   UNL     1      -5.742  -0.819 -32.407  1.00  0.00     0.105 A 
HETATM   28  C   UNL     1      -6.178  -1.381 -33.583  1.00  0.00     0.105 A 
HETATM   29  O   UNL     1      -4.474  -1.193 -32.090  1.00  0.00    -0.323 OA
HETATM   30  O   UNL     1      -5.238  -2.180 -34.156  1.00  0.00    -0.323 OA
HETATM   31  C   UNL     1      -7.439  -1.135 -34.080  1.00  0.00     0.040 A 
HETATM   32  C   UNL     1      -4.168  -2.070 -33.195  1.00  0.00     0.352 A 
HETATM   33  C   UNL     1      -8.273  -0.289 -33.343  1.00  0.00     0.012 A 
ENDBRANCH  24  25
ENDBRANCH  21  24
ENDBRANCH  17  20
ENDBRANCH  13  14
ENDBRANCH   4  13
BRANCH   1  34
HETATM   34  C   UNL     1      -1.870   8.455 -31.112  1.00  0.00     0.237 C 
BRANCH  34  35
HETATM   35  C   UNL     1      -2.468   7.470 -32.116  1.00  0.00     0.240 C 
HETATM   36  N   UNL     1      -3.469   6.668 -31.604  1.00  0.00    -0.326 N 
HETATM   37  H   UNL     1      -3.712   6.818 -30.632  1.00  0.00     0.169 HD
HETATM   38  O   UNL     1      -1.967   7.380 -33.235  1.00  0.00    -0.271 OA
BRANCH  36  39
HETATM   39  C   UNL     1      -4.150   5.628 -32.274  1.00  0.00     0.034 A 
HETATM   40  C   UNL     1      -3.801   4.280 -32.183  1.00  0.00     0.030 A 
HETATM   41  C   UNL     1      -4.534   3.301 -32.864  1.00  0.00     0.009 A 
HETATM   42  C   UNL     1      -5.634   3.654 -33.648  1.00  0.00    -0.062 A 
HETATM   43  C   UNL     1      -6.409   2.609 -34.394  1.00  0.00     0.048 C 
HETATM   44  C   UNL     1      -5.976   5.006 -33.758  1.00  0.00     0.009 A 
HETATM   45  C   UNL     1      -5.243   5.983 -33.073  1.00  0.00     0.030 A 
ENDBRANCH  36  39
ENDBRANCH  34  35
ENDBRANCH   1  34
TORSDOF 8
ENDMDL
MODEL 4
REMARK VINA RESULT:     -10.6      3.000      6.090
REMARK  8 active torsions:
REMARK  status: ('A' for Active; 'I' for Inactive)
REMARK    1  A    between atoms: C_5  and  N_6 
REMARK       I    between atoms: N_6  and  C_7 
REMARK    2  A    between atoms: C_7  and  C_8 
REMARK    3  A    between atoms: C_8  and  N_9 
REMARK    4  A    between atoms: N_12  and  C_13 
REMARK    5  A    between atoms: C_13  and  C_14 
REMARK    6  A    between atoms: C_17  and  C_18 
REMARK       I    between atoms: C_18  and  N_19 
REMARK    7  A    between atoms: N_19  and  C_20 
REMARK    8  A    between atoms: C_20  and  C_21 
ROOT
HETATM    1  N   UNL     1      -5.529  -0.238 -31.660  1.00  0.00    -0.290 N 
HETATM    2  C   UNL     1      -6.612   0.468 -31.148  1.00  0.00     0.332 C 
HETATM    3  O   UNL     1      -6.526   1.044 -30.062  1.00  0.00    -0.246 OA
HETATM    4  N   UNL     1      -7.761   0.509 -31.924  1.00  0.00    -0.261 N 
HETATM    5  C   UNL     1      -7.913  -0.158 -33.132  1.00  0.00     0.264 C 
HETATM    6  O   UNL     1      -8.852   0.017 -33.906  1.00  0.00    -0.267 OA
HETATM    7  C   UNL     1      -6.843  -1.091 -33.514  1.00  0.00     0.059 A 
HETATM    8  C   UNL     1      -5.649  -1.083 -32.795  1.00  0.00     0.055 A 
HETATM    9  C   UNL     1      -7.010  -1.915 -34.637  1.00  0.00     0.019 A 
HETATM   10  C   UNL     1      -5.974  -2.747 -35.049  1.00  0.00     0.001 A 
HETATM   11  C   UNL     1      -4.774  -2.747 -34.347  1.00  0.00     0.002 A 
HETATM   12  C   UNL     1      -4.610  -1.919 -33.230  1.00  0.00     0.031 A 
ENDROOT
BRANCH   4  13
HETATM   13  C   UNL     1      -8.768   1.507 -31.585  1.00  0.00     0.175 C 
BRANCH  13  14
HETATM   14  C   UNL     1      -8.268   2.935 -31.565  1.00  0.00    -0.040 A 
HETATM   15  C   UNL     1      -8.480   3.764 -30.455  1.00  0.00     0.010 A 
HETATM   16  C   UNL     1      -7.919   5.048 -30.408  1.00  0.00     0.017 A 
HETATM   17  C   UNL     1      -7.149   5.524 -31.478  1.00  0.00     0.032 A 
HETATM   18  C   UNL     1      -6.958   4.705 -32.596  1.00  0.00     0.017 A 
HETATM   19  C   UNL     1      -7.515   3.427 -32.642  1.00  0.00     0.010 A 
BRANCH  17  20
HETATM   20  C   UNL     1      -6.457   6.846 -31.463  1.00  0.00     0.251 C 
HETATM   21  N   UNL     1      -5.105   6.845 -31.207  1.00  0.00    -0.353 N 
HETATM   22  H   UNL     1      -4.640   6.003 -30.906  1.00  0.00     0.163 HD
HETATM   23  O   UNL     1      -7.100   7.871 -31.659  1.00  0.00    -0.268 OA
BRANCH  21  24
HETATM   24  C   UNL     1      -4.341   8.074 -31.172  1.00  0.00     0.161 C 
BRANCH  24  25
HETATM   25  C   UNL     1      -3.382   8.092 -30.009  1.00  0.00    -0.038 A 
HETATM   26  C   UNL     1      -3.701   7.424 -28.816  1.00  0.00     0.048 A 
HETATM   27  C   UNL     1      -2.780   7.449 -27.790  1.00  0.00     0.105 A 
HETATM   28  C   UNL     1      -1.578   8.105 -27.909  1.00  0.00     0.105 A 
HETATM   29  O   UNL     1      -2.928   6.852 -26.577  1.00  0.00    -0.323 OA
HETATM   30  O   UNL     1      -0.818   8.005 -26.786  1.00  0.00    -0.323 OA
HETATM   31  C   UNL     1      -1.226   8.770 -29.063  1.00  0.00     0.040 A 
HETATM   32  C   UNL     1      -1.672   7.194 -25.953  1.00  0.00     0.352 A 
HETATM   33  C   UNL     1      -2.138   8.757 -30.123  1.00  0.00     0.012 A 
ENDBRANCH  24  25
ENDBRANCH  21  24
ENDBRANCH  17  20
ENDBRANCH  13  14
ENDBRANCH   4  13
BRANCH   1  34
HETATM   34  C   UNL     1      -4.203   0.040 -31.094  1.00  0.00     0.237 C 
BRANCH  34  35
HETATM   35  C   UNL     1      -3.354   1.100 -31.797  1.00  0.00     0.240 C 
HETATM   36  N   UNL     1      -3.656   2.400 -31.445  1.00  0.00    -0.326 N 
HETATM   37  H   UNL     1      -4.391   2.521 -30.758  1.00  0.00     0.169 HD
HETATM   38  O   UNL     1      -2.567   0.750 -32.674  1.00  0.00    -0.271 OA
BRANCH  36  39
HETATM   39  C   UNL     1      -3.089   3.578 -31.978  1.00  0.00     0.034 A 
HETATM   40  C   UNL     1      -3.447   4.130 -33.210  1.00  0.00     0.030 A 
HETATM   41  C   UNL     1      -2.851   5.311 -33.667  1.00  0.00     0.009 A 
HETATM   42  C   UNL     1      -1.887   5.965 -32.898  1.00  0.00    -0.062 A 
HETATM   43  C   UNL     1      -1.234   7.220 -33.395  1.00  0.00     0.048 C 
HETATM   44  C   UNL     1      -1.511   5.406 -31.673  1.00  0.00     0.009 A 
HETATM   45  C   UNL     1      -2.110   4.226 -31.215  1.00  0.00     0.030 A 
ENDBRANCH  36  39
ENDBRANCH  34  35
ENDBRANCH   1  34
TORSDOF 8
ENDMDL
MODEL 5
REMARK VINA RESULT:     -10.5      2.743      5.954
REMARK  8 active torsions:
REMARK  status: ('A' for Active; 'I' for Inactive)
REMARK    1  A    between atoms: C_5  and  N_6 
REMARK       I    between atoms: N_6  and  C_7 
REMARK    2  A    between atoms: C_7  and  C_8 
REMARK    3  A    between atoms: C_8  and  N_9 
REMARK    4  A    between atoms: N_12  and  C_13 
REMARK    5  A    between atoms: C_13  and  C_14 
REMARK    6  A    between atoms: C_17  and  C_18 
REMARK       I    between atoms: C_18  and  N_19 
REMARK    7  A    between atoms: N_19  and  C_20 
REMARK    8  A    between atoms: C_20  and  C_21 
ROOT
HETATM    1  N   UNL     1      -6.001   0.582 -31.599  1.00  0.00    -0.290 N 
HETATM    2  C   UNL     1      -6.550   1.448 -30.660  1.00  0.00     0.332 C 
HETATM    3  O   UNL     1      -6.071   1.528 -29.528  1.00  0.00    -0.246 OA
HETATM    4  N   UNL     1      -7.627   2.220 -31.068  1.00  0.00    -0.261 N 
HETATM    5  C   UNL     1      -8.223   2.132 -32.320  1.00  0.00     0.264 C 
HETATM    6  O   UNL     1      -9.053   2.931 -32.749  1.00  0.00    -0.267 OA
HETATM    7  C   UNL     1      -7.777   1.035 -33.191  1.00  0.00     0.059 A 
HETATM    8  C   UNL     1      -6.644   0.306 -32.836  1.00  0.00     0.055 A 
HETATM    9  C   UNL     1      -8.449   0.793 -34.399  1.00  0.00     0.019 A 
HETATM   10  C   UNL     1      -7.989  -0.195 -35.264  1.00  0.00     0.001 A 
HETATM   11  C   UNL     1      -6.856  -0.928 -34.927  1.00  0.00     0.002 A 
HETATM   12  C   UNL     1      -6.185  -0.678 -33.724  1.00  0.00     0.031 A 
ENDROOT
BRANCH   4  13
HETATM   13  C   UNL     1      -7.993   3.361 -30.238  1.00  0.00     0.175 C 
BRANCH  13  14
HETATM   14  C   UNL     1      -7.040   4.534 -30.313  1.00  0.00    -0.040 A 
HETATM   15  C   UNL     1      -6.457   5.071 -29.157  1.00  0.00     0.010 A 
HETATM   16  C   UNL     1      -5.495   6.087 -29.252  1.00  0.00     0.017 A 
HETATM   17  C   UNL     1      -5.116   6.588 -30.505  1.00  0.00     0.032 A 
HETATM   18  C   UNL     1      -5.717   6.068 -31.657  1.00  0.00     0.017 A 
HETATM   19  C   UNL     1      -6.672   5.057 -31.561  1.00  0.00     0.010 A 
BRANCH  17  20
HETATM   20  C   UNL     1      -4.045   7.611 -30.686  1.00  0.00     0.251 C 
HETATM   21  N   UNL     1      -3.450   8.106 -29.548  1.00  0.00    -0.353 N 
HETATM   22  H   UNL     1      -3.823   7.888 -28.637  1.00  0.00     0.163 HD
HETATM   23  O   UNL     1      -3.743   7.983 -31.814  1.00  0.00    -0.268 OA
BRANCH  21  24
HETATM   24  C   UNL     1      -2.398   9.099 -29.615  1.00  0.00     0.161 C 
BRANCH  24  25
HETATM   25  C   UNL     1      -1.210   8.697 -28.777  1.00  0.00    -0.038 A 
HETATM   26  C   UNL     1      -0.944   9.351 -27.563  1.00  0.00     0.048 A 
HETATM   27  C   UNL     1       0.140   8.929 -26.821  1.00  0.00     0.105 A 
HETATM   28  C   UNL     1       0.951   7.902 -27.240  1.00  0.00     0.105 A 
HETATM   29  O   UNL     1       0.533   9.448 -25.628  1.00  0.00    -0.323 OA
HETATM   30  O   UNL     1       1.958   7.645 -26.363  1.00  0.00    -0.323 OA
HETATM   31  C   UNL     1       0.723   7.234 -28.423  1.00  0.00     0.040 A 
HETATM   32  C   UNL     1       1.675   8.617 -25.335  1.00  0.00     0.352 A 
HETATM   33  C   UNL     1      -0.373   7.635 -29.193  1.00  0.00     0.012 A 
ENDBRANCH  24  25
ENDBRANCH  21  24
ENDBRANCH  17  20
ENDBRANCH  13  14
ENDBRANCH   4  13
BRANCH   1  34
HETATM   34  C   UNL     1      -4.644   0.079 -31.355  1.00  0.00     0.237 C 
BRANCH  34  35
HETATM   35  C   UNL     1      -3.502   1.094 -31.418  1.00  0.00     0.240 C 
HETATM   36  N   UNL     1      -3.855   2.320 -31.946  1.00  0.00    -0.326 N 
HETATM   37  H   UNL     1      -4.824   2.428 -32.224  1.00  0.00     0.169 HD
HETATM   38  O   UNL     1      -2.367   0.736 -31.113  1.00  0.00    -0.271 OA
BRANCH  36  39
HETATM   39  C   UNL     1      -3.001   3.418 -32.189  1.00  0.00     0.034 A 
HETATM   40  C   UNL     1      -2.755   3.951 -33.456  1.00  0.00     0.030 A 
HETATM   41  C   UNL     1      -1.906   5.052 -33.618  1.00  0.00     0.009 A 
HETATM   42  C   UNL     1      -1.291   5.644 -32.514  1.00  0.00    -0.062 A 
HETATM   43  C   UNL     1      -0.367   6.813 -32.688  1.00  0.00     0.048 C 
HETATM   44  C   UNL     1      -1.520   5.102 -31.245  1.00  0.00     0.009 A 
HETATM   45  C   UNL     1      -2.371   4.002 -31.085  1.00  0.00     0.030 A 
ENDBRANCH  36  39
ENDBRANCH  34  35
ENDBRANCH   1  34
TORSDOF 8
ENDMDL
MODEL 6
REMARK VINA RESULT:     -10.1      2.444      5.889
REMARK  8 active torsions:
REMARK  status: ('A' for Active; 'I' for Inactive)
REMARK    1  A    between atoms: C_5  and  N_6 
REMARK       I    between atoms: N_6  and  C_7 
REMARK    2  A    between atoms: C_7  and  C_8 
REMARK    3  A    between atoms: C_8  and  N_9 
REMARK    4  A    between atoms: N_12  and  C_13 
REMARK    5  A    between atoms: C_13  and  C_14 
REMARK    6  A    between atoms: C_17  and  C_18 
REMARK       I    between atoms: C_18  and  N_19 
REMARK    7  A    between atoms: N_19  and  C_20 
REMARK    8  A    between atoms: C_20  and  C_21 
ROOT
HETATM    1  N   UNL     1      -8.471   2.175 -31.526  1.00  0.00    -0.290 N 
HETATM    2  C   UNL     1      -8.323   3.072 -30.474  1.00  0.00     0.332 C 
HETATM    3  O   UNL     1      -7.513   2.851 -29.572  1.00  0.00    -0.246 OA
HETATM    4  N   UNL     1      -9.104   4.217 -30.508  1.00  0.00    -0.261 N 
HETATM    5  C   UNL     1     -10.057   4.486 -31.482  1.00  0.00     0.264 C 
HETATM    6  O   UNL     1     -10.619   5.570 -31.621  1.00  0.00    -0.267 OA
HETATM    7  C   UNL     1     -10.358   3.404 -32.431  1.00  0.00     0.059 A 
HETATM    8  C   UNL     1      -9.530   2.283 -32.466  1.00  0.00     0.055 A 
HETATM    9  C   UNL     1     -11.421   3.551 -33.335  1.00  0.00     0.019 A 
HETATM   10  C   UNL     1     -11.667   2.565 -34.285  1.00  0.00     0.001 A 
HETATM   11  C   UNL     1     -10.847   1.442 -34.337  1.00  0.00     0.002 A 
HETATM   12  C   UNL     1      -9.784   1.303 -33.437  1.00  0.00     0.031 A 
ENDROOT
BRANCH   4  13
HETATM   13  C   UNL     1      -8.729   5.316 -29.626  1.00  0.00     0.175 C 
BRANCH  13  14
HETATM   14  C   UNL     1      -7.330   5.852 -29.836  1.00  0.00    -0.040 A 
HETATM   15  C   UNL     1      -6.367   5.785 -28.820  1.00  0.00     0.010 A 
HETATM   16  C   UNL     1      -5.046   6.188 -29.064  1.00  0.00     0.017 A 
HETATM   17  C   UNL     1      -4.677   6.677 -30.325  1.00  0.00     0.032 A 
HETATM   18  C   UNL     1      -5.645   6.766 -31.331  1.00  0.00     0.017 A 
HETATM   19  C   UNL     1      -6.958   6.364 -31.087  1.00  0.00     0.010 A 
BRANCH  17  20
HETATM   20  C   UNL     1      -3.276   7.048 -30.679  1.00  0.00     0.251 C 
HETATM   21  N   UNL     1      -2.281   6.645 -29.817  1.00  0.00    -0.353 N 
HETATM   22  H   UNL     1      -2.510   6.242 -28.922  1.00  0.00     0.163 HD
HETATM   23  O   UNL     1      -3.057   7.700 -31.694  1.00  0.00    -0.268 OA
BRANCH  21  24
HETATM   24  C   UNL     1      -0.890   6.952 -30.071  1.00  0.00     0.161 C 
BRANCH  24  25
HETATM   25  C   UNL     1      -0.335   7.889 -29.028  1.00  0.00    -0.038 A 
HETATM   26  C   UNL     1      -1.153   8.872 -28.450  1.00  0.00     0.048 A 
HETATM   27  C   UNL     1      -0.606   9.688 -27.482  1.00  0.00     0.105 A 
HETATM   28  C   UNL     1       0.703   9.561 -27.081  1.00  0.00     0.105 A 
HETATM   29  O   UNL     1      -1.258  10.682 -26.822  1.00  0.00    -0.323 OA
HETATM   30  O   UNL     1       1.040  10.460 -26.117  1.00  0.00    -0.323 OA
HETATM   31  C   UNL     1       1.538   8.608 -27.621  1.00  0.00     0.040 A 
HETATM   32  C   UNL     1      -0.213  11.155 -25.945  1.00  0.00     0.352 A 
HETATM   33  C   UNL     1       1.008   7.762 -28.600  1.00  0.00     0.012 A 
ENDBRANCH  24  25
ENDBRANCH  21  24
ENDBRANCH  17  20
ENDBRANCH  13  14
ENDBRANCH   4  13
BRANCH   1  34
HETATM   34  C   UNL     1      -7.398   1.196 -31.745  1.00  0.00     0.237 C 
BRANCH  34  35
HETATM   35  C   UNL     1      -6.184   1.661 -32.548  1.00  0.00     0.240 C 
HETATM   36  N   UNL     1      -5.749   2.935 -32.242  1.00  0.00    -0.326 N 
HETATM   37  H   UNL     1      -6.263   3.425 -31.519  1.00  0.00     0.169 HD
HETATM   38  O   UNL     1      -5.757   0.946 -33.453  1.00  0.00    -0.271 OA
BRANCH  36  39
HETATM   39  C   UNL     1      -4.702   3.648 -32.866  1.00  0.00     0.034 A 
HETATM   40  C   UNL     1      -4.873   4.474 -33.979  1.00  0.00     0.030 A 
HETATM   41  C   UNL     1      -3.788   5.162 -34.535  1.00  0.00     0.009 A 
HETATM   42  C   UNL     1      -2.511   5.039 -33.984  1.00  0.00    -0.062 A 
HETATM   43  C   UNL     1      -1.344   5.761 -34.591  1.00  0.00     0.048 C 
HETATM   44  C   UNL     1      -2.331   4.198 -32.883  1.00  0.00     0.009 A 
HETATM   45  C   UNL     1      -3.418   3.512 -32.326  1.00  0.00     0.030 A 
ENDBRANCH  36  39
ENDBRANCH  34  35
ENDBRANCH   1  34
TORSDOF 8
ENDMDL
MODEL 7
REMARK VINA RESULT:     -10.0      4.558     11.136
REMARK  8 active torsions:
REMARK  status: ('A' for Active; 'I' for Inactive)
REMARK    1  A    between atoms: C_5  and  N_6 
REMARK       I    between atoms: N_6  and  C_7 
REMARK    2  A    between atoms: C_7  and  C_8 
REMARK    3  A    between atoms: C_8  and  N_9 
REMARK    4  A    between atoms: N_12  and  C_13 
REMARK    5  A    between atoms: C_13  and  C_14 
REMARK    6  A    between atoms: C_17  and  C_18 
REMARK       I    between atoms: C_18  and  N_19 
REMARK    7  A    between atoms: N_19  and  C_20 
REMARK    8  A    between atoms: C_20  and  C_21 
ROOT
HETATM    1  N   UNL     1      -4.512   2.769 -31.658  1.00  0.00    -0.290 N 
HETATM    2  C   UNL     1      -5.810   2.878 -31.173  1.00  0.00     0.332 C 
HETATM    3  O   UNL     1      -6.356   1.917 -30.627  1.00  0.00    -0.246 OA
HETATM    4  N   UNL     1      -6.434   4.108 -31.312  1.00  0.00    -0.261 N 
HETATM    5  C   UNL     1      -5.872   5.202 -31.956  1.00  0.00     0.264 C 
HETATM    6  O   UNL     1      -6.338   6.339 -31.926  1.00  0.00    -0.267 OA
HETATM    7  C   UNL     1      -4.607   4.973 -32.671  1.00  0.00     0.059 A 
HETATM    8  C   UNL     1      -3.925   3.774 -32.473  1.00  0.00     0.055 A 
HETATM    9  C   UNL     1      -4.071   5.991 -33.474  1.00  0.00     0.019 A 
HETATM   10  C   UNL     1      -2.838   5.810 -34.094  1.00  0.00     0.001 A 
HETATM   11  C   UNL     1      -2.142   4.621 -33.903  1.00  0.00     0.002 A 
HETATM   12  C   UNL     1      -2.679   3.610 -33.096  1.00  0.00     0.031 A 
ENDROOT
BRANCH   4  13
HETATM   13  C   UNL     1      -7.635   4.349 -30.521  1.00  0.00     0.175 C 
BRANCH  13  14
HETATM   14  C   UNL     1      -8.937   4.082 -31.243  1.00  0.00    -0.040 A 
HETATM   15  C   UNL     1      -8.961   3.415 -32.476  1.00  0.00     0.010 A 
HETATM   16  C   UNL     1     -10.182   3.080 -33.080  1.00  0.00     0.017 A 
HETATM   17  C   UNL     1     -11.394   3.421 -32.464  1.00  0.00     0.032 A 
HETATM   18  C   UNL     1     -11.369   4.108 -31.245  1.00  0.00     0.017 A 
HETATM   19  C   UNL     1     -10.154   4.439 -30.645  1.00  0.00     0.010 A 
BRANCH  17  20
HETATM   20  C   UNL     1     -12.726   3.028 -33.009  1.00  0.00     0.251 C 
HETATM   21  N   UNL     1     -13.638   2.503 -32.122  1.00  0.00    -0.353 N 
HETATM   22  H   UNL     1     -13.363   2.268 -31.181  1.00  0.00     0.163 HD
HETATM   23  O   UNL     1     -12.958   3.165 -34.205  1.00  0.00    -0.268 OA
BRANCH  21  24
HETATM   24  C   UNL     1     -14.959   2.094 -32.550  1.00  0.00     0.161 C 
BRANCH  24  25
HETATM   25  C   UNL     1     -16.007   3.093 -32.128  1.00  0.00    -0.038 A 
HETATM   26  C   UNL     1     -15.641   4.403 -31.783  1.00  0.00     0.048 A 
HETATM   27  C   UNL     1     -16.639   5.286 -31.428  1.00  0.00     0.105 A 
HETATM   28  C   UNL     1     -17.962   4.914 -31.403  1.00  0.00     0.105 A 
HETATM   29  O   UNL     1     -16.458   6.586 -31.073  1.00  0.00    -0.323 OA
HETATM   30  O   UNL     1     -18.781   5.934 -31.028  1.00  0.00    -0.323 OA
HETATM   31  C   UNL     1     -18.363   3.639 -31.736  1.00  0.00     0.040 A 
HETATM   32  C   UNL     1     -17.822   6.995 -30.839  1.00  0.00     0.352 A 
HETATM   33  C   UNL     1     -17.373   2.724 -32.106  1.00  0.00     0.012 A 
ENDBRANCH  24  25
ENDBRANCH  21  24
ENDBRANCH  17  20
ENDBRANCH  13  14
ENDBRANCH   4  13
BRANCH   1  34
HETATM   34  C   UNL     1      -3.689   1.656 -31.166  1.00  0.00     0.237 C 
BRANCH  34  35
HETATM   35  C   UNL     1      -3.707   0.364 -31.982  1.00  0.00     0.240 C 
HETATM   36  N   UNL     1      -4.917   0.084 -32.585  1.00  0.00    -0.326 N 
HETATM   37  H   UNL     1      -5.659   0.758 -32.439  1.00  0.00     0.169 HD
HETATM   38  O   UNL     1      -2.720  -0.370 -31.960  1.00  0.00    -0.271 OA
BRANCH  36  39
HETATM   39  C   UNL     1      -5.245  -1.065 -33.337  1.00  0.00     0.034 A 
HETATM   40  C   UNL     1      -4.304  -1.965 -33.840  1.00  0.00     0.030 A 
HETATM   41  C   UNL     1      -4.706  -3.093 -34.565  1.00  0.00     0.009 A 
HETATM   42  C   UNL     1      -6.060  -3.344 -34.797  1.00  0.00    -0.062 A 
HETATM   43  C   UNL     1      -6.492  -4.542 -35.589  1.00  0.00     0.048 C 
HETATM   44  C   UNL     1      -7.005  -2.435 -34.311  1.00  0.00     0.009 A 
HETATM   45  C   UNL     1      -6.601  -1.309 -33.584  1.00  0.00     0.030 A 
ENDBRANCH  36  39
ENDBRANCH  34  35
ENDBRANCH   1  34
TORSDOF 8
ENDMDL
MODEL 8
REMARK VINA RESULT:      -9.9      4.002     10.195
REMARK  8 active torsions:
REMARK  status: ('A' for Active; 'I' for Inactive)
REMARK    1  A    between atoms: C_5  and  N_6 
REMARK       I    between atoms: N_6  and  C_7 
REMARK    2  A    between atoms: C_7  and  C_8 
REMARK    3  A    between atoms: C_8  and  N_9 
REMARK    4  A    between atoms: N_12  and  C_13 
REMARK    5  A    between atoms: C_13  and  C_14 
REMARK    6  A    between atoms: C_17  and  C_18 
REMARK       I    between atoms: C_18  and  N_19 
REMARK    7  A    between atoms: N_19  and  C_20 
REMARK    8  A    between atoms: C_20  and  C_21 
ROOT
HETATM    1  N   UNL     1      -4.851   5.503 -30.853  1.00  0.00    -0.290 N 
HETATM    2  C   UNL     1      -5.177   4.237 -30.381  1.00  0.00     0.332 C 
HETATM    3  O   UNL     1      -6.043   4.095 -29.516  1.00  0.00    -0.246 OA
HETATM    4  N   UNL     1      -4.505   3.162 -30.944  1.00  0.00    -0.261 N 
HETATM    5  C   UNL     1      -3.495   3.280 -31.890  1.00  0.00     0.264 C 
HETATM    6  O   UNL     1      -3.025   2.336 -32.523  1.00  0.00    -0.267 OA
HETATM    7  C   UNL     1      -3.009   4.638 -32.176  1.00  0.00     0.059 A 
HETATM    8  C   UNL     1      -3.723   5.730 -31.687  1.00  0.00     0.055 A 
HETATM    9  C   UNL     1      -1.885   4.813 -32.998  1.00  0.00     0.019 A 
HETATM   10  C   UNL     1      -1.463   6.095 -33.333  1.00  0.00     0.001 A 
HETATM   11  C   UNL     1      -2.168   7.196 -32.858  1.00  0.00     0.002 A 
HETATM   12  C   UNL     1      -3.292   7.016 -32.044  1.00  0.00     0.031 A 
ENDROOT
BRANCH   4  13
HETATM   13  C   UNL     1      -5.059   1.831 -30.728  1.00  0.00     0.175 C 
BRANCH  13  14
HETATM   14  C   UNL     1      -6.347   1.549 -31.470  1.00  0.00    -0.040 A 
HETATM   15  C   UNL     1      -7.568   1.439 -30.790  1.00  0.00     0.010 A 
HETATM   16  C   UNL     1      -8.767   1.284 -31.501  1.00  0.00     0.017 A 
HETATM   17  C   UNL     1      -8.756   1.223 -32.901  1.00  0.00     0.032 A 
HETATM   18  C   UNL     1      -7.535   1.309 -33.578  1.00  0.00     0.017 A 
HETATM   19  C   UNL     1      -6.343   1.465 -32.869  1.00  0.00     0.010 A 
BRANCH  17  20
HETATM   20  C   UNL     1      -9.998   1.139 -33.724  1.00  0.00     0.251 C 
HETATM   21  N   UNL     1     -11.160   0.789 -33.075  1.00  0.00    -0.353 N 
HETATM   22  H   UNL     1     -11.138   0.468 -32.120  1.00  0.00     0.163 HD
HETATM   23  O   UNL     1      -9.946   1.364 -34.928  1.00  0.00    -0.268 OA
BRANCH  21  24
HETATM   24  C   UNL     1     -12.419   0.682 -33.782  1.00  0.00     0.161 C 
BRANCH  24  25
HETATM   25  C   UNL     1     -13.448   1.627 -33.215  1.00  0.00    -0.038 A 
HETATM   26  C   UNL     1     -14.816   1.323 -33.305  1.00  0.00     0.048 A 
HETATM   27  C   UNL     1     -15.717   2.207 -32.748  1.00  0.00     0.105 A 
HETATM   28  C   UNL     1     -15.309   3.360 -32.120  1.00  0.00     0.105 A 
HETATM   29  O   UNL     1     -17.069   2.063 -32.742  1.00  0.00    -0.323 OA
HETATM   30  O   UNL     1     -16.354   4.088 -31.641  1.00  0.00    -0.323 OA
HETATM   31  C   UNL     1     -13.977   3.694 -32.009  1.00  0.00     0.040 A 
HETATM   32  C   UNL     1     -17.464   3.250 -32.023  1.00  0.00     0.352 A 
HETATM   33  C   UNL     1     -13.040   2.813 -32.559  1.00  0.00     0.012 A 
ENDBRANCH  24  25
ENDBRANCH  21  24
ENDBRANCH  17  20
ENDBRANCH  13  14
ENDBRANCH   4  13
BRANCH   1  34
HETATM   34  C   UNL     1      -5.804   6.592 -30.602  1.00  0.00     0.237 C 
BRANCH  34  35
HETATM   35  C   UNL     1      -6.934   6.776 -31.615  1.00  0.00     0.240 C 
HETATM   36  N   UNL     1      -7.841   5.736 -31.655  1.00  0.00    -0.326 N 
HETATM   37  H   UNL     1      -7.677   4.971 -31.012  1.00  0.00     0.169 HD
HETATM   38  O   UNL     1      -6.904   7.743 -32.374  1.00  0.00    -0.271 OA
BRANCH  36  39
HETATM   39  C   UNL     1      -8.939   5.600 -32.533  1.00  0.00     0.034 A 
HETATM   40  C   UNL     1     -10.215   6.101 -32.271  1.00  0.00     0.030 A 
HETATM   41  C   UNL     1     -11.253   5.941 -33.196  1.00  0.00     0.009 A 
HETATM   42  C   UNL     1     -11.031   5.280 -34.405  1.00  0.00    -0.062 A 
HETATM   43  C   UNL     1     -12.146   5.091 -35.390  1.00  0.00     0.048 C 
HETATM   44  C   UNL     1      -9.759   4.758 -34.664  1.00  0.00     0.009 A 
HETATM   45  C   UNL     1      -8.722   4.922 -33.737  1.00  0.00     0.030 A 
ENDBRANCH  36  39
ENDBRANCH  34  35
ENDBRANCH   1  34
TORSDOF 8
ENDMDL
MODEL 9
REMARK VINA RESULT:      -9.8      2.926     10.480
REMARK  8 active torsions:
REMARK  status: ('A' for Active; 'I' for Inactive)
REMARK    1  A    between atoms: C_5  and  N_6 
REMARK       I    between atoms: N_6  and  C_7 
REMARK    2  A    between atoms: C_7  and  C_8 
REMARK    3  A    between atoms: C_8  and  N_9 
REMARK    4  A    between atoms: N_12  and  C_13 
REMARK    5  A    between atoms: C_13  and  C_14 
REMARK    6  A    between atoms: C_17  and  C_18 
REMARK       I    between atoms: C_18  and  N_19 
REMARK    7  A    between atoms: N_19  and  C_20 
REMARK    8  A    between atoms: C_20  and  C_21 
ROOT
HETATM    1  N   UNL     1      -1.369   7.801 -30.618  1.00  0.00    -0.290 N 
HETATM    2  C   UNL     1      -2.550   8.447 -30.963  1.00  0.00     0.332 C 
HETATM    3  O   UNL     1      -2.980   8.392 -32.116  1.00  0.00    -0.246 OA
HETATM    4  N   UNL     1      -3.218   9.121 -29.952  1.00  0.00    -0.261 N 
HETATM    5  C   UNL     1      -2.749   9.243 -28.650  1.00  0.00     0.264 C 
HETATM    6  O   UNL     1      -3.413   9.679 -27.712  1.00  0.00    -0.267 OA
HETATM    7  C   UNL     1      -1.384   8.763 -28.389  1.00  0.00     0.059 A 
HETATM    8  C   UNL     1      -0.733   8.010 -29.365  1.00  0.00     0.055 A 
HETATM    9  C   UNL     1      -0.792   9.003 -27.140  1.00  0.00     0.019 A 
HETATM   10  C   UNL     1       0.470   8.489 -26.859  1.00  0.00     0.001 A 
HETATM   11  C   UNL     1       1.132   7.730 -27.820  1.00  0.00     0.002 A 
HETATM   12  C   UNL     1       0.534   7.489 -29.063  1.00  0.00     0.031 A 
ENDROOT
BRANCH   4  13
HETATM   13  C   UNL     1      -4.603   9.504 -30.196  1.00  0.00     0.175 C 
BRANCH  13  14
HETATM   14  C   UNL     1      -5.565   8.347 -30.352  1.00  0.00    -0.040 A 
HETATM   15  C   UNL     1      -5.778   7.433 -29.311  1.00  0.00     0.010 A 
HETATM   16  C   UNL     1      -6.751   6.430 -29.432  1.00  0.00     0.017 A 
HETATM   17  C   UNL     1      -7.512   6.320 -30.604  1.00  0.00     0.032 A 
HETATM   18  C   UNL     1      -7.282   7.218 -31.652  1.00  0.00     0.017 A 
HETATM   19  C   UNL     1      -6.316   8.216 -31.530  1.00  0.00     0.010 A 
BRANCH  17  20
HETATM   20  C   UNL     1      -8.615   5.330 -30.771  1.00  0.00     0.251 C 
HETATM   21  N   UNL     1      -8.318   4.009 -30.525  1.00  0.00    -0.353 N 
HETATM   22  H   UNL     1      -7.364   3.716 -30.378  1.00  0.00     0.163 HD
HETATM   23  O   UNL     1      -9.725   5.710 -31.129  1.00  0.00    -0.268 OA
BRANCH  21  24
HETATM   24  C   UNL     1      -9.318   2.971 -30.655  1.00  0.00     0.161 C 
BRANCH  24  25
HETATM   25  C   UNL     1      -8.978   2.018 -31.774  1.00  0.00    -0.038 A 
HETATM   26  C   UNL     1      -8.062   2.392 -32.771  1.00  0.00     0.048 A 
HETATM   27  C   UNL     1      -7.766   1.475 -33.758  1.00  0.00     0.105 A 
HETATM   28  C   UNL     1      -8.340   0.226 -33.786  1.00  0.00     0.105 A 
HETATM   29  O   UNL     1      -6.902   1.673 -34.789  1.00  0.00    -0.323 OA
HETATM   30  O   UNL     1      -7.910  -0.519 -34.839  1.00  0.00    -0.323 OA
HETATM   31  C   UNL     1      -9.241  -0.179 -32.826  1.00  0.00     0.040 A 
HETATM   32  C   UNL     1      -6.985   0.398 -35.460  1.00  0.00     0.352 A 
HETATM   33  C   UNL     1      -9.556   0.727 -31.809  1.00  0.00     0.012 A 
ENDBRANCH  24  25
ENDBRANCH  21  24
ENDBRANCH  17  20
ENDBRANCH  13  14
ENDBRANCH   4  13
BRANCH   1  34
HETATM   34  C   UNL     1      -0.872   6.756 -31.523  1.00  0.00     0.237 C 
BRANCH  34  35
HETATM   35  C   UNL     1      -1.370   5.331 -31.283  1.00  0.00     0.240 C 
HETATM   36  N   UNL     1      -2.677   5.110 -31.667  1.00  0.00    -0.326 N 
HETATM   37  H   UNL     1      -3.166   5.898 -32.075  1.00  0.00     0.169 HD
HETATM   38  O   UNL     1      -0.644   4.537 -30.687  1.00  0.00    -0.271 OA
BRANCH  36  39
HETATM   39  C   UNL     1      -3.421   3.920 -31.504  1.00  0.00     0.034 A 
HETATM   40  C   UNL     1      -4.451   3.764 -30.575  1.00  0.00     0.030 A 
HETATM   41  C   UNL     1      -5.155   2.558 -30.481  1.00  0.00     0.009 A 
HETATM   42  C   UNL     1      -4.844   1.486 -31.319  1.00  0.00    -0.062 A 
HETATM   43  C   UNL     1      -5.585   0.187 -31.207  1.00  0.00     0.048 C 
HETATM   44  C   UNL     1      -3.800   1.631 -32.238  1.00  0.00     0.009 A 
HETATM   45  C   UNL     1      -3.098   2.839 -32.332  1.00  0.00     0.030 A 
ENDBRANCH  36  39
ENDBRANCH  34  35
ENDBRANCH   1  34
TORSDOF 8
ENDMDL
MODEL 10
REMARK VINA RESULT:      -9.8      5.730      9.079
REMARK  8 active torsions:
REMARK  status: ('A' for Active; 'I' for Inactive)
REMARK    1  A    between atoms: C_5  and  N_6 
REMARK       I    between atoms: N_6  and  C_7 
REMARK    2  A    between atoms: C_7  and  C_8 
REMARK    3  A    between atoms: C_8  and  N_9 
REMARK    4  A    between atoms: N_12  and  C_13 
REMARK    5  A    between atoms: C_13  and  C_14 
REMARK    6  A    between atoms: C_17  and  C_18 
REMARK       I    between atoms: C_18  and  N_19 
REMARK    7  A    between atoms: N_19  and  C_20 
REMARK    8  A    between atoms: C_20  and  C_21 
ROOT
HETATM    1  N   UNL     1      -5.011   2.915 -31.854  1.00  0.00    -0.290 N 
HETATM    2  C   UNL     1      -6.389   3.083 -31.799  1.00  0.00     0.332 C 
HETATM    3  O   UNL     1      -7.109   2.202 -31.325  1.00  0.00    -0.246 OA
HETATM    4  N   UNL     1      -6.897   4.284 -32.272  1.00  0.00    -0.261 N 
HETATM    5  C   UNL     1      -6.128   5.285 -32.850  1.00  0.00     0.264 C 
HETATM    6  O   UNL     1      -6.538   6.415 -33.104  1.00  0.00    -0.267 OA
HETATM    7  C   UNL     1      -4.717   4.967 -33.117  1.00  0.00     0.059 A 
HETATM    8  C   UNL     1      -4.171   3.805 -32.575  1.00  0.00     0.055 A 
HETATM    9  C   UNL     1      -3.928   5.871 -33.844  1.00  0.00     0.019 A 
HETATM   10  C   UNL     1      -2.575   5.613 -34.038  1.00  0.00     0.001 A 
HETATM   11  C   UNL     1      -2.012   4.460 -33.499  1.00  0.00     0.002 A 
HETATM   12  C   UNL     1      -2.803   3.563 -32.770  1.00  0.00     0.031 A 
ENDROOT
BRANCH   4  13
HETATM   13  C   UNL     1      -8.269   4.624 -31.915  1.00  0.00     0.175 C 
BRANCH  13  14
HETATM   14  C   UNL     1      -8.403   5.614 -30.777  1.00  0.00    -0.040 A 
HETATM   15  C   UNL     1      -9.255   6.722 -30.876  1.00  0.00     0.010 A 
HETATM   16  C   UNL     1      -9.451   7.569 -29.776  1.00  0.00     0.017 A 
HETATM   17  C   UNL     1      -8.783   7.326 -28.567  1.00  0.00     0.032 A 
HETATM   18  C   UNL     1      -7.914   6.233 -28.478  1.00  0.00     0.017 A 
HETATM   19  C   UNL     1      -7.722   5.390 -29.572  1.00  0.00     0.010 A 
BRANCH  17  20
HETATM   20  C   UNL     1      -9.003   8.137 -27.335  1.00  0.00     0.251 C 
HETATM   21  N   UNL     1     -10.304   8.315 -26.922  1.00  0.00    -0.353 N 
HETATM   22  H   UNL     1     -11.072   8.027 -27.508  1.00  0.00     0.163 HD
HETATM   23  O   UNL     1      -8.043   8.624 -26.748  1.00  0.00    -0.268 OA
BRANCH  21  24
HETATM   24  C   UNL     1     -10.623   9.083 -25.738  1.00  0.00     0.161 C 
BRANCH  24  25
HETATM   25  C   UNL     1     -11.878   8.572 -25.075  1.00  0.00    -0.038 A 
HETATM   26  C   UNL     1     -12.688   7.625 -25.721  1.00  0.00     0.048 A 
HETATM   27  C   UNL     1     -13.811   7.170 -25.062  1.00  0.00     0.105 A 
HETATM   28  C   UNL     1     -14.148   7.620 -23.807  1.00  0.00     0.105 A 
HETATM   29  O   UNL     1     -14.695   6.255 -25.541  1.00  0.00    -0.323 OA
HETATM   30  O   UNL     1     -15.288   7.045 -23.339  1.00  0.00    -0.323 OA
HETATM   31  C   UNL     1     -13.379   8.547 -23.138  1.00  0.00     0.040 A 
HETATM   32  C   UNL     1     -15.618   6.167 -24.435  1.00  0.00     0.352 A 
HETATM   33  C   UNL     1     -12.231   9.021 -23.780  1.00  0.00     0.012 A 
ENDBRANCH  24  25
ENDBRANCH  21  24
ENDBRANCH  17  20
ENDBRANCH  13  14
ENDBRANCH   4  13
BRANCH   1  34
HETATM   34  C   UNL     1      -4.414   1.877 -31.002  1.00  0.00     0.237 C 
BRANCH  34  35
HETATM   35  C   UNL     1      -4.440   0.443 -31.530  1.00  0.00     0.240 C 
HETATM   36  N   UNL     1      -5.076   0.292 -32.746  1.00  0.00    -0.326 N 
HETATM   37  H   UNL     1      -5.448   1.135 -33.167  1.00  0.00     0.169 HD
HETATM   38  O   UNL     1      -4.010  -0.463 -30.819  1.00  0.00    -0.271 OA
BRANCH  36  39
HETATM   39  C   UNL     1      -5.312  -0.917 -33.437  1.00  0.00     0.034 A 
HETATM   40  C   UNL     1      -4.303  -1.781 -33.866  1.00  0.00     0.030 A 
HETATM   41  C   UNL     1      -4.613  -2.971 -34.533  1.00  0.00     0.009 A 
HETATM   42  C   UNL     1      -5.942  -3.322 -34.781  1.00  0.00    -0.062 A 
HETATM   43  C   UNL     1      -6.276  -4.588 -35.512  1.00  0.00     0.048 C 
HETATM   44  C   UNL     1      -6.955  -2.450 -34.371  1.00  0.00     0.009 A 
HETATM   45  C   UNL     1      -6.642  -1.261 -33.701  1.00  0.00     0.030 A 
ENDBRANCH  36  39
ENDBRANCH  34  35
ENDBRANCH   1  34
TORSDOF 8
ENDMDL
