MODEL 1
REMARK VINA RESULT:      -8.4      0.000      0.000
REMARK  6 active torsions:
REMARK  status: ('A' for Active; 'I' for Inactive)
REMARK    1  A    between atoms: C_7  and  S_8 
REMARK    2  A    between atoms: S_8  and  C_9 
REMARK    3  A    between atoms: C_9  and  C_10 
REMARK    4  A    between atoms: C_18  and  C_19 
REMARK    5  A    between atoms: C_26  and  C_27 
REMARK    6  A    between atoms: C_27  and  O_28 
ROOT
HETATM    1  C   UNL     1      -8.894   3.766 -30.121  1.00  0.00     0.070 C 
HETATM    2  C   UNL     1      -8.096   3.622 -31.393  1.00  0.00     0.037 A 
HETATM    3  N   UNL     1      -7.072   4.546 -31.566  1.00  0.00    -0.192 N 
HETATM    4  C   UNL     1      -6.282   4.582 -32.654  1.00  0.00     0.726 A 
HETATM    5  N   UNL     1      -6.480   3.680 -33.660  1.00  0.00    -0.082 N 
HETATM    6  N   UNL     1      -5.629   3.895 -34.687  1.00  0.00    -0.128 NA
HETATM    7  C   UNL     1      -4.893   4.901 -34.195  1.00  0.00     0.226 A 
HETATM    8  N   UNL     1      -5.277   5.359 -32.957  1.00  0.00    -0.035 NA
HETATM    9  C   UNL     1      -7.501   2.623 -33.627  1.00  0.00     0.203 A 
HETATM   10  C   UNL     1      -8.329   2.690 -32.350  1.00  0.00     0.070 A 
HETATM   11  H   UNL     1      -6.915   5.224 -30.824  1.00  0.00     0.184 HD
ENDROOT
BRANCH   7  12
HETATM   12  S   UNL     1      -3.504   5.565 -35.007  1.00  0.00    -0.083 SA
BRANCH  12  13
HETATM   13  C   UNL     1      -2.154   4.599 -34.280  1.00  0.00     0.123 C 
BRANCH  13  14
HETATM   14  C   UNL     1      -1.632   5.251 -33.018  1.00  0.00    -0.027 A 
HETATM   15  C   UNL     1      -1.855   4.723 -31.736  1.00  0.00     0.041 A 
HETATM   16 CL   UNL     1      -2.792   3.293 -31.483  1.00  0.00    -0.084 Cl
HETATM   17  C   UNL     1      -1.318   5.351 -30.606  1.00  0.00     0.024 A 
HETATM   18  C   UNL     1      -0.554   6.509 -30.739  1.00  0.00     0.002 A 
HETATM   19  C   UNL     1      -0.322   7.043 -32.004  1.00  0.00     0.001 A 
HETATM   20  C   UNL     1      -0.852   6.417 -33.134  1.00  0.00     0.009 A 
ENDBRANCH  13  14
ENDBRANCH  12  13
ENDBRANCH   7  12
BRANCH   9  21
HETATM   21  C   UNL     1      -6.848   1.256 -33.836  1.00  0.00    -0.028 A 
HETATM   22  C   UNL     1      -5.818   0.796 -32.996  1.00  0.00     0.011 A 
HETATM   23  C   UNL     1      -5.245  -0.462 -33.197  1.00  0.00     0.024 A 
HETATM   24  C   UNL     1      -5.699  -1.273 -34.234  1.00  0.00     0.034 A 
HETATM   25 CL   UNL     1      -4.993  -2.823 -34.481  1.00  0.00    -0.084 Cl
HETATM   26  C   UNL     1      -6.721  -0.838 -35.073  1.00  0.00     0.024 A 
HETATM   27  C   UNL     1      -7.294   0.421 -34.876  1.00  0.00     0.011 A 
ENDBRANCH   9  21
BRANCH  10  28
HETATM   28  C   UNL     1      -9.369   1.655 -32.181  1.00  0.00     0.293 C 
HETATM   29  O   UNL     1      -9.210   0.616 -31.561  1.00  0.00    -0.259 OA
BRANCH  28  30
HETATM   30  O   UNL     1     -10.502   2.046 -32.814  1.00  0.00    -0.323 OA
HETATM   31  C   UNL     1     -11.057   1.036 -33.661  1.00  0.00     0.213 C 
ENDBRANCH  28  30
ENDBRANCH  10  28
TORSDOF 6
ENDMDL
MODEL 2
REMARK VINA RESULT:      -8.3      3.216      7.125
REMARK  6 active torsions:
REMARK  status: ('A' for Active; 'I' for Inactive)
REMARK    1  A    between atoms: C_7  and  S_8 
REMARK    2  A    between atoms: S_8  and  C_9 
REMARK    3  A    between atoms: C_9  and  C_10 
REMARK    4  A    between atoms: C_18  and  C_19 
REMARK    5  A    between atoms: C_26  and  C_27 
REMARK    6  A    between atoms: C_27  and  O_28 
ROOT
HETATM    1  C   UNL     1      -9.516   3.403 -30.447  1.00  0.00     0.070 C 
HETATM    2  C   UNL     1      -8.061   3.022 -30.568  1.00  0.00     0.037 A 
HETATM    3  N   UNL     1      -7.814   1.705 -30.935  1.00  0.00    -0.192 N 
HETATM    4  C   UNL     1      -6.579   1.188 -31.060  1.00  0.00     0.726 A 
HETATM    5  N   UNL     1      -5.491   1.976 -30.811  1.00  0.00    -0.082 N 
HETATM    6  N   UNL     1      -4.340   1.281 -30.940  1.00  0.00    -0.128 NA
HETATM    7  C   UNL     1      -4.811   0.093 -31.345  1.00  0.00     0.226 A 
HETATM    8  N   UNL     1      -6.180  -0.004 -31.413  1.00  0.00    -0.035 NA
HETATM    9  C   UNL     1      -5.574   3.395 -30.437  1.00  0.00     0.203 A 
HETATM   10  C   UNL     1      -7.020   3.858 -30.324  1.00  0.00     0.070 A 
HETATM   11  H   UNL     1      -8.616   1.107 -31.123  1.00  0.00     0.184 HD
ENDROOT
BRANCH   7  12
HETATM   12  S   UNL     1      -3.792  -1.236 -31.820  1.00  0.00    -0.083 SA
BRANCH  12  13
HETATM   13  C   UNL     1      -4.013  -1.247 -33.619  1.00  0.00     0.123 C 
BRANCH  13  14
HETATM   14  C   UNL     1      -4.788  -2.466 -34.067  1.00  0.00    -0.027 A 
HETATM   15  C   UNL     1      -6.088  -2.396 -34.593  1.00  0.00     0.041 A 
HETATM   16 CL   UNL     1      -6.940  -0.899 -34.734  1.00  0.00    -0.084 Cl
HETATM   17  C   UNL     1      -6.743  -3.554 -35.025  1.00  0.00     0.024 A 
HETATM   18  C   UNL     1      -6.113  -4.795 -34.938  1.00  0.00     0.002 A 
HETATM   19  C   UNL     1      -4.824  -4.882 -34.421  1.00  0.00     0.001 A 
HETATM   20  C   UNL     1      -4.165  -3.727 -33.993  1.00  0.00     0.009 A 
ENDBRANCH  13  14
ENDBRANCH  12  13
ENDBRANCH   7  12
BRANCH   9  21
HETATM   21  C   UNL     1      -4.756   4.244 -31.411  1.00  0.00    -0.028 A 
HETATM   22  C   UNL     1      -5.054   4.278 -32.786  1.00  0.00     0.011 A 
HETATM   23  C   UNL     1      -4.303   5.071 -33.656  1.00  0.00     0.024 A 
HETATM   24  C   UNL     1      -3.252   5.840 -33.162  1.00  0.00     0.034 A 
HETATM   25 CL   UNL     1      -2.327   6.816 -34.235  1.00  0.00    -0.084 Cl
HETATM   26  C   UNL     1      -2.945   5.824 -31.804  1.00  0.00     0.024 A 
HETATM   27  C   UNL     1      -3.693   5.029 -30.932  1.00  0.00     0.011 A 
ENDBRANCH   9  21
BRANCH  10  28
HETATM   28  C   UNL     1      -7.237   5.279 -29.987  1.00  0.00     0.293 C 
HETATM   29  O   UNL     1      -7.404   6.164 -30.811  1.00  0.00    -0.259 OA
BRANCH  28  30
HETATM   30  O   UNL     1      -7.219   5.431 -28.641  1.00  0.00    -0.323 OA
HETATM   31  C   UNL     1      -8.203   6.351 -28.159  1.00  0.00     0.213 C 
ENDBRANCH  28  30
ENDBRANCH  10  28
TORSDOF 6
ENDMDL
MODEL 3
REMARK VINA RESULT:      -8.1      3.867      6.460
REMARK  6 active torsions:
REMARK  status: ('A' for Active; 'I' for Inactive)
REMARK    1  A    between atoms: C_7  and  S_8 
REMARK    2  A    between atoms: S_8  and  C_9 
REMARK    3  A    between atoms: C_9  and  C_10 
REMARK    4  A    between atoms: C_18  and  C_19 
REMARK    5  A    between atoms: C_26  and  C_27 
REMARK    6  A    between atoms: C_27  and  O_28 
ROOT
HETATM    1  C   UNL     1      -6.214   5.198 -28.815  1.00  0.00     0.070 C 
HETATM    2  C   UNL     1      -6.116   4.162 -29.907  1.00  0.00     0.037 A 
HETATM    3  N   UNL     1      -5.242   3.110 -29.659  1.00  0.00    -0.192 N 
HETATM    4  C   UNL     1      -5.010   2.116 -30.535  1.00  0.00     0.726 A 
HETATM    5  N   UNL     1      -5.646   2.122 -31.744  1.00  0.00    -0.082 N 
HETATM    6  N   UNL     1      -5.257   1.079 -32.509  1.00  0.00    -0.128 NA
HETATM    7  C   UNL     1      -4.437   0.440 -31.661  1.00  0.00     0.226 A 
HETATM    8  N   UNL     1      -4.249   1.058 -30.449  1.00  0.00    -0.035 NA
HETATM    9  C   UNL     1      -6.617   3.146 -32.156  1.00  0.00     0.203 A 
HETATM   10  C   UNL     1      -6.790   4.213 -31.083  1.00  0.00     0.070 A 
HETATM   11  H   UNL     1      -4.761   3.094 -28.763  1.00  0.00     0.184 HD
ENDROOT
BRANCH   7  12
HETATM   12  S   UNL     1      -3.694  -1.094 -32.013  1.00  0.00    -0.083 SA
BRANCH  12  13
HETATM   13  C   UNL     1      -3.953  -1.228 -33.802  1.00  0.00     0.123 C 
BRANCH  13  14
HETATM   14  C   UNL     1      -4.788  -2.442 -34.144  1.00  0.00    -0.027 A 
HETATM   15  C   UNL     1      -6.141  -2.360 -34.516  1.00  0.00     0.041 A 
HETATM   16 CL   UNL     1      -6.986  -0.854 -34.572  1.00  0.00    -0.084 Cl
HETATM   17  C   UNL     1      -6.855  -3.514 -34.856  1.00  0.00     0.024 A 
HETATM   18  C   UNL     1      -6.233  -4.762 -34.830  1.00  0.00     0.002 A 
HETATM   19  C   UNL     1      -4.893  -4.860 -34.466  1.00  0.00     0.001 A 
HETATM   20  C   UNL     1      -4.176  -3.710 -34.130  1.00  0.00     0.009 A 
ENDBRANCH  13  14
ENDBRANCH  12  13
ENDBRANCH   7  12
BRANCH   9  21
HETATM   21  C   UNL     1      -7.939   2.486 -32.551  1.00  0.00    -0.028 A 
HETATM   22  C   UNL     1      -8.585   1.568 -31.703  1.00  0.00     0.011 A 
HETATM   23  C   UNL     1      -9.799   0.987 -32.078  1.00  0.00     0.024 A 
HETATM   24  C   UNL     1     -10.381   1.323 -33.298  1.00  0.00     0.034 A 
HETATM   25 CL   UNL     1     -11.877   0.608 -33.759  1.00  0.00    -0.084 Cl
HETATM   26  C   UNL     1      -9.760   2.234 -34.149  1.00  0.00     0.024 A 
HETATM   27  C   UNL     1      -8.544   2.813 -33.778  1.00  0.00     0.011 A 
ENDBRANCH   9  21
BRANCH  10  28
HETATM   28  C   UNL     1      -7.769   5.282 -31.364  1.00  0.00     0.293 C 
HETATM   29  O   UNL     1      -7.551   6.242 -32.085  1.00  0.00    -0.259 OA
BRANCH  28  30
HETATM   30  O   UNL     1      -8.923   5.022 -30.702  1.00  0.00    -0.323 OA
HETATM   31  C   UNL     1      -9.563   6.195 -30.192  1.00  0.00     0.213 C 
ENDBRANCH  28  30
ENDBRANCH  10  28
TORSDOF 6
ENDMDL
MODEL 4
REMARK VINA RESULT:      -7.9      3.189      6.828
REMARK  6 active torsions:
REMARK  status: ('A' for Active; 'I' for Inactive)
REMARK    1  A    between atoms: C_7  and  S_8 
REMARK    2  A    between atoms: S_8  and  C_9 
REMARK    3  A    between atoms: C_9  and  C_10 
REMARK    4  A    between atoms: C_18  and  C_19 
REMARK    5  A    between atoms: C_26  and  C_27 
REMARK    6  A    between atoms: C_27  and  O_28 
ROOT
HETATM    1  C   UNL     1      -8.801   5.796 -29.945  1.00  0.00     0.070 C 
HETATM    2  C   UNL     1      -7.944   4.691 -30.513  1.00  0.00     0.037 A 
HETATM    3  N   UNL     1      -8.633   3.672 -31.160  1.00  0.00    -0.192 N 
HETATM    4  C   UNL     1      -8.031   2.595 -31.698  1.00  0.00     0.726 A 
HETATM    5  N   UNL     1      -6.674   2.469 -31.609  1.00  0.00    -0.082 N 
HETATM    6  N   UNL     1      -6.252   1.310 -32.160  1.00  0.00    -0.128 NA
HETATM    7  C   UNL     1      -7.408   0.822 -32.631  1.00  0.00     0.226 A 
HETATM    8  N   UNL     1      -8.522   1.576 -32.350  1.00  0.00    -0.035 NA
HETATM    9  C   UNL     1      -5.795   3.465 -30.980  1.00  0.00     0.203 A 
HETATM   10  C   UNL     1      -6.594   4.629 -30.409  1.00  0.00     0.070 A 
HETATM   11  H   UNL     1      -9.644   3.754 -31.232  1.00  0.00     0.184 HD
ENDROOT
BRANCH   7  12
HETATM   12  S   UNL     1      -7.523  -0.628 -33.587  1.00  0.00    -0.083 SA
BRANCH  12  13
HETATM   13  C   UNL     1      -5.838  -0.777 -34.237  1.00  0.00     0.123 C 
BRANCH  13  14
HETATM   14  C   UNL     1      -5.374  -2.217 -34.230  1.00  0.00    -0.027 A 
HETATM   15  C   UNL     1      -4.257  -2.658 -33.500  1.00  0.00     0.041 A 
HETATM   16 CL   UNL     1      -3.282  -1.573 -32.573  1.00  0.00    -0.084 Cl
HETATM   17  C   UNL     1      -3.895  -4.009 -33.504  1.00  0.00     0.024 A 
HETATM   18  C   UNL     1      -4.638  -4.937 -34.232  1.00  0.00     0.002 A 
HETATM   19  C   UNL     1      -5.748  -4.516 -34.959  1.00  0.00     0.001 A 
HETATM   20  C   UNL     1      -6.116  -3.169 -34.955  1.00  0.00     0.009 A 
ENDBRANCH  13  14
ENDBRANCH  12  13
ENDBRANCH   7  12
BRANCH   9  21
HETATM   21  C   UNL     1      -4.720   3.916 -31.969  1.00  0.00    -0.028 A 
HETATM   22  C   UNL     1      -3.352   3.709 -31.714  1.00  0.00     0.011 A 
HETATM   23  C   UNL     1      -2.387   4.117 -32.638  1.00  0.00     0.024 A 
HETATM   24  C   UNL     1      -2.778   4.730 -33.825  1.00  0.00     0.034 A 
HETATM   25 CL   UNL     1      -1.589   5.232 -34.963  1.00  0.00    -0.084 Cl
HETATM   26  C   UNL     1      -4.128   4.939 -34.099  1.00  0.00     0.024 A 
HETATM   27  C   UNL     1      -5.095   4.535 -33.175  1.00  0.00     0.011 A 
ENDBRANCH   9  21
BRANCH  10  28
HETATM   28  C   UNL     1      -5.819   5.718 -29.779  1.00  0.00     0.293 C 
HETATM   29  O   UNL     1      -5.320   5.652 -28.667  1.00  0.00    -0.259 OA
BRANCH  28  30
HETATM   30  O   UNL     1      -5.757   6.775 -30.624  1.00  0.00    -0.323 OA
HETATM   31  C   UNL     1      -4.480   7.419 -30.638  1.00  0.00     0.213 C 
ENDBRANCH  28  30
ENDBRANCH  10  28
TORSDOF 6
ENDMDL
MODEL 5
REMARK VINA RESULT:      -7.5      3.239      4.887
REMARK  6 active torsions:
REMARK  status: ('A' for Active; 'I' for Inactive)
REMARK    1  A    between atoms: C_7  and  S_8 
REMARK    2  A    between atoms: S_8  and  C_9 
REMARK    3  A    between atoms: C_9  and  C_10 
REMARK    4  A    between atoms: C_18  and  C_19 
REMARK    5  A    between atoms: C_26  and  C_27 
REMARK    6  A    between atoms: C_27  and  O_28 
ROOT
HETATM    1  C   UNL     1      -5.960   0.969 -29.809  1.00  0.00     0.070 C 
HETATM    2  C   UNL     1      -5.757   2.406 -30.222  1.00  0.00     0.037 A 
HETATM    3  N   UNL     1      -5.638   3.318 -29.180  1.00  0.00    -0.192 N 
HETATM    4  C   UNL     1      -5.483   4.641 -29.365  1.00  0.00     0.726 A 
HETATM    5  N   UNL     1      -5.447   5.142 -30.636  1.00  0.00    -0.082 N 
HETATM    6  N   UNL     1      -5.334   6.489 -30.630  1.00  0.00    -0.128 NA
HETATM    7  C   UNL     1      -5.231   6.724 -29.314  1.00  0.00     0.226 A 
HETATM    8  N   UNL     1      -5.336   5.615 -28.509  1.00  0.00    -0.035 NA
HETATM    9  C   UNL     1      -5.535   4.316 -31.848  1.00  0.00     0.203 A 
HETATM   10  C   UNL     1      -5.711   2.842 -31.505  1.00  0.00     0.070 A 
HETATM   11  H   UNL     1      -5.665   2.957 -28.229  1.00  0.00     0.184 HD
ENDROOT
BRANCH   7  12
HETATM   12  S   UNL     1      -4.924   8.299 -28.639  1.00  0.00    -0.083 SA
BRANCH  12  13
HETATM   13  C   UNL     1      -3.700   8.965 -29.798  1.00  0.00     0.123 C 
BRANCH  13  14
HETATM   14  C   UNL     1      -2.393   8.210 -29.708  1.00  0.00    -0.027 A 
HETATM   15  C   UNL     1      -1.665   7.802 -30.838  1.00  0.00     0.041 A 
HETATM   16 CL   UNL     1      -2.228   8.094 -32.446  1.00  0.00    -0.084 Cl
HETATM   17  C   UNL     1      -0.443   7.137 -30.694  1.00  0.00     0.024 A 
HETATM   18  C   UNL     1       0.069   6.868 -29.425  1.00  0.00     0.002 A 
HETATM   19  C   UNL     1      -0.639   7.267 -28.295  1.00  0.00     0.001 A 
HETATM   20  C   UNL     1      -1.858   7.936 -28.435  1.00  0.00     0.009 A 
ENDBRANCH  13  14
ENDBRANCH  12  13
ENDBRANCH   7  12
BRANCH   9  21
HETATM   21  C   UNL     1      -4.325   4.572 -32.747  1.00  0.00    -0.028 A 
HETATM   22  C   UNL     1      -4.470   5.101 -34.043  1.00  0.00     0.011 A 
HETATM   23  C   UNL     1      -3.350   5.339 -34.842  1.00  0.00     0.024 A 
HETATM   24  C   UNL     1      -2.076   5.058 -34.354  1.00  0.00     0.034 A 
HETATM   25 CL   UNL     1      -0.697   5.352 -35.340  1.00  0.00    -0.084 Cl
HETATM   26  C   UNL     1      -1.912   4.538 -33.073  1.00  0.00     0.024 A 
HETATM   27  C   UNL     1      -3.030   4.296 -32.272  1.00  0.00     0.011 A 
ENDBRANCH   9  21
BRANCH  10  28
HETATM   28  C   UNL     1      -5.777   1.901 -32.641  1.00  0.00     0.293 C 
HETATM   29  O   UNL     1      -4.885   1.125 -32.944  1.00  0.00    -0.259 OA
BRANCH  28  30
HETATM   30  O   UNL     1      -6.967   2.042 -33.275  1.00  0.00    -0.323 OA
HETATM   31  C   UNL     1      -7.060   1.285 -34.485  1.00  0.00     0.213 C 
ENDBRANCH  28  30
ENDBRANCH  10  28
TORSDOF 6
ENDMDL
MODEL 6
REMARK VINA RESULT:      -7.5      4.535      7.241
REMARK  6 active torsions:
REMARK  status: ('A' for Active; 'I' for Inactive)
REMARK    1  A    between atoms: C_7  and  S_8 
REMARK    2  A    between atoms: S_8  and  C_9 
REMARK    3  A    between atoms: C_9  and  C_10 
REMARK    4  A    between atoms: C_18  and  C_19 
REMARK    5  A    between atoms: C_26  and  C_27 
REMARK    6  A    between atoms: C_27  and  O_28 
ROOT
HETATM    1  C   UNL     1     -12.433   2.725 -35.710  1.00  0.00     0.070 C 
HETATM    2  C   UNL     1     -11.456   2.501 -34.583  1.00  0.00     0.037 A 
HETATM    3  N   UNL     1     -10.467   1.555 -34.826  1.00  0.00    -0.192 N 
HETATM    4  C   UNL     1      -9.533   1.209 -33.922  1.00  0.00     0.726 A 
HETATM    5  N   UNL     1      -9.540   1.796 -32.688  1.00  0.00    -0.082 N 
HETATM    6  N   UNL     1      -8.564   1.294 -31.900  1.00  0.00    -0.128 NA
HETATM    7  C   UNL     1      -7.958   0.459 -32.755  1.00  0.00     0.226 A 
HETATM    8  N   UNL     1      -8.536   0.368 -33.998  1.00  0.00    -0.035 NA
HETATM    9  C   UNL     1     -10.499   2.831 -32.276  1.00  0.00     0.203 A 
HETATM   10  C   UNL     1     -11.503   3.130 -33.382  1.00  0.00     0.070 A 
HETATM   11  H   UNL     1     -10.451   1.109 -35.740  1.00  0.00     0.184 HD
ENDROOT
BRANCH   7  12
HETATM   12  S   UNL     1      -6.504  -0.420 -32.375  1.00  0.00    -0.083 SA
BRANCH  12  13
HETATM   13  C   UNL     1      -5.811  -0.718 -34.023  1.00  0.00     0.123 C 
BRANCH  13  14
HETATM   14  C   UNL     1      -5.482  -2.182 -34.221  1.00  0.00    -0.027 A 
HETATM   15  C   UNL     1      -4.352  -2.795 -33.656  1.00  0.00     0.041 A 
HETATM   16 CL   UNL     1      -3.205  -1.911 -32.713  1.00  0.00    -0.084 Cl
HETATM   17  C   UNL     1      -4.116  -4.161 -33.845  1.00  0.00     0.024 A 
HETATM   18  C   UNL     1      -5.001  -4.932 -34.596  1.00  0.00     0.002 A 
HETATM   19  C   UNL     1      -6.127  -4.340 -35.162  1.00  0.00     0.001 A 
HETATM   20  C   UNL     1      -6.368  -2.978 -34.972  1.00  0.00     0.009 A 
ENDBRANCH  13  14
ENDBRANCH  12  13
ENDBRANCH   7  12
BRANCH   9  21
HETATM   21  C   UNL     1      -9.754   4.078 -31.801  1.00  0.00    -0.028 A 
HETATM   22  C   UNL     1      -9.845   4.527 -30.470  1.00  0.00     0.011 A 
HETATM   23  C   UNL     1      -9.145   5.662 -30.054  1.00  0.00     0.024 A 
HETATM   24  C   UNL     1      -8.346   6.355 -30.959  1.00  0.00     0.034 A 
HETATM   25 CL   UNL     1      -7.484   7.753 -30.446  1.00  0.00    -0.084 Cl
HETATM   26  C   UNL     1      -8.239   5.924 -32.279  1.00  0.00     0.024 A 
HETATM   27  C   UNL     1      -8.941   4.791 -32.699  1.00  0.00     0.011 A 
ENDBRANCH   9  21
BRANCH  10  28
HETATM   28  C   UNL     1     -12.501   4.182 -33.103  1.00  0.00     0.293 C 
HETATM   29  O   UNL     1     -12.591   5.228 -33.725  1.00  0.00    -0.259 OA
BRANCH  28  30
HETATM   30  O   UNL     1     -13.282   3.798 -32.064  1.00  0.00    -0.323 OA
HETATM   31  C   UNL     1     -14.326   2.895 -32.440  1.00  0.00     0.213 C 
ENDBRANCH  28  30
ENDBRANCH  10  28
TORSDOF 6
ENDMDL
MODEL 7
REMARK VINA RESULT:      -7.5      4.217      8.331
REMARK  6 active torsions:
REMARK  status: ('A' for Active; 'I' for Inactive)
REMARK    1  A    between atoms: C_7  and  S_8 
REMARK    2  A    between atoms: S_8  and  C_9 
REMARK    3  A    between atoms: C_9  and  C_10 
REMARK    4  A    between atoms: C_18  and  C_19 
REMARK    5  A    between atoms: C_26  and  C_27 
REMARK    6  A    between atoms: C_27  and  O_28 
ROOT
HETATM    1  C   UNL     1       0.094   5.640 -31.086  1.00  0.00     0.070 C 
HETATM    2  C   UNL     1      -1.381   5.422 -31.319  1.00  0.00     0.037 A 
HETATM    3  N   UNL     1      -1.795   4.095 -31.332  1.00  0.00    -0.192 N 
HETATM    4  C   UNL     1      -3.066   3.716 -31.556  1.00  0.00     0.726 A 
HETATM    5  N   UNL     1      -4.019   4.666 -31.794  1.00  0.00    -0.082 N 
HETATM    6  N   UNL     1      -5.222   4.104 -32.043  1.00  0.00    -0.128 NA
HETATM    7  C   UNL     1      -4.933   2.807 -31.862  1.00  0.00     0.226 A 
HETATM    8  N   UNL     1      -3.617   2.533 -31.579  1.00  0.00    -0.035 NA
HETATM    9  C   UNL     1      -3.756   6.112 -31.792  1.00  0.00     0.203 A 
HETATM   10  C   UNL     1      -2.285   6.410 -31.531  1.00  0.00     0.070 A 
HETATM   11  H   UNL     1      -1.095   3.378 -31.157  1.00  0.00     0.184 HD
ENDROOT
BRANCH   7  12
HETATM   12  S   UNL     1      -6.125   1.539 -31.912  1.00  0.00    -0.083 SA
BRANCH  12  13
HETATM   13  C   UNL     1      -5.105   0.064 -31.650  1.00  0.00     0.123 C 
BRANCH  13  14
HETATM   14  C   UNL     1      -5.226  -0.898 -32.812  1.00  0.00    -0.027 A 
HETATM   15  C   UNL     1      -4.337  -1.967 -33.016  1.00  0.00     0.041 A 
HETATM   16 CL   UNL     1      -2.991  -2.252 -31.971  1.00  0.00    -0.084 Cl
HETATM   17  C   UNL     1      -4.519  -2.845 -34.089  1.00  0.00     0.024 A 
HETATM   18  C   UNL     1      -5.585  -2.672 -34.971  1.00  0.00     0.002 A 
HETATM   19  C   UNL     1      -6.475  -1.618 -34.782  1.00  0.00     0.001 A 
HETATM   20  C   UNL     1      -6.300  -0.741 -33.709  1.00  0.00     0.009 A 
ENDBRANCH  13  14
ENDBRANCH  12  13
ENDBRANCH   7  12
BRANCH   9  21
HETATM   21  C   UNL     1      -4.685   6.814 -30.800  1.00  0.00    -0.028 A 
HETATM   22  C   UNL     1      -5.594   7.803 -31.217  1.00  0.00     0.011 A 
HETATM   23  C   UNL     1      -6.443   8.421 -30.295  1.00  0.00     0.024 A 
HETATM   24  C   UNL     1      -6.395   8.054 -28.953  1.00  0.00     0.034 A 
HETATM   25 CL   UNL     1      -7.440   8.816 -27.819  1.00  0.00    -0.084 Cl
HETATM   26  C   UNL     1      -5.505   7.074 -28.521  1.00  0.00     0.024 A 
HETATM   27  C   UNL     1      -4.653   6.456 -29.440  1.00  0.00     0.011 A 
ENDBRANCH   9  21
BRANCH  10  28
HETATM   28  C   UNL     1      -1.898   7.834 -31.469  1.00  0.00     0.293 C 
HETATM   29  O   UNL     1      -1.866   8.580 -32.434  1.00  0.00    -0.259 OA
BRANCH  28  30
HETATM   30  O   UNL     1      -1.594   8.163 -30.190  1.00  0.00    -0.323 OA
HETATM   31  C   UNL     1      -2.255   9.347 -29.735  1.00  0.00     0.213 C 
ENDBRANCH  28  30
ENDBRANCH  10  28
TORSDOF 6
ENDMDL
MODEL 8
REMARK VINA RESULT:      -7.2      5.185      7.809
REMARK  6 active torsions:
REMARK  status: ('A' for Active; 'I' for Inactive)
REMARK    1  A    between atoms: C_7  and  S_8 
REMARK    2  A    between atoms: S_8  and  C_9 
REMARK    3  A    between atoms: C_9  and  C_10 
REMARK    4  A    between atoms: C_18  and  C_19 
REMARK    5  A    between atoms: C_26  and  C_27 
REMARK    6  A    between atoms: C_27  and  O_28 
ROOT
HETATM    1  C   UNL     1     -15.370   2.020 -32.492  1.00  0.00     0.070 C 
HETATM    2  C   UNL     1     -13.925   2.394 -32.711  1.00  0.00     0.037 A 
HETATM    3  N   UNL     1     -13.112   1.381 -33.206  1.00  0.00    -0.192 N 
HETATM    4  C   UNL     1     -11.795   1.531 -33.432  1.00  0.00     0.726 A 
HETATM    5  N   UNL     1     -11.197   2.729 -33.161  1.00  0.00    -0.082 N 
HETATM    6  N   UNL     1      -9.869   2.681 -33.403  1.00  0.00    -0.128 NA
HETATM    7  C   UNL     1      -9.749   1.439 -33.893  1.00  0.00     0.226 A 
HETATM    8  N   UNL     1     -10.907   0.700 -33.909  1.00  0.00    -0.035 NA
HETATM    9  C   UNL     1     -11.914   3.909 -32.657  1.00  0.00     0.203 A 
HETATM   10  C   UNL     1     -13.392   3.611 -32.439  1.00  0.00     0.070 A 
HETATM   11  H   UNL     1     -13.545   0.484 -33.412  1.00  0.00     0.184 HD
ENDROOT
BRANCH   7  12
HETATM   12  S   UNL     1      -8.263   0.794 -34.530  1.00  0.00    -0.083 SA
BRANCH  12  13
HETATM   13  C   UNL     1      -7.978  -0.624 -33.438  1.00  0.00     0.123 C 
BRANCH  13  14
HETATM   14  C   UNL     1      -6.735  -1.386 -33.844  1.00  0.00    -0.027 A 
HETATM   15  C   UNL     1      -5.440  -0.991 -33.471  1.00  0.00     0.041 A 
HETATM   16 CL   UNL     1      -5.148   0.437 -32.543  1.00  0.00    -0.084 Cl
HETATM   17  C   UNL     1      -4.329  -1.755 -33.846  1.00  0.00     0.024 A 
HETATM   18  C   UNL     1      -4.494  -2.918 -34.597  1.00  0.00     0.002 A 
HETATM   19  C   UNL     1      -5.771  -3.324 -34.973  1.00  0.00     0.001 A 
HETATM   20  C   UNL     1      -6.883  -2.567 -34.596  1.00  0.00     0.009 A 
ENDBRANCH  13  14
ENDBRANCH  12  13
ENDBRANCH   7  12
BRANCH   9  21
HETATM   21  C   UNL     1     -11.682   5.101 -33.586  1.00  0.00    -0.028 A 
HETATM   22  C   UNL     1     -12.187   5.119 -34.899  1.00  0.00     0.011 A 
HETATM   23  C   UNL     1     -11.974   6.225 -35.726  1.00  0.00     0.024 A 
HETATM   24  C   UNL     1     -11.262   7.322 -35.249  1.00  0.00     0.034 A 
HETATM   25 CL   UNL     1     -11.002   8.683 -36.268  1.00  0.00    -0.084 Cl
HETATM   26  C   UNL     1     -10.759   7.325 -33.950  1.00  0.00     0.024 A 
HETATM   27  C   UNL     1     -10.968   6.220 -33.122  1.00  0.00     0.011 A 
ENDBRANCH   9  21
BRANCH  10  28
HETATM   28  C   UNL     1     -14.230   4.731 -31.966  1.00  0.00     0.293 C 
HETATM   29  O   UNL     1     -14.959   5.396 -32.685  1.00  0.00    -0.259 OA
BRANCH  28  30
HETATM   30  O   UNL     1     -14.058   4.891 -30.631  1.00  0.00    -0.323 OA
HETATM   31  C   UNL     1     -14.001   6.261 -30.225  1.00  0.00     0.213 C 
ENDBRANCH  28  30
ENDBRANCH  10  28
TORSDOF 6
ENDMDL
MODEL 9
REMARK VINA RESULT:      -7.0      3.246      4.885
REMARK  6 active torsions:
REMARK  status: ('A' for Active; 'I' for Inactive)
REMARK    1  A    between atoms: C_7  and  S_8 
REMARK    2  A    between atoms: S_8  and  C_9 
REMARK    3  A    between atoms: C_9  and  C_10 
REMARK    4  A    between atoms: C_18  and  C_19 
REMARK    5  A    between atoms: C_26  and  C_27 
REMARK    6  A    between atoms: C_27  and  O_28 
ROOT
HETATM    1  C   UNL     1      -6.329   0.269 -30.257  1.00  0.00     0.070 C 
HETATM    2  C   UNL     1      -6.261   1.730 -30.625  1.00  0.00     0.037 A 
HETATM    3  N   UNL     1      -6.420   2.622 -29.571  1.00  0.00    -0.192 N 
HETATM    4  C   UNL     1      -6.418   3.959 -29.723  1.00  0.00     0.726 A 
HETATM    5  N   UNL     1      -6.261   4.494 -30.970  1.00  0.00    -0.082 N 
HETATM    6  N   UNL     1      -6.331   5.843 -30.938  1.00  0.00    -0.128 NA
HETATM    7  C   UNL     1      -6.456   6.054 -29.620  1.00  0.00     0.226 A 
HETATM    8  N   UNL     1      -6.530   4.921 -28.847  1.00  0.00    -0.035 NA
HETATM    9  C   UNL     1      -6.058   3.695 -32.187  1.00  0.00     0.203 A 
HETATM   10  C   UNL     1      -6.084   2.203 -31.884  1.00  0.00     0.070 A 
HETATM   11  H   UNL     1      -6.539   2.236 -28.637  1.00  0.00     0.184 HD
ENDROOT
BRANCH   7  12
HETATM   12  S   UNL     1      -6.465   7.637 -28.895  1.00  0.00    -0.083 SA
BRANCH  12  13
HETATM   13  C   UNL     1      -4.764   7.773 -28.284  1.00  0.00     0.123 C 
BRANCH  13  14
HETATM   14  C   UNL     1      -3.799   8.065 -29.412  1.00  0.00    -0.027 A 
HETATM   15  C   UNL     1      -3.544   9.362 -29.885  1.00  0.00     0.041 A 
HETATM   16 CL   UNL     1      -4.353  10.748 -29.242  1.00  0.00    -0.084 Cl
HETATM   17  C   UNL     1      -2.614   9.575 -30.908  1.00  0.00     0.024 A 
HETATM   18  C   UNL     1      -1.928   8.501 -31.472  1.00  0.00     0.002 A 
HETATM   19  C   UNL     1      -2.167   7.209 -31.014  1.00  0.00     0.001 A 
HETATM   20  C   UNL     1      -3.092   6.993 -29.989  1.00  0.00     0.009 A 
ENDBRANCH  13  14
ENDBRANCH  12  13
ENDBRANCH   7  12
BRANCH   9  21
HETATM   21  C   UNL     1      -4.773   4.132 -32.893  1.00  0.00    -0.028 A 
HETATM   22  C   UNL     1      -3.505   3.853 -32.351  1.00  0.00     0.011 A 
HETATM   23  C   UNL     1      -2.344   4.249 -33.020  1.00  0.00     0.024 A 
HETATM   24  C   UNL     1      -2.439   4.921 -34.235  1.00  0.00     0.034 A 
HETATM   25 CL   UNL     1      -1.009   5.409 -35.058  1.00  0.00    -0.084 Cl
HETATM   26  C   UNL     1      -3.685   5.202 -34.790  1.00  0.00     0.024 A 
HETATM   27  C   UNL     1      -4.847   4.810 -34.122  1.00  0.00     0.011 A 
ENDBRANCH   9  21
BRANCH  10  28
HETATM   28  C   UNL     1      -5.855   1.292 -33.024  1.00  0.00     0.293 C 
HETATM   29  O   UNL     1      -4.833   0.648 -33.195  1.00  0.00    -0.259 OA
BRANCH  28  30
HETATM   30  O   UNL     1      -6.947   1.291 -33.827  1.00  0.00    -0.323 OA
HETATM   31  C   UNL     1      -7.546   0.000 -33.972  1.00  0.00     0.213 C 
ENDBRANCH  28  30
ENDBRANCH  10  28
TORSDOF 6
ENDMDL
MODEL 10
REMARK VINA RESULT:      -7.0      3.976      7.154
REMARK  6 active torsions:
REMARK  status: ('A' for Active; 'I' for Inactive)
REMARK    1  A    between atoms: C_7  and  S_8 
REMARK    2  A    between atoms: S_8  and  C_9 
REMARK    3  A    between atoms: C_9  and  C_10 
REMARK    4  A    between atoms: C_18  and  C_19 
REMARK    5  A    between atoms: C_26  and  C_27 
REMARK    6  A    between atoms: C_27  and  O_28 
ROOT
HETATM    1  C   UNL     1      -5.224   6.191 -28.228  1.00  0.00     0.070 C 
HETATM    2  C   UNL     1      -5.530   5.255 -29.372  1.00  0.00     0.037 A 
HETATM    3  N   UNL     1      -5.374   3.902 -29.097  1.00  0.00    -0.192 N 
HETATM    4  C   UNL     1      -5.574   2.932 -30.007  1.00  0.00     0.726 A 
HETATM    5  N   UNL     1      -5.942   3.269 -31.279  1.00  0.00    -0.082 N 
HETATM    6  N   UNL     1      -6.052   2.175 -32.065  1.00  0.00    -0.128 NA
HETATM    7  C   UNL     1      -5.808   1.203 -31.174  1.00  0.00     0.226 A 
HETATM    8  N   UNL     1      -5.494   1.633 -29.907  1.00  0.00    -0.035 NA
HETATM    9  C   UNL     1      -6.174   4.649 -31.730  1.00  0.00     0.203 A 
HETATM   10  C   UNL     1      -5.911   5.650 -30.612  1.00  0.00     0.070 A 
HETATM   11  H   UNL     1      -5.098   3.638 -28.154  1.00  0.00     0.184 HD
ENDROOT
BRANCH   7  12
HETATM   12  S   UNL     1      -5.930  -0.494 -31.543  1.00  0.00    -0.083 SA
BRANCH  12  13
HETATM   13  C   UNL     1      -4.660  -0.686 -32.821  1.00  0.00     0.123 C 
BRANCH  13  14
HETATM   14  C   UNL     1      -4.674  -2.084 -33.401  1.00  0.00    -0.027 A 
HETATM   15  C   UNL     1      -5.590  -2.495 -34.383  1.00  0.00     0.041 A 
HETATM   16 CL   UNL     1      -6.819  -1.443 -34.989  1.00  0.00    -0.084 Cl
HETATM   17  C   UNL     1      -5.534  -3.791 -34.908  1.00  0.00     0.024 A 
HETATM   18  C   UNL     1      -4.567  -4.691 -34.462  1.00  0.00     0.002 A 
HETATM   19  C   UNL     1      -3.652  -4.299 -33.490  1.00  0.00     0.001 A 
HETATM   20  C   UNL     1      -3.702  -3.005 -32.967  1.00  0.00     0.009 A 
ENDBRANCH  13  14
ENDBRANCH  12  13
ENDBRANCH   7  12
BRANCH   9  21
HETATM   21  C   UNL     1      -7.577   4.780 -32.322  1.00  0.00    -0.028 A 
HETATM   22  C   UNL     1      -8.727   4.516 -31.555  1.00  0.00     0.011 A 
HETATM   23  C   UNL     1     -10.000   4.654 -32.113  1.00  0.00     0.024 A 
HETATM   24  C   UNL     1     -10.137   5.063 -33.437  1.00  0.00     0.034 A 
HETATM   25 CL   UNL     1     -11.705   5.234 -34.123  1.00  0.00    -0.084 Cl
HETATM   26  C   UNL     1      -9.011   5.334 -34.211  1.00  0.00     0.024 A 
HETATM   27  C   UNL     1      -7.737   5.193 -33.657  1.00  0.00     0.011 A 
ENDBRANCH   9  21
BRANCH  10  28
HETATM   28  C   UNL     1      -6.144   7.073 -30.930  1.00  0.00     0.293 C 
HETATM   29  O   UNL     1      -7.214   7.642 -30.794  1.00  0.00    -0.259 OA
BRANCH  28  30
HETATM   30  O   UNL     1      -4.994   7.627 -31.387  1.00  0.00    -0.323 OA
HETATM   31  C   UNL     1      -4.798   8.974 -30.949  1.00  0.00     0.213 C 
ENDBRANCH  28  30
ENDBRANCH  10  28
TORSDOF 6
ENDMDL
