MODEL 1
REMARK VINA RESULT:     -10.1      0.000      0.000
REMARK  8 active torsions:
REMARK  status: ('A' for Active; 'I' for Inactive)
REMARK    1  A    between atoms: C_6  and  N_7 
REMARK       I    between atoms: N_7  and  C_8 
REMARK    2  A    between atoms: C_8  and  C_9 
REMARK    3  A    between atoms: C_9  and  S_10 
REMARK    4  A    between atoms: S_10  and  C_11 
REMARK    5  A    between atoms: N_12  and  C_13 
REMARK    6  A    between atoms: C_13  and  C_14 
REMARK    7  A    between atoms: C_25  and  C_26 
REMARK       I    between atoms: C_26  and  N_27 
REMARK    8  A    between atoms: C_30  and  C_31 
REMARK       I    between atoms: C_31  and  N_32 
ROOT
HETATM    1  C   UNL     1      -8.914   2.927 -32.631  1.00  0.00     0.172 C 
HETATM    2  N   UNL     1      -9.719   3.968 -32.213  1.00  0.00    -0.286 N 
HETATM    3  C   UNL     1      -9.162   5.211 -31.929  1.00  0.00     0.262 C 
HETATM    4  O   UNL     1      -9.781   6.149 -31.432  1.00  0.00    -0.267 OA
HETATM    5  C   UNL     1      -7.742   5.389 -32.269  1.00  0.00     0.061 A 
HETATM    6  C   UNL     1      -7.047   4.281 -32.753  1.00  0.00     0.076 A 
HETATM    7  C   UNL     1      -7.128   6.643 -32.150  1.00  0.00     0.020 A 
HETATM    8  C   UNL     1      -5.804   6.799 -32.554  1.00  0.00     0.018 A 
HETATM    9  C   UNL     1      -5.117   5.705 -33.084  1.00  0.00     0.034 A 
HETATM   10  C   UNL     1      -5.721   4.443 -33.159  1.00  0.00     0.050 A 
HETATM   11  N   UNL     1      -7.644   3.018 -32.864  1.00  0.00    -0.224 NA
ENDROOT
BRANCH   1  12
HETATM   12  S   UNL     1      -9.589   1.326 -32.819  1.00  0.00    -0.082 SA
BRANCH  12  13
HETATM   13  C   UNL     1      -9.148   1.066 -34.560  1.00  0.00     0.185 C 
BRANCH  13  14
HETATM   14  C   UNL     1      -7.861   0.284 -34.768  1.00  0.00     0.231 C 
HETATM   15  N   UNL     1      -7.625  -0.727 -33.857  1.00  0.00    -0.326 N 
HETATM   16  H   UNL     1      -8.266  -0.784 -33.068  1.00  0.00     0.169 HD
HETATM   17  O   UNL     1      -7.163   0.539 -35.749  1.00  0.00    -0.272 OA
BRANCH  15  18
HETATM   18  C   UNL     1      -6.547  -1.641 -33.850  1.00  0.00     0.036 A 
HETATM   19  C   UNL     1      -5.391  -1.482 -33.083  1.00  0.00     0.053 A 
HETATM   20  C   UNL     1      -4.366  -2.435 -33.133  1.00  0.00     0.042 A 
HETATM   21  C   UNL     1      -4.483  -3.578 -33.937  1.00  0.00    -0.040 A 
HETATM   22 CL   UNL     1      -2.951  -2.146 -32.179  1.00  0.00    -0.084 Cl
HETATM   23  C   UNL     1      -3.398  -4.613 -34.029  1.00  0.00     0.050 C 
HETATM   24  C   UNL     1      -5.637  -3.722 -34.720  1.00  0.00     0.011 A 
HETATM   25  C   UNL     1      -6.655  -2.763 -34.676  1.00  0.00     0.030 A 
ENDBRANCH  15  18
ENDBRANCH  13  14
ENDBRANCH  12  13
ENDBRANCH   1  12
BRANCH   2  26
HETATM   26  C   UNL     1     -11.176   3.887 -32.074  1.00  0.00     0.199 C 
BRANCH  26  27
HETATM   27  C   UNL     1     -11.801   4.119 -33.407  1.00  0.00     0.070 A 
HETATM   28  O   UNL     1     -12.265   3.024 -34.073  1.00  0.00    -0.325 OA
HETATM   29  C   UNL     1     -12.761   3.463 -35.259  1.00  0.00     0.142 A 
HETATM   30  C   UNL     1     -12.625   4.826 -35.364  1.00  0.00     0.027 A 
HETATM   31  C   UNL     1     -12.004   5.254 -34.166  1.00  0.00     0.036 A 
ENDBRANCH  26  27
ENDBRANCH   2  26
BRANCH   9  32
HETATM   32  C   UNL     1      -3.722   5.891 -33.529  1.00  0.00     0.253 C 
HETATM   33  N   UNL     1      -2.731   6.097 -32.565  1.00  0.00    -0.348 N 
HETATM   34  C   UNL     1      -1.358   6.219 -33.051  1.00  0.00     0.127 C 
HETATM   35  C   UNL     1      -2.857   5.647 -31.178  1.00  0.00     0.127 C 
HETATM   36  C   UNL     1      -0.508   7.094 -32.132  1.00  0.00     0.034 C 
HETATM   37  C   UNL     1      -0.605   6.687 -30.657  1.00  0.00     0.081 C 
HETATM   38  C   UNL     1      -2.071   6.548 -30.231  1.00  0.00     0.034 C 
HETATM   39  O   UNL     1      -3.516   5.864 -34.739  1.00  0.00    -0.267 OA
BRANCH  37  40
HETATM   40  C   UNL     1       0.186   5.419 -30.359  1.00  0.00     0.219 C 
HETATM   41  N   UNL     1       0.179   5.026 -29.052  1.00  0.00    -0.370 N 
HETATM   42  H   UNL     1      -0.089   5.651 -28.304  1.00  0.00     0.159 HD
HETATM   43  H   UNL     1       0.767   4.236 -28.817  1.00  0.00     0.159 HD
HETATM   44  O   UNL     1       0.795   4.766 -31.197  1.00  0.00    -0.273 OA
ENDBRANCH  37  40
ENDBRANCH   9  32
TORSDOF 8
ENDMDL
MODEL 2
REMARK VINA RESULT:      -9.9      2.867      8.439
REMARK  8 active torsions:
REMARK  status: ('A' for Active; 'I' for Inactive)
REMARK    1  A    between atoms: C_6  and  N_7 
REMARK       I    between atoms: N_7  and  C_8 
REMARK    2  A    between atoms: C_8  and  C_9 
REMARK    3  A    between atoms: C_9  and  S_10 
REMARK    4  A    between atoms: S_10  and  C_11 
REMARK    5  A    between atoms: N_12  and  C_13 
REMARK    6  A    between atoms: C_13  and  C_14 
REMARK    7  A    between atoms: C_25  and  C_26 
REMARK       I    between atoms: C_26  and  N_27 
REMARK    8  A    between atoms: C_30  and  C_31 
REMARK       I    between atoms: C_31  and  N_32 
ROOT
HETATM    1  C   UNL     1      -6.711   3.398 -31.238  1.00  0.00     0.172 C 
HETATM    2  N   UNL     1      -6.364   4.623 -31.773  1.00  0.00    -0.286 N 
HETATM    3  C   UNL     1      -7.055   5.126 -32.872  1.00  0.00     0.262 C 
HETATM    4  O   UNL     1      -6.733   6.139 -33.487  1.00  0.00    -0.267 OA
HETATM    5  C   UNL     1      -8.252   4.382 -33.293  1.00  0.00     0.061 A 
HETATM    6  C   UNL     1      -8.543   3.191 -32.628  1.00  0.00     0.076 A 
HETATM    7  C   UNL     1      -9.090   4.883 -34.298  1.00  0.00     0.020 A 
HETATM    8  C   UNL     1     -10.259   4.197 -34.621  1.00  0.00     0.018 A 
HETATM    9  C   UNL     1     -10.581   3.029 -33.925  1.00  0.00     0.034 A 
HETATM   10  C   UNL     1      -9.716   2.508 -32.954  1.00  0.00     0.050 A 
HETATM   11  N   UNL     1      -7.707   2.671 -31.631  1.00  0.00    -0.224 NA
ENDROOT
BRANCH   1  12
HETATM   12  S   UNL     1      -5.733   2.693 -29.973  1.00  0.00    -0.082 SA
BRANCH  12  13
HETATM   13  C   UNL     1      -4.602   1.741 -31.025  1.00  0.00     0.185 C 
BRANCH  13  14
HETATM   14  C   UNL     1      -5.167   0.416 -31.511  1.00  0.00     0.231 C 
HETATM   15  N   UNL     1      -4.766   0.025 -32.774  1.00  0.00    -0.326 N 
HETATM   16  H   UNL     1      -4.227   0.705 -33.308  1.00  0.00     0.169 HD
HETATM   17  O   UNL     1      -5.866  -0.247 -30.746  1.00  0.00    -0.272 OA
BRANCH  15  18
HETATM   18  C   UNL     1      -5.088  -1.177 -33.441  1.00  0.00     0.036 A 
HETATM   19  C   UNL     1      -4.250  -2.294 -33.492  1.00  0.00     0.053 A 
HETATM   20  C   UNL     1      -4.643  -3.451 -34.177  1.00  0.00     0.042 A 
HETATM   21  C   UNL     1      -5.893  -3.524 -34.809  1.00  0.00    -0.040 A 
HETATM   22 CL   UNL     1      -3.532  -4.776 -34.222  1.00  0.00    -0.084 Cl
HETATM   23  C   UNL     1      -6.342  -4.741 -35.566  1.00  0.00     0.050 C 
HETATM   24  C   UNL     1      -6.721  -2.393 -34.772  1.00  0.00     0.011 A 
HETATM   25  C   UNL     1      -6.321  -1.235 -34.097  1.00  0.00     0.030 A 
ENDBRANCH  15  18
ENDBRANCH  13  14
ENDBRANCH  12  13
ENDBRANCH   1  12
BRANCH   2  26
HETATM   26  C   UNL     1      -5.315   5.496 -31.239  1.00  0.00     0.199 C 
BRANCH  26  27
HETATM   27  C   UNL     1      -4.004   5.083 -31.815  1.00  0.00     0.070 A 
HETATM   28  O   UNL     1      -2.914   5.171 -31.000  1.00  0.00    -0.325 OA
HETATM   29  C   UNL     1      -1.841   4.776 -31.732  1.00  0.00     0.142 A 
HETATM   30  C   UNL     1      -2.224   4.433 -33.006  1.00  0.00     0.027 A 
HETATM   31  C   UNL     1      -3.625   4.630 -33.062  1.00  0.00     0.036 A 
ENDBRANCH  26  27
ENDBRANCH   2  26
BRANCH   9  32
HETATM   32  C   UNL     1     -11.834   2.325 -34.263  1.00  0.00     0.253 C 
HETATM   33  N   UNL     1     -12.945   2.493 -33.431  1.00  0.00    -0.348 N 
HETATM   34  C   UNL     1     -14.177   1.821 -33.839  1.00  0.00     0.127 C 
HETATM   35  C   UNL     1     -13.134   3.664 -32.575  1.00  0.00     0.127 C 
HETATM   36  C   UNL     1     -15.050   1.462 -32.638  1.00  0.00     0.034 C 
HETATM   37  C   UNL     1     -15.278   2.643 -31.687  1.00  0.00     0.081 C 
HETATM   38  C   UNL     1     -13.946   3.315 -31.332  1.00  0.00     0.034 C 
HETATM   39  O   UNL     1     -11.820   1.615 -35.265  1.00  0.00    -0.267 OA
BRANCH  37  40
HETATM   40  C   UNL     1     -16.277   3.647 -32.250  1.00  0.00     0.219 C 
HETATM   41  N   UNL     1     -17.364   3.097 -32.866  1.00  0.00    -0.370 N 
HETATM   42  H   UNL     1     -17.381   2.132 -33.167  1.00  0.00     0.159 HD
HETATM   43  H   UNL     1     -17.997   3.743 -33.322  1.00  0.00     0.159 HD
HETATM   44  O   UNL     1     -16.158   4.863 -32.177  1.00  0.00    -0.273 OA
ENDBRANCH  37  40
ENDBRANCH   9  32
TORSDOF 8
ENDMDL
MODEL 3
REMARK VINA RESULT:      -9.8      2.553      7.907
REMARK  8 active torsions:
REMARK  status: ('A' for Active; 'I' for Inactive)
REMARK    1  A    between atoms: C_6  and  N_7 
REMARK       I    between atoms: N_7  and  C_8 
REMARK    2  A    between atoms: C_8  and  C_9 
REMARK    3  A    between atoms: C_9  and  S_10 
REMARK    4  A    between atoms: S_10  and  C_11 
REMARK    5  A    between atoms: N_12  and  C_13 
REMARK    6  A    between atoms: C_13  and  C_14 
REMARK    7  A    between atoms: C_25  and  C_26 
REMARK       I    between atoms: C_26  and  N_27 
REMARK    8  A    between atoms: C_30  and  C_31 
REMARK       I    between atoms: C_31  and  N_32 
ROOT
HETATM    1  C   UNL     1      -4.988   4.382 -32.502  1.00  0.00     0.172 C 
HETATM    2  N   UNL     1      -4.992   5.452 -31.631  1.00  0.00    -0.286 N 
HETATM    3  C   UNL     1      -6.037   6.371 -31.658  1.00  0.00     0.262 C 
HETATM    4  O   UNL     1      -6.056   7.416 -31.012  1.00  0.00    -0.267 OA
HETATM    5  C   UNL     1      -7.185   6.037 -32.516  1.00  0.00     0.061 A 
HETATM    6  C   UNL     1      -7.096   4.888 -33.300  1.00  0.00     0.076 A 
HETATM    7  C   UNL     1      -8.341   6.828 -32.504  1.00  0.00     0.020 A 
HETATM    8  C   UNL     1      -9.442   6.443 -33.267  1.00  0.00     0.018 A 
HETATM    9  C   UNL     1      -9.377   5.267 -34.017  1.00  0.00     0.034 A 
HETATM   10  C   UNL     1      -8.202   4.505 -34.060  1.00  0.00     0.050 A 
HETATM   11  N   UNL     1      -5.940   4.096 -33.332  1.00  0.00    -0.224 NA
ENDROOT
BRANCH   1  12
HETATM   12  S   UNL     1      -3.594   3.330 -32.584  1.00  0.00    -0.082 SA
BRANCH  12  13
HETATM   13  C   UNL     1      -3.995   2.265 -31.171  1.00  0.00     0.185 C 
BRANCH  13  14
HETATM   14  C   UNL     1      -4.668   0.955 -31.547  1.00  0.00     0.231 C 
HETATM   15  N   UNL     1      -4.437   0.516 -32.836  1.00  0.00    -0.326 N 
HETATM   16  H   UNL     1      -3.938   1.158 -33.450  1.00  0.00     0.169 HD
HETATM   17  O   UNL     1      -5.299   0.343 -30.685  1.00  0.00    -0.272 OA
BRANCH  15  18
HETATM   18  C   UNL     1      -4.886  -0.687 -33.425  1.00  0.00     0.036 A 
HETATM   19  C   UNL     1      -4.150  -1.873 -33.442  1.00  0.00     0.053 A 
HETATM   20  C   UNL     1      -4.667  -3.026 -34.048  1.00  0.00     0.042 A 
HETATM   21  C   UNL     1      -5.941  -3.022 -34.633  1.00  0.00    -0.040 A 
HETATM   22 CL   UNL     1      -3.675  -4.444 -34.056  1.00  0.00    -0.084 Cl
HETATM   23  C   UNL     1      -6.521  -4.232 -35.307  1.00  0.00     0.050 C 
HETATM   24  C   UNL     1      -6.667  -1.822 -34.632  1.00  0.00     0.011 A 
HETATM   25  C   UNL     1      -6.143  -0.670 -34.035  1.00  0.00     0.030 A 
ENDBRANCH  15  18
ENDBRANCH  13  14
ENDBRANCH  12  13
ENDBRANCH   1  12
BRANCH   2  26
HETATM   26  C   UNL     1      -3.970   5.695 -30.609  1.00  0.00     0.199 C 
BRANCH  26  27
HETATM   27  C   UNL     1      -2.804   6.371 -31.243  1.00  0.00     0.070 A 
HETATM   28  O   UNL     1      -1.564   5.911 -30.910  1.00  0.00    -0.325 OA
HETATM   29  C   UNL     1      -0.664   6.681 -31.575  1.00  0.00     0.142 A 
HETATM   30  C   UNL     1      -1.308   7.629 -32.334  1.00  0.00     0.027 A 
HETATM   31  C   UNL     1      -2.693   7.430 -32.122  1.00  0.00     0.036 A 
ENDBRANCH  26  27
ENDBRANCH   2  26
BRANCH   9  32
HETATM   32  C   UNL     1     -10.559   4.860 -34.803  1.00  0.00     0.253 C 
HETATM   33  N   UNL     1     -11.100   3.588 -34.593  1.00  0.00    -0.348 N 
HETATM   34  C   UNL     1     -12.303   3.254 -35.353  1.00  0.00     0.127 C 
HETATM   35  C   UNL     1     -10.929   2.841 -33.346  1.00  0.00     0.127 C 
HETATM   36  C   UNL     1     -12.406   1.753 -35.618  1.00  0.00     0.034 C 
HETATM   37  C   UNL     1     -12.221   0.906 -34.353  1.00  0.00     0.081 C 
HETATM   38  C   UNL     1     -10.959   1.336 -33.595  1.00  0.00     0.034 C 
HETATM   39  O   UNL     1     -10.994   5.673 -35.612  1.00  0.00    -0.267 OA
BRANCH  37  40
HETATM   40  C   UNL     1     -13.452   0.941 -33.456  1.00  0.00     0.219 C 
HETATM   41  N   UNL     1     -14.160  -0.225 -33.400  1.00  0.00    -0.370 N 
HETATM   42  H   UNL     1     -14.049  -0.955 -34.090  1.00  0.00     0.159 HD
HETATM   43  H   UNL     1     -15.028  -0.198 -32.878  1.00  0.00     0.159 HD
HETATM   44  O   UNL     1     -13.815   1.916 -32.811  1.00  0.00    -0.273 OA
ENDBRANCH  37  40
ENDBRANCH   9  32
TORSDOF 8
ENDMDL
MODEL 4
REMARK VINA RESULT:      -9.7      2.578      7.919
REMARK  8 active torsions:
REMARK  status: ('A' for Active; 'I' for Inactive)
REMARK    1  A    between atoms: C_6  and  N_7 
REMARK       I    between atoms: N_7  and  C_8 
REMARK    2  A    between atoms: C_8  and  C_9 
REMARK    3  A    between atoms: C_9  and  S_10 
REMARK    4  A    between atoms: S_10  and  C_11 
REMARK    5  A    between atoms: N_12  and  C_13 
REMARK    6  A    between atoms: C_13  and  C_14 
REMARK    7  A    between atoms: C_25  and  C_26 
REMARK       I    between atoms: C_26  and  N_27 
REMARK    8  A    between atoms: C_30  and  C_31 
REMARK       I    between atoms: C_31  and  N_32 
ROOT
HETATM    1  C   UNL     1      -5.553   3.887 -31.718  1.00  0.00     0.172 C 
HETATM    2  N   UNL     1      -5.194   5.202 -31.939  1.00  0.00    -0.286 N 
HETATM    3  C   UNL     1      -6.149   6.126 -32.352  1.00  0.00     0.262 C 
HETATM    4  O   UNL     1      -5.893   7.279 -32.694  1.00  0.00    -0.267 OA
HETATM    5  C   UNL     1      -7.548   5.671 -32.358  1.00  0.00     0.061 A 
HETATM    6  C   UNL     1      -7.795   4.334 -32.046  1.00  0.00     0.076 A 
HETATM    7  C   UNL     1      -8.592   6.566 -32.624  1.00  0.00     0.020 A 
HETATM    8  C   UNL     1      -9.911   6.124 -32.545  1.00  0.00     0.018 A 
HETATM    9  C   UNL     1     -10.167   4.799 -32.186  1.00  0.00     0.034 A 
HETATM   10  C   UNL     1      -9.118   3.896 -31.966  1.00  0.00     0.050 A 
HETATM   11  N   UNL     1      -6.760   3.425 -31.792  1.00  0.00    -0.224 NA
ENDROOT
BRANCH   1  12
HETATM   12  S   UNL     1      -4.323   2.695 -31.369  1.00  0.00    -0.082 SA
BRANCH  12  13
HETATM   13  C   UNL     1      -5.318   1.605 -30.312  1.00  0.00     0.185 C 
BRANCH  13  14
HETATM   14  C   UNL     1      -5.767   0.320 -30.989  1.00  0.00     0.231 C 
HETATM   15  N   UNL     1      -5.180   0.053 -32.210  1.00  0.00    -0.326 N 
HETATM   16  H   UNL     1      -4.592   0.789 -32.600  1.00  0.00     0.169 HD
HETATM   17  O   UNL     1      -6.547  -0.422 -30.393  1.00  0.00    -0.272 OA
BRANCH  15  18
HETATM   18  C   UNL     1      -5.367  -1.089 -33.020  1.00  0.00     0.036 A 
HETATM   19  C   UNL     1      -4.431  -2.117 -33.152  1.00  0.00     0.053 A 
HETATM   20  C   UNL     1      -4.693  -3.219 -33.977  1.00  0.00     0.042 A 
HETATM   21  C   UNL     1      -5.906  -3.325 -34.672  1.00  0.00    -0.040 A 
HETATM   22 CL   UNL     1      -3.466  -4.431 -34.113  1.00  0.00    -0.084 Cl
HETATM   23  C   UNL     1      -6.215  -4.482 -35.579  1.00  0.00     0.050 C 
HETATM   24  C   UNL     1      -6.833  -2.281 -34.552  1.00  0.00     0.011 A 
HETATM   25  C   UNL     1      -6.564  -1.176 -33.736  1.00  0.00     0.030 A 
ENDBRANCH  15  18
ENDBRANCH  13  14
ENDBRANCH  12  13
ENDBRANCH   1  12
BRANCH   2  26
HETATM   26  C   UNL     1      -3.848   5.741 -31.730  1.00  0.00     0.199 C 
BRANCH  26  27
HETATM   27  C   UNL     1      -3.050   5.545 -32.973  1.00  0.00     0.070 A 
HETATM   28  O   UNL     1      -1.708   5.771 -32.890  1.00  0.00    -0.325 OA
HETATM   29  C   UNL     1      -1.194   5.561 -34.129  1.00  0.00     0.142 A 
HETATM   30  C   UNL     1      -2.187   5.200 -35.009  1.00  0.00     0.027 A 
HETATM   31  C   UNL     1      -3.389   5.188 -34.263  1.00  0.00     0.036 A 
ENDBRANCH  26  27
ENDBRANCH   2  26
BRANCH   9  32
HETATM   32  C   UNL     1     -11.570   4.351 -32.084  1.00  0.00     0.253 C 
HETATM   33  N   UNL     1     -11.977   3.240 -32.829  1.00  0.00    -0.348 N 
HETATM   34  C   UNL     1     -13.360   2.801 -32.651  1.00  0.00     0.127 C 
HETATM   35  C   UNL     1     -11.054   2.201 -33.287  1.00  0.00     0.127 C 
HETATM   36  C   UNL     1     -13.905   2.125 -33.907  1.00  0.00     0.034 C 
HETATM   37  C   UNL     1     -12.979   1.033 -34.452  1.00  0.00     0.081 C 
HETATM   38  C   UNL     1     -11.543   1.558 -34.581  1.00  0.00     0.034 C 
HETATM   39  O   UNL     1     -12.308   4.998 -31.347  1.00  0.00    -0.267 OA
BRANCH  37  40
HETATM   40  C   UNL     1     -13.036  -0.238 -33.613  1.00  0.00     0.219 C 
HETATM   41  N   UNL     1     -14.288  -0.746 -33.419  1.00  0.00    -0.370 N 
HETATM   42  H   UNL     1     -15.122  -0.197 -33.577  1.00  0.00     0.159 HD
HETATM   43  H   UNL     1     -14.359  -1.540 -32.794  1.00  0.00     0.159 HD
HETATM   44  O   UNL     1     -12.060  -0.798 -33.131  1.00  0.00    -0.273 OA
ENDBRANCH  37  40
ENDBRANCH   9  32
TORSDOF 8
ENDMDL
MODEL 5
REMARK VINA RESULT:      -9.5      1.572      1.895
REMARK  8 active torsions:
REMARK  status: ('A' for Active; 'I' for Inactive)
REMARK    1  A    between atoms: C_6  and  N_7 
REMARK       I    between atoms: N_7  and  C_8 
REMARK    2  A    between atoms: C_8  and  C_9 
REMARK    3  A    between atoms: C_9  and  S_10 
REMARK    4  A    between atoms: S_10  and  C_11 
REMARK    5  A    between atoms: N_12  and  C_13 
REMARK    6  A    between atoms: C_13  and  C_14 
REMARK    7  A    between atoms: C_25  and  C_26 
REMARK       I    between atoms: C_26  and  N_27 
REMARK    8  A    between atoms: C_30  and  C_31 
REMARK       I    between atoms: C_31  and  N_32 
ROOT
HETATM    1  C   UNL     1      -9.295   4.114 -33.744  1.00  0.00     0.172 C 
HETATM    2  N   UNL     1      -9.899   5.087 -32.973  1.00  0.00    -0.286 N 
HETATM    3  C   UNL     1      -9.121   6.000 -32.267  1.00  0.00     0.262 C 
HETATM    4  O   UNL     1      -9.568   6.812 -31.460  1.00  0.00    -0.267 OA
HETATM    5  C   UNL     1      -7.674   5.977 -32.533  1.00  0.00     0.061 A 
HETATM    6  C   UNL     1      -7.188   4.990 -33.389  1.00  0.00     0.076 A 
HETATM    7  C   UNL     1      -6.828   6.946 -31.978  1.00  0.00     0.020 A 
HETATM    8  C   UNL     1      -5.475   6.947 -32.311  1.00  0.00     0.018 A 
HETATM    9  C   UNL     1      -4.991   5.989 -33.205  1.00  0.00     0.034 A 
HETATM   10  C   UNL     1      -5.832   4.996 -33.722  1.00  0.00     0.050 A 
HETATM   11  N   UNL     1      -8.020   4.007 -33.941  1.00  0.00    -0.224 NA
ENDROOT
BRANCH   1  12
HETATM   12  S   UNL     1     -10.267   2.866 -34.488  1.00  0.00    -0.082 SA
BRANCH  12  13
HETATM   13  C   UNL     1     -10.452   1.789 -33.039  1.00  0.00     0.185 C 
BRANCH  13  14
HETATM   14  C   UNL     1      -9.600   0.531 -33.084  1.00  0.00     0.231 C 
HETATM   15  N   UNL     1      -8.343   0.682 -33.637  1.00  0.00    -0.326 N 
HETATM   16  H   UNL     1      -8.144   1.584 -34.067  1.00  0.00     0.169 HD
HETATM   17  O   UNL     1     -10.037  -0.500 -32.572  1.00  0.00    -0.272 OA
BRANCH  15  18
HETATM   18  C   UNL     1      -7.333  -0.298 -33.749  1.00  0.00     0.036 A 
HETATM   19  C   UNL     1      -7.516  -1.549 -34.341  1.00  0.00     0.053 A 
HETATM   20  C   UNL     1      -6.461  -2.467 -34.412  1.00  0.00     0.042 A 
HETATM   21  C   UNL     1      -5.192  -2.146 -33.909  1.00  0.00    -0.040 A 
HETATM   22 CL   UNL     1      -6.782  -4.009 -35.129  1.00  0.00    -0.084 Cl
HETATM   23  C   UNL     1      -4.041  -3.110 -33.952  1.00  0.00     0.050 C 
HETATM   24  C   UNL     1      -5.018  -0.896 -33.298  1.00  0.00     0.011 A 
HETATM   25  C   UNL     1      -6.078   0.015 -33.219  1.00  0.00     0.030 A 
ENDBRANCH  15  18
ENDBRANCH  13  14
ENDBRANCH  12  13
ENDBRANCH   1  12
BRANCH   2  26
HETATM   26  C   UNL     1     -11.347   5.278 -32.859  1.00  0.00     0.199 C 
BRANCH  26  27
HETATM   27  C   UNL     1     -11.844   5.952 -34.092  1.00  0.00     0.070 A 
HETATM   28  O   UNL     1     -12.939   5.410 -34.696  1.00  0.00    -0.325 OA
HETATM   29  C   UNL     1     -13.194   6.160 -35.799  1.00  0.00     0.142 A 
HETATM   30  C   UNL     1     -12.278   7.179 -35.912  1.00  0.00     0.027 A 
HETATM   31  C   UNL     1     -11.404   7.047 -34.807  1.00  0.00     0.036 A 
ENDBRANCH  26  27
ENDBRANCH   2  26
BRANCH   9  32
HETATM   32  C   UNL     1      -3.559   6.016 -33.566  1.00  0.00     0.253 C 
HETATM   33  N   UNL     1      -2.613   6.184 -32.551  1.00  0.00    -0.348 N 
HETATM   34  C   UNL     1      -1.208   6.147 -32.952  1.00  0.00     0.127 C 
HETATM   35  C   UNL     1      -2.867   5.831 -31.154  1.00  0.00     0.127 C 
HETATM   36  C   UNL     1      -0.333   6.991 -32.026  1.00  0.00     0.034 C 
HETATM   37  C   UNL     1      -0.559   6.682 -30.541  1.00  0.00     0.081 C 
HETATM   38  C   UNL     1      -2.055   6.708 -30.206  1.00  0.00     0.034 C 
HETATM   39  O   UNL     1      -3.285   5.899 -34.757  1.00  0.00    -0.267 OA
BRANCH  37  40
HETATM   40  C   UNL     1       0.085   5.365 -30.126  1.00  0.00     0.219 C 
HETATM   41  N   UNL     1       0.236   5.195 -28.780  1.00  0.00    -0.370 N 
HETATM   42  H   UNL     1       0.185   5.967 -28.131  1.00  0.00     0.159 HD
HETATM   43  H   UNL     1       0.738   4.366 -28.486  1.00  0.00     0.159 HD
HETATM   44  O   UNL     1       0.451   4.494 -30.904  1.00  0.00    -0.273 OA
ENDBRANCH  37  40
ENDBRANCH   9  32
TORSDOF 8
ENDMDL
MODEL 6
REMARK VINA RESULT:      -9.4      1.661      1.935
REMARK  8 active torsions:
REMARK  status: ('A' for Active; 'I' for Inactive)
REMARK    1  A    between atoms: C_6  and  N_7 
REMARK       I    between atoms: N_7  and  C_8 
REMARK    2  A    between atoms: C_8  and  C_9 
REMARK    3  A    between atoms: C_9  and  S_10 
REMARK    4  A    between atoms: S_10  and  C_11 
REMARK    5  A    between atoms: N_12  and  C_13 
REMARK    6  A    between atoms: C_13  and  C_14 
REMARK    7  A    between atoms: C_25  and  C_26 
REMARK       I    between atoms: C_26  and  N_27 
REMARK    8  A    between atoms: C_30  and  C_31 
REMARK       I    between atoms: C_31  and  N_32 
ROOT
HETATM    1  C   UNL     1      -8.603   4.172 -33.686  1.00  0.00     0.172 C 
HETATM    2  N   UNL     1      -9.137   5.381 -33.286  1.00  0.00    -0.286 N 
HETATM    3  C   UNL     1      -8.328   6.333 -32.672  1.00  0.00     0.262 C 
HETATM    4  O   UNL     1      -8.744   7.375 -32.172  1.00  0.00    -0.267 OA
HETATM    5  C   UNL     1      -6.884   6.052 -32.647  1.00  0.00     0.061 A 
HETATM    6  C   UNL     1      -6.453   4.823 -33.147  1.00  0.00     0.076 A 
HETATM    7  C   UNL     1      -5.976   7.010 -32.177  1.00  0.00     0.020 A 
HETATM    8  C   UNL     1      -4.609   6.747 -32.238  1.00  0.00     0.018 A 
HETATM    9  C   UNL     1      -4.169   5.538 -32.782  1.00  0.00     0.034 A 
HETATM   10  C   UNL     1      -5.083   4.565 -33.209  1.00  0.00     0.050 A 
HETATM   11  N   UNL     1      -7.351   3.851 -33.607  1.00  0.00    -0.224 NA
ENDROOT
BRANCH   1  12
HETATM   12  S   UNL     1      -9.653   2.915 -34.296  1.00  0.00    -0.082 SA
BRANCH  12  13
HETATM   13  C   UNL     1      -9.863   1.986 -32.752  1.00  0.00     0.185 C 
BRANCH  13  14
HETATM   14  C   UNL     1      -8.962   0.768 -32.628  1.00  0.00     0.231 C 
HETATM   15  N   UNL     1      -7.966   0.665 -33.580  1.00  0.00    -0.326 N 
HETATM   16  H   UNL     1      -7.994   1.344 -34.339  1.00  0.00     0.169 HD
HETATM   17  O   UNL     1      -9.121   0.007 -31.674  1.00  0.00    -0.272 OA
BRANCH  15  18
HETATM   18  C   UNL     1      -6.961  -0.324 -33.665  1.00  0.00     0.036 A 
HETATM   19  C   UNL     1      -5.810  -0.342 -32.874  1.00  0.00     0.053 A 
HETATM   20  C   UNL     1      -4.859  -1.359 -33.021  1.00  0.00     0.042 A 
HETATM   21  C   UNL     1      -5.049  -2.394 -33.949  1.00  0.00    -0.040 A 
HETATM   22 CL   UNL     1      -3.444  -1.288 -32.028  1.00  0.00    -0.084 Cl
HETATM   23  C   UNL     1      -4.043  -3.492 -34.146  1.00  0.00     0.050 C 
HETATM   24  C   UNL     1      -6.195  -2.359 -34.754  1.00  0.00     0.011 A 
HETATM   25  C   UNL     1      -7.139  -1.335 -34.613  1.00  0.00     0.030 A 
ENDBRANCH  15  18
ENDBRANCH  13  14
ENDBRANCH  12  13
ENDBRANCH   1  12
BRANCH   2  26
HETATM   26  C   UNL     1     -10.530   5.783 -33.496  1.00  0.00     0.199 C 
BRANCH  26  27
HETATM   27  C   UNL     1     -11.381   5.138 -32.456  1.00  0.00     0.070 A 
HETATM   28  O   UNL     1     -12.577   4.627 -32.864  1.00  0.00    -0.325 OA
HETATM   29  C   UNL     1     -13.187   4.120 -31.762  1.00  0.00     0.142 A 
HETATM   30  C   UNL     1     -12.399   4.297 -30.649  1.00  0.00     0.027 A 
HETATM   31  C   UNL     1     -11.229   4.955 -31.096  1.00  0.00     0.036 A 
ENDBRANCH  26  27
ENDBRANCH   2  26
BRANCH   9  32
HETATM   32  C   UNL     1      -2.717   5.283 -32.862  1.00  0.00     0.253 C 
HETATM   33  N   UNL     1      -1.894   5.762 -31.839  1.00  0.00    -0.348 N 
HETATM   34  C   UNL     1      -0.472   5.435 -31.934  1.00  0.00     0.127 C 
HETATM   35  C   UNL     1      -2.376   6.036 -30.485  1.00  0.00     0.127 C 
HETATM   36  C   UNL     1       0.398   6.499 -31.267  1.00  0.00     0.034 C 
HETATM   37  C   UNL     1      -0.060   6.846 -29.846  1.00  0.00     0.081 C 
HETATM   38  C   UNL     1      -1.564   7.144 -29.822  1.00  0.00     0.034 C 
HETATM   39  O   UNL     1      -2.315   4.665 -33.843  1.00  0.00    -0.267 OA
BRANCH  37  40
HETATM   40  C   UNL     1       0.311   5.759 -28.843  1.00  0.00     0.219 C 
HETATM   41  N   UNL     1      -0.293   5.868 -27.624  1.00  0.00    -0.370 N 
HETATM   42  H   UNL     1      -0.727   6.726 -27.313  1.00  0.00     0.159 HD
HETATM   43  H   UNL     1       0.003   5.207 -26.915  1.00  0.00     0.159 HD
HETATM   44  O   UNL     1       1.083   4.837 -29.070  1.00  0.00    -0.273 OA
ENDBRANCH  37  40
ENDBRANCH   9  32
TORSDOF 8
ENDMDL
MODEL 7
REMARK VINA RESULT:      -9.2      1.785      2.483
REMARK  8 active torsions:
REMARK  status: ('A' for Active; 'I' for Inactive)
REMARK    1  A    between atoms: C_6  and  N_7 
REMARK       I    between atoms: N_7  and  C_8 
REMARK    2  A    between atoms: C_8  and  C_9 
REMARK    3  A    between atoms: C_9  and  S_10 
REMARK    4  A    between atoms: S_10  and  C_11 
REMARK    5  A    between atoms: N_12  and  C_13 
REMARK    6  A    between atoms: C_13  and  C_14 
REMARK    7  A    between atoms: C_25  and  C_26 
REMARK       I    between atoms: C_26  and  N_27 
REMARK    8  A    between atoms: C_30  and  C_31 
REMARK       I    between atoms: C_31  and  N_32 
ROOT
HETATM    1  C   UNL     1      -9.958   3.040 -33.070  1.00  0.00     0.172 C 
HETATM    2  N   UNL     1     -10.775   4.139 -33.245  1.00  0.00    -0.286 N 
HETATM    3  C   UNL     1     -10.442   5.357 -32.659  1.00  0.00     0.262 C 
HETATM    4  O   UNL     1     -11.171   6.346 -32.655  1.00  0.00    -0.267 OA
HETATM    5  C   UNL     1      -9.119   5.440 -32.019  1.00  0.00     0.061 A 
HETATM    6  C   UNL     1      -8.351   4.277 -31.966  1.00  0.00     0.076 A 
HETATM    7  C   UNL     1      -8.638   6.659 -31.525  1.00  0.00     0.020 A 
HETATM    8  C   UNL     1      -7.350   6.724 -30.996  1.00  0.00     0.018 A 
HETATM    9  C   UNL     1      -6.557   5.574 -30.984  1.00  0.00     0.034 A 
HETATM   10  C   UNL     1      -7.061   4.348 -31.438  1.00  0.00     0.050 A 
HETATM   11  N   UNL     1      -8.825   3.049 -32.445  1.00  0.00    -0.224 NA
ENDROOT
BRANCH   1  12
HETATM   12  S   UNL     1     -10.466   1.475 -33.661  1.00  0.00    -0.082 SA
BRANCH  12  13
HETATM   13  C   UNL     1      -8.967   1.056 -34.594  1.00  0.00     0.185 C 
BRANCH  13  14
HETATM   14  C   UNL     1      -8.156  -0.081 -33.994  1.00  0.00     0.231 C 
HETATM   15  N   UNL     1      -7.073  -0.500 -34.743  1.00  0.00    -0.326 N 
HETATM   16  H   UNL     1      -6.983  -0.094 -35.673  1.00  0.00     0.169 HD
HETATM   17  O   UNL     1      -8.457  -0.499 -32.876  1.00  0.00    -0.272 OA
BRANCH  15  18
HETATM   18  C   UNL     1      -6.124  -1.487 -34.399  1.00  0.00     0.036 A 
HETATM   19  C   UNL     1      -5.105  -1.302 -33.462  1.00  0.00     0.053 A 
HETATM   20  C   UNL     1      -4.202  -2.333 -33.177  1.00  0.00     0.042 A 
HETATM   21  C   UNL     1      -4.309  -3.580 -33.808  1.00  0.00    -0.040 A 
HETATM   22 CL   UNL     1      -2.947  -2.010 -32.030  1.00  0.00    -0.084 Cl
HETATM   23  C   UNL     1      -3.349  -4.704 -33.541  1.00  0.00     0.050 C 
HETATM   24  C   UNL     1      -5.321  -3.754 -34.763  1.00  0.00     0.011 A 
HETATM   25  C   UNL     1      -6.216  -2.718 -35.054  1.00  0.00     0.030 A 
ENDBRANCH  15  18
ENDBRANCH  13  14
ENDBRANCH  12  13
ENDBRANCH   1  12
BRANCH   2  26
HETATM   26  C   UNL     1     -11.991   4.149 -34.062  1.00  0.00     0.199 C 
BRANCH  26  27
HETATM   27  C   UNL     1     -13.082   3.466 -33.311  1.00  0.00     0.070 A 
HETATM   28  O   UNL     1     -13.346   3.917 -32.052  1.00  0.00    -0.325 OA
HETATM   29  C   UNL     1     -14.343   3.142 -31.555  1.00  0.00     0.142 A 
HETATM   30  C   UNL     1     -14.727   2.197 -32.477  1.00  0.00     0.027 A 
HETATM   31  C   UNL     1     -13.913   2.406 -33.616  1.00  0.00     0.036 A 
ENDBRANCH  26  27
ENDBRANCH   2  26
BRANCH   9  32
HETATM   32  C   UNL     1      -5.187   5.663 -30.442  1.00  0.00     0.253 C 
HETATM   33  N   UNL     1      -4.110   5.659 -31.333  1.00  0.00    -0.348 N 
HETATM   34  C   UNL     1      -2.777   5.806 -30.751  1.00  0.00     0.127 C 
HETATM   35  C   UNL     1      -4.225   6.080 -32.729  1.00  0.00     0.127 C 
HETATM   36  C   UNL     1      -1.710   5.118 -31.600  1.00  0.00     0.034 C 
HETATM   37  C   UNL     1      -1.781   5.504 -33.082  1.00  0.00     0.081 C 
HETATM   38  C   UNL     1      -3.213   5.354 -33.611  1.00  0.00     0.034 C 
HETATM   39  O   UNL     1      -5.076   5.725 -29.221  1.00  0.00    -0.267 OA
BRANCH  37  40
HETATM   40  C   UNL     1      -1.235   6.903 -33.337  1.00  0.00     0.219 C 
HETATM   41  N   UNL     1      -0.287   7.324 -32.449  1.00  0.00    -0.370 N 
HETATM   42  H   UNL     1      -0.153   6.876 -31.553  1.00  0.00     0.159 HD
HETATM   43  H   UNL     1       0.027   8.282 -32.548  1.00  0.00     0.159 HD
HETATM   44  O   UNL     1      -1.586   7.631 -34.257  1.00  0.00    -0.273 OA
ENDBRANCH  37  40
ENDBRANCH   9  32
TORSDOF 8
ENDMDL
MODEL 8
REMARK VINA RESULT:      -9.1      2.289      2.931
REMARK  8 active torsions:
REMARK  status: ('A' for Active; 'I' for Inactive)
REMARK    1  A    between atoms: C_6  and  N_7 
REMARK       I    between atoms: N_7  and  C_8 
REMARK    2  A    between atoms: C_8  and  C_9 
REMARK    3  A    between atoms: C_9  and  S_10 
REMARK    4  A    between atoms: S_10  and  C_11 
REMARK    5  A    between atoms: N_12  and  C_13 
REMARK    6  A    between atoms: C_13  and  C_14 
REMARK    7  A    between atoms: C_25  and  C_26 
REMARK       I    between atoms: C_26  and  N_27 
REMARK    8  A    between atoms: C_30  and  C_31 
REMARK       I    between atoms: C_31  and  N_32 
ROOT
HETATM    1  C   UNL     1      -9.193   3.737 -33.257  1.00  0.00     0.172 C 
HETATM    2  N   UNL     1      -9.847   3.802 -32.043  1.00  0.00    -0.286 N 
HETATM    3  C   UNL     1      -9.137   3.634 -30.857  1.00  0.00     0.262 C 
HETATM    4  O   UNL     1      -9.655   3.549 -29.747  1.00  0.00    -0.267 OA
HETATM    5  C   UNL     1      -7.671   3.571 -30.971  1.00  0.00     0.061 A 
HETATM    6  C   UNL     1      -7.119   3.586 -32.252  1.00  0.00     0.076 A 
HETATM    7  C   UNL     1      -6.864   3.543 -29.827  1.00  0.00     0.020 A 
HETATM    8  C   UNL     1      -5.478   3.563 -29.964  1.00  0.00     0.018 A 
HETATM    9  C   UNL     1      -4.919   3.627 -31.243  1.00  0.00     0.034 A 
HETATM   10  C   UNL     1      -5.730   3.609 -32.385  1.00  0.00     0.050 A 
HETATM   11  N   UNL     1      -7.914   3.601 -33.405  1.00  0.00    -0.224 NA
ENDROOT
BRANCH   1  12
HETATM   12  S   UNL     1     -10.112   3.775 -34.743  1.00  0.00    -0.082 SA
BRANCH  12  13
HETATM   13  C   UNL     1     -10.824   2.108 -34.645  1.00  0.00     0.185 C 
BRANCH  13  14
HETATM   14  C   UNL     1      -9.864   1.049 -34.128  1.00  0.00     0.231 C 
HETATM   15  N   UNL     1      -8.739   0.836 -34.901  1.00  0.00    -0.326 N 
HETATM   16  H   UNL     1      -8.708   1.318 -35.797  1.00  0.00     0.169 HD
HETATM   17  O   UNL     1     -10.100   0.512 -33.045  1.00  0.00    -0.272 OA
BRANCH  15  18
HETATM   18  C   UNL     1      -7.663  -0.038 -34.626  1.00  0.00     0.036 A 
HETATM   19  C   UNL     1      -7.691  -1.413 -34.865  1.00  0.00     0.053 A 
HETATM   20  C   UNL     1      -6.581  -2.212 -34.565  1.00  0.00     0.042 A 
HETATM   21  C   UNL     1      -5.410  -1.649 -34.037  1.00  0.00    -0.040 A 
HETATM   22 CL   UNL     1      -6.710  -3.913 -34.857  1.00  0.00    -0.084 Cl
HETATM   23  C   UNL     1      -4.206  -2.476 -33.687  1.00  0.00     0.050 C 
HETATM   24  C   UNL     1      -5.395  -0.271 -33.780  1.00  0.00     0.011 A 
HETATM   25  C   UNL     1      -6.510   0.524 -34.071  1.00  0.00     0.030 A 
ENDBRANCH  15  18
ENDBRANCH  13  14
ENDBRANCH  12  13
ENDBRANCH   1  12
BRANCH   2  26
HETATM   26  C   UNL     1     -11.276   4.084 -31.883  1.00  0.00     0.199 C 
BRANCH  26  27
HETATM   27  C   UNL     1     -11.451   5.531 -31.577  1.00  0.00     0.070 A 
HETATM   28  O   UNL     1     -12.221   5.848 -30.497  1.00  0.00    -0.325 OA
HETATM   29  C   UNL     1     -12.264   7.204 -30.426  1.00  0.00     0.142 A 
HETATM   30  C   UNL     1     -11.531   7.764 -31.444  1.00  0.00     0.027 A 
HETATM   31  C   UNL     1     -11.002   6.684 -32.190  1.00  0.00     0.036 A 
ENDBRANCH  26  27
ENDBRANCH   2  26
BRANCH   9  32
HETATM   32  C   UNL     1      -3.449   3.671 -31.373  1.00  0.00     0.253 C 
HETATM   33  N   UNL     1      -2.809   4.914 -31.350  1.00  0.00    -0.348 N 
HETATM   34  C   UNL     1      -1.349   4.901 -31.424  1.00  0.00     0.127 C 
HETATM   35  C   UNL     1      -3.384   6.099 -30.714  1.00  0.00     0.127 C 
HETATM   36  C   UNL     1      -0.805   6.169 -32.079  1.00  0.00     0.034 C 
HETATM   37  C   UNL     1      -1.379   7.453 -31.470  1.00  0.00     0.081 C 
HETATM   38  C   UNL     1      -2.909   7.378 -31.395  1.00  0.00     0.034 C 
HETATM   39  O   UNL     1      -2.871   2.596 -31.506  1.00  0.00    -0.267 OA
BRANCH  37  40
HETATM   40  C   UNL     1      -0.768   7.764 -30.109  1.00  0.00     0.219 C 
HETATM   41  N   UNL     1      -1.474   8.650 -29.347  1.00  0.00    -0.370 N 
HETATM   42  H   UNL     1      -2.182   9.254 -29.742  1.00  0.00     0.159 HD
HETATM   43  H   UNL     1      -1.043   8.937 -28.476  1.00  0.00     0.159 HD
HETATM   44  O   UNL     1       0.273   7.278 -29.686  1.00  0.00    -0.273 OA
ENDBRANCH  37  40
ENDBRANCH   9  32
TORSDOF 8
ENDMDL
MODEL 9
REMARK VINA RESULT:      -9.1      3.834     10.520
REMARK  8 active torsions:
REMARK  status: ('A' for Active; 'I' for Inactive)
REMARK    1  A    between atoms: C_6  and  N_7 
REMARK       I    between atoms: N_7  and  C_8 
REMARK    2  A    between atoms: C_8  and  C_9 
REMARK    3  A    between atoms: C_9  and  S_10 
REMARK    4  A    between atoms: S_10  and  C_11 
REMARK    5  A    between atoms: N_12  and  C_13 
REMARK    6  A    between atoms: C_13  and  C_14 
REMARK    7  A    between atoms: C_25  and  C_26 
REMARK       I    between atoms: C_26  and  N_27 
REMARK    8  A    between atoms: C_30  and  C_31 
REMARK       I    between atoms: C_31  and  N_32 
ROOT
HETATM    1  C   UNL     1      -5.714   3.966 -31.096  1.00  0.00     0.172 C 
HETATM    2  N   UNL     1      -4.905   2.936 -31.532  1.00  0.00    -0.286 N 
HETATM    3  C   UNL     1      -5.399   1.993 -32.429  1.00  0.00     0.262 C 
HETATM    4  O   UNL     1      -4.796   0.977 -32.767  1.00  0.00    -0.267 OA
HETATM    5  C   UNL     1      -6.727   2.262 -33.003  1.00  0.00     0.061 A 
HETATM    6  C   UNL     1      -7.421   3.378 -32.536  1.00  0.00     0.076 A 
HETATM    7  C   UNL     1      -7.248   1.447 -34.016  1.00  0.00     0.020 A 
HETATM    8  C   UNL     1      -8.473   1.772 -34.596  1.00  0.00     0.018 A 
HETATM    9  C   UNL     1      -9.151   2.916 -34.165  1.00  0.00     0.034 A 
HETATM   10  C   UNL     1      -8.646   3.702 -33.121  1.00  0.00     0.050 A 
HETATM   11  N   UNL     1      -6.918   4.194 -31.514  1.00  0.00    -0.224 NA
ENDROOT
BRANCH   1  12
HETATM   12  S   UNL     1      -5.149   5.045 -29.842  1.00  0.00    -0.082 SA
BRANCH  12  13
HETATM   13  C   UNL     1      -4.575   6.397 -30.907  1.00  0.00     0.185 C 
BRANCH  13  14
HETATM   14  C   UNL     1      -3.506   7.277 -30.279  1.00  0.00     0.231 C 
HETATM   15  N   UNL     1      -2.681   6.650 -29.365  1.00  0.00    -0.326 N 
HETATM   16  H   UNL     1      -2.932   5.696 -29.109  1.00  0.00     0.169 HD
HETATM   17  O   UNL     1      -3.393   8.440 -30.664  1.00  0.00    -0.272 OA
BRANCH  15  18
HETATM   18  C   UNL     1      -1.578   7.208 -28.683  1.00  0.00     0.036 A 
HETATM   19  C   UNL     1      -1.650   7.777 -27.409  1.00  0.00     0.053 A 
HETATM   20  C   UNL     1      -0.507   8.311 -26.800  1.00  0.00     0.042 A 
HETATM   21  C   UNL     1       0.738   8.269 -27.444  1.00  0.00    -0.040 A 
HETATM   22 CL   UNL     1      -0.690   9.030 -25.237  1.00  0.00    -0.084 Cl
HETATM   23  C   UNL     1       1.981   8.846 -26.829  1.00  0.00     0.050 C 
HETATM   24  C   UNL     1       0.801   7.715 -28.730  1.00  0.00     0.011 A 
HETATM   25  C   UNL     1      -0.345   7.192 -29.341  1.00  0.00     0.030 A 
ENDBRANCH  15  18
ENDBRANCH  13  14
ENDBRANCH  12  13
ENDBRANCH   1  12
BRANCH   2  26
HETATM   26  C   UNL     1      -3.502   2.761 -31.149  1.00  0.00     0.199 C 
BRANCH  26  27
HETATM   27  C   UNL     1      -2.663   3.698 -31.949  1.00  0.00     0.070 A 
HETATM   28  O   UNL     1      -1.631   4.312 -31.303  1.00  0.00    -0.325 OA
HETATM   29  C   UNL     1      -1.030   5.129 -32.206  1.00  0.00     0.142 A 
HETATM   30  C   UNL     1      -1.659   5.048 -33.425  1.00  0.00     0.027 A 
HETATM   31  C   UNL     1      -2.717   4.121 -33.262  1.00  0.00     0.036 A 
ENDBRANCH  26  27
ENDBRANCH   2  26
BRANCH   9  32
HETATM   32  C   UNL     1     -10.436   3.261 -34.805  1.00  0.00     0.253 C 
HETATM   33  N   UNL     1     -11.575   2.525 -34.464  1.00  0.00    -0.348 N 
HETATM   34  C   UNL     1     -12.833   2.941 -35.080  1.00  0.00     0.127 C 
HETATM   35  C   UNL     1     -11.715   1.808 -33.196  1.00  0.00     0.127 C 
HETATM   36  C   UNL     1     -13.800   1.769 -35.239  1.00  0.00     0.034 C 
HETATM   37  C   UNL     1     -13.984   0.963 -33.949  1.00  0.00     0.081 C 
HETATM   38  C   UNL     1     -12.623   0.592 -33.346  1.00  0.00     0.034 C 
HETATM   39  O   UNL     1     -10.423   4.181 -35.617  1.00  0.00    -0.267 OA
BRANCH  37  40
HETATM   40  C   UNL     1     -14.863   1.690 -32.939  1.00  0.00     0.219 C 
HETATM   41  N   UNL     1     -16.164   1.854 -33.318  1.00  0.00    -0.370 N 
HETATM   42  H   UNL     1     -16.461   1.754 -34.278  1.00  0.00     0.159 HD
HETATM   43  H   UNL     1     -16.745   2.410 -32.701  1.00  0.00     0.159 HD
HETATM   44  O   UNL     1     -14.477   2.111 -31.856  1.00  0.00    -0.273 OA
ENDBRANCH  37  40
ENDBRANCH   9  32
TORSDOF 8
ENDMDL
MODEL 10
REMARK VINA RESULT:      -9.1      3.048      8.165
REMARK  8 active torsions:
REMARK  status: ('A' for Active; 'I' for Inactive)
REMARK    1  A    between atoms: C_6  and  N_7 
REMARK       I    between atoms: N_7  and  C_8 
REMARK    2  A    between atoms: C_8  and  C_9 
REMARK    3  A    between atoms: C_9  and  S_10 
REMARK    4  A    between atoms: S_10  and  C_11 
REMARK    5  A    between atoms: N_12  and  C_13 
REMARK    6  A    between atoms: C_13  and  C_14 
REMARK    7  A    between atoms: C_25  and  C_26 
REMARK       I    between atoms: C_26  and  N_27 
REMARK    8  A    between atoms: C_30  and  C_31 
REMARK       I    between atoms: C_31  and  N_32 
ROOT
HETATM    1  C   UNL     1      -6.246   3.545 -31.164  1.00  0.00     0.172 C 
HETATM    2  N   UNL     1      -5.956   4.850 -31.506  1.00  0.00    -0.286 N 
HETATM    3  C   UNL     1      -6.701   5.496 -32.489  1.00  0.00     0.262 C 
HETATM    4  O   UNL     1      -6.432   6.606 -32.944  1.00  0.00    -0.267 OA
HETATM    5  C   UNL     1      -7.890   4.786 -32.987  1.00  0.00     0.061 A 
HETATM    6  C   UNL     1      -8.120   3.495 -32.512  1.00  0.00     0.076 A 
HETATM    7  C   UNL     1      -8.778   5.410 -33.872  1.00  0.00     0.020 A 
HETATM    8  C   UNL     1      -9.936   4.743 -34.265  1.00  0.00     0.018 A 
HETATM    9  C   UNL     1     -10.197   3.468 -33.756  1.00  0.00     0.034 A 
HETATM   10  C   UNL     1      -9.283   2.831 -32.907  1.00  0.00     0.050 A 
HETATM   11  N   UNL     1      -7.233   2.854 -31.637  1.00  0.00    -0.224 NA
ENDROOT
BRANCH   1  12
HETATM   12  S   UNL     1      -5.202   2.683 -30.058  1.00  0.00    -0.082 SA
BRANCH  12  13
HETATM   13  C   UNL     1      -4.064   1.974 -31.281  1.00  0.00     0.185 C 
BRANCH  13  14
HETATM   14  C   UNL     1      -4.349   0.522 -31.631  1.00  0.00     0.231 C 
HETATM   15  N   UNL     1      -4.855   0.302 -32.897  1.00  0.00    -0.326 N 
HETATM   16  H   UNL     1      -5.100   1.132 -33.436  1.00  0.00     0.169 HD
HETATM   17  O   UNL     1      -4.050  -0.353 -30.818  1.00  0.00    -0.272 OA
BRANCH  15  18
HETATM   18  C   UNL     1      -5.150  -0.941 -33.498  1.00  0.00     0.036 A 
HETATM   19  C   UNL     1      -4.280  -2.033 -33.508  1.00  0.00     0.053 A 
HETATM   20  C   UNL     1      -4.648  -3.234 -34.127  1.00  0.00     0.042 A 
HETATM   21  C   UNL     1      -5.904  -3.376 -34.734  1.00  0.00    -0.040 A 
HETATM   22 CL   UNL     1      -3.497  -4.526 -34.126  1.00  0.00    -0.084 Cl
HETATM   23  C   UNL     1      -6.327  -4.642 -35.422  1.00  0.00     0.050 C 
HETATM   24  C   UNL     1      -6.766  -2.270 -34.739  1.00  0.00     0.011 A 
HETATM   25  C   UNL     1      -6.391  -1.068 -34.129  1.00  0.00     0.030 A 
ENDBRANCH  15  18
ENDBRANCH  13  14
ENDBRANCH  12  13
ENDBRANCH   1  12
BRANCH   2  26
HETATM   26  C   UNL     1      -4.916   5.665 -30.872  1.00  0.00     0.199 C 
BRANCH  26  27
HETATM   27  C   UNL     1      -5.531   6.468 -29.779  1.00  0.00     0.070 A 
HETATM   28  O   UNL     1      -5.412   7.824 -29.864  1.00  0.00    -0.325 OA
HETATM   29  C   UNL     1      -6.014   8.344 -28.763  1.00  0.00     0.142 A 
HETATM   30  C   UNL     1      -6.521   7.341 -27.971  1.00  0.00     0.027 A 
HETATM   31  C   UNL     1      -6.211   6.126 -28.627  1.00  0.00     0.036 A 
ENDBRANCH  26  27
ENDBRANCH   2  26
BRANCH   9  32
HETATM   32  C   UNL     1     -11.439   2.782 -34.163  1.00  0.00     0.253 C 
HETATM   33  N   UNL     1     -12.568   2.894 -33.346  1.00  0.00    -0.348 N 
HETATM   34  C   UNL     1     -13.789   2.245 -33.821  1.00  0.00     0.127 C 
HETATM   35  C   UNL     1     -12.781   4.010 -32.423  1.00  0.00     0.127 C 
HETATM   36  C   UNL     1     -14.685   1.810 -32.663  1.00  0.00     0.034 C 
HETATM   37  C   UNL     1     -14.938   2.928 -31.646  1.00  0.00     0.081 C 
HETATM   38  C   UNL     1     -13.617   3.581 -31.221  1.00  0.00     0.034 C 
HETATM   39  O   UNL     1     -11.400   2.136 -35.206  1.00  0.00    -0.267 OA
BRANCH  37  40
HETATM   40  C   UNL     1     -15.930   3.961 -32.167  1.00  0.00     0.219 C 
HETATM   41  N   UNL     1     -17.150   3.463 -32.522  1.00  0.00    -0.370 N 
HETATM   42  H   UNL     1     -17.302   2.478 -32.687  1.00  0.00     0.159 HD
HETATM   43  H   UNL     1     -17.795   4.117 -32.950  1.00  0.00     0.159 HD
HETATM   44  O   UNL     1     -15.696   5.158 -32.274  1.00  0.00    -0.273 OA
ENDBRANCH  37  40
ENDBRANCH   9  32
TORSDOF 8
ENDMDL
