MODEL 1
REMARK VINA RESULT:     -10.4      0.000      0.000
REMARK  7 active torsions:
REMARK  status: ('A' for Active; 'I' for Inactive)
REMARK    1  A    between atoms: C_2  and  C_3 
REMARK    2  A    between atoms: C_5  and  N_6 
REMARK    3  A    between atoms: C_8  and  C_9 
REMARK    4  A    between atoms: C_15  and  N_16 
REMARK       I    between atoms: N_16  and  C_17 
REMARK    5  A    between atoms: C_17  and  C_18 
REMARK    6  A    between atoms: C_18  and  O_19 
REMARK    7  A    between atoms: O_19  and  C_20 
ROOT
HETATM    1  N   UNL     1      -4.094   2.508 -31.909  1.00  0.00    -0.044 N 
HETATM    2  N   UNL     1      -2.795   2.825 -31.609  1.00  0.00    -0.148 NA
HETATM    3  C   UNL     1      -2.769   4.161 -31.643  1.00  0.00     0.115 C 
HETATM    4  C   UNL     1      -4.043   4.719 -31.884  1.00  0.00     0.087 C 
HETATM    5  C   UNL     1      -4.899   3.644 -31.933  1.00  0.00     0.152 C 
ENDROOT
BRANCH   5   6
HETATM    6  N   UNL     1      -6.277   3.766 -32.023  1.00  0.00    -0.309 N 
HETATM    7  C   UNL     1      -6.910   4.040 -33.287  1.00  0.00     0.247 C 
HETATM    8  O   UNL     1      -6.277   3.894 -34.323  1.00  0.00    -0.271 OA
HETATM    9  H   UNL     1      -6.872   3.549 -31.230  1.00  0.00     0.170 HD
BRANCH   7  10
HETATM   10  C   UNL     1      -8.351   4.497 -33.203  1.00  0.00     0.278 C 
BRANCH  10  11
HETATM   11  O   UNL     1      -9.081   4.012 -34.327  1.00  0.00    -0.342 OA
BRANCH  11  12
HETATM   12  C   UNL     1      -9.864   2.914 -34.072  1.00  0.00     0.070 A 
HETATM   13  C   UNL     1     -11.199   3.023 -34.466  1.00  0.00     0.049 A 
HETATM   14  C   UNL     1     -12.109   1.972 -34.250  1.00  0.00    -0.023 A 
HETATM   15  C   UNL     1     -11.656   0.782 -33.640  1.00  0.00    -0.026 A 
HETATM   16  C   UNL     1     -13.460   2.077 -34.621  1.00  0.00     0.012 A 
HETATM   17  C   UNL     1     -10.310   0.673 -33.268  1.00  0.00     0.015 A 
HETATM   18  C   UNL     1     -12.560  -0.270 -33.419  1.00  0.00     0.012 A 
HETATM   19  C   UNL     1      -9.419   1.730 -33.483  1.00  0.00     0.037 A 
HETATM   20  C   UNL     1     -13.898  -0.148 -33.792  1.00  0.00     0.001 A 
HETATM   21  C   UNL     1     -14.348   1.025 -34.392  1.00  0.00     0.001 A 
ENDBRANCH  11  12
ENDBRANCH  10  11
ENDBRANCH   7  10
ENDBRANCH   5   6
BRANCH   1  22
HETATM   22  C   UNL     1      -4.396   1.186 -32.298  1.00  0.00     0.732 A 
HETATM   23  N   UNL     1      -5.425   0.856 -33.015  1.00  0.00    -0.067 NA
HETATM   24  C   UNL     1      -5.546  -0.486 -33.327  1.00  0.00     0.062 A 
HETATM   25  C   UNL     1      -4.646  -1.415 -32.964  1.00  0.00     0.103 A 
HETATM   26  C   UNL     1      -3.471  -1.005 -32.180  1.00  0.00     0.261 A 
HETATM   27  N   UNL     1      -3.432   0.314 -31.868  1.00  0.00    -0.152 N 
HETATM   28  O   UNL     1      -2.606  -1.805 -31.853  1.00  0.00    -0.268 OA
HETATM   29  H   UNL     1      -2.632   0.664 -31.347  1.00  0.00     0.187 HD
BRANCH  24  30
HETATM   30  C   UNL     1      -6.776  -0.896 -34.127  1.00  0.00     0.030 C 
HETATM   31  C   UNL     1      -6.718  -2.365 -34.554  1.00  0.00     0.016 C 
HETATM   32  C   UNL     1      -6.969   0.020 -35.336  1.00  0.00     0.016 C 
ENDBRANCH  24  30
ENDBRANCH   1  22
BRANCH   3  33
HETATM   33  C   UNL     1      -1.519   4.946 -31.428  1.00  0.00     0.105 A 
HETATM   34  O   UNL     1      -0.432   4.490 -30.734  1.00  0.00    -0.320 OA
HETATM   35  C   UNL     1       0.502   5.476 -30.755  1.00  0.00     0.142 A 
HETATM   36  C   UNL     1       0.038   6.566 -31.451  1.00  0.00     0.027 A 
HETATM   37  C   UNL     1      -1.266   6.226 -31.887  1.00  0.00     0.041 A 
ENDBRANCH   3  33
TORSDOF 7
ENDMDL
MODEL 2
REMARK VINA RESULT:      -9.9      1.526      1.831
REMARK  7 active torsions:
REMARK  status: ('A' for Active; 'I' for Inactive)
REMARK    1  A    between atoms: C_2  and  C_3 
REMARK    2  A    between atoms: C_5  and  N_6 
REMARK    3  A    between atoms: C_8  and  C_9 
REMARK    4  A    between atoms: C_15  and  N_16 
REMARK       I    between atoms: N_16  and  C_17 
REMARK    5  A    between atoms: C_17  and  C_18 
REMARK    6  A    between atoms: C_18  and  O_19 
REMARK    7  A    between atoms: O_19  and  C_20 
ROOT
HETATM    1  N   UNL     1      -3.983   2.667 -31.751  1.00  0.00    -0.044 N 
HETATM    2  N   UNL     1      -2.660   2.950 -31.530  1.00  0.00    -0.148 NA
HETATM    3  C   UNL     1      -2.613   4.286 -31.496  1.00  0.00     0.115 C 
HETATM    4  C   UNL     1      -3.892   4.873 -31.614  1.00  0.00     0.087 C 
HETATM    5  C   UNL     1      -4.767   3.813 -31.657  1.00  0.00     0.152 C 
ENDROOT
BRANCH   5   6
HETATM    6  N   UNL     1      -6.147   3.958 -31.640  1.00  0.00    -0.309 N 
HETATM    7  C   UNL     1      -6.865   4.016 -30.394  1.00  0.00     0.247 C 
HETATM    8  O   UNL     1      -6.254   4.215 -29.354  1.00  0.00    -0.271 OA
HETATM    9  H   UNL     1      -6.660   4.144 -32.496  1.00  0.00     0.170 HD
BRANCH   7  10
HETATM   10  C   UNL     1      -8.362   3.819 -30.502  1.00  0.00     0.278 C 
BRANCH  10  11
HETATM   11  O   UNL     1      -8.660   2.432 -30.649  1.00  0.00    -0.342 OA
BRANCH  11  12
HETATM   12  C   UNL     1      -9.439   2.125 -31.736  1.00  0.00     0.070 A 
HETATM   13  C   UNL     1     -10.087   3.207 -32.337  1.00  0.00     0.049 A 
HETATM   14  C   UNL     1     -10.925   3.024 -33.452  1.00  0.00    -0.023 A 
HETATM   15  C   UNL     1     -11.095   1.726 -33.982  1.00  0.00    -0.026 A 
HETATM   16  C   UNL     1     -11.601   4.100 -34.051  1.00  0.00     0.012 A 
HETATM   17  C   UNL     1     -10.424   0.650 -33.386  1.00  0.00     0.015 A 
HETATM   18  C   UNL     1     -11.933   1.536 -35.093  1.00  0.00     0.012 A 
HETATM   19  C   UNL     1      -9.600   0.846 -32.272  1.00  0.00     0.037 A 
HETATM   20  C   UNL     1     -12.598   2.616 -35.674  1.00  0.00     0.001 A 
HETATM   21  C   UNL     1     -12.432   3.896 -35.154  1.00  0.00     0.001 A 
ENDBRANCH  11  12
ENDBRANCH  10  11
ENDBRANCH   7  10
ENDBRANCH   5   6
BRANCH   1  22
HETATM   22  C   UNL     1      -4.334   1.372 -32.186  1.00  0.00     0.732 A 
HETATM   23  N   UNL     1      -5.385   1.104 -32.897  1.00  0.00    -0.067 NA
HETATM   24  C   UNL     1      -5.555  -0.221 -33.258  1.00  0.00     0.062 A 
HETATM   25  C   UNL     1      -4.680  -1.192 -32.947  1.00  0.00     0.103 A 
HETATM   26  C   UNL     1      -3.480  -0.851 -32.169  1.00  0.00     0.261 A 
HETATM   27  N   UNL     1      -3.392   0.453 -31.807  1.00  0.00    -0.152 N 
HETATM   28  O   UNL     1      -2.636  -1.690 -31.888  1.00  0.00    -0.268 OA
HETATM   29  H   UNL     1      -2.573   0.756 -31.287  1.00  0.00     0.187 HD
BRANCH  24  30
HETATM   30  C   UNL     1      -6.810  -0.559 -34.052  1.00  0.00     0.030 C 
HETATM   31  C   UNL     1      -6.780  -1.992 -34.589  1.00  0.00     0.016 C 
HETATM   32  C   UNL     1      -7.026   0.446 -35.184  1.00  0.00     0.016 C 
ENDBRANCH  24  30
ENDBRANCH   1  22
BRANCH   3  33
HETATM   33  C   UNL     1      -1.338   5.042 -31.332  1.00  0.00     0.105 A 
HETATM   34  O   UNL     1      -0.212   4.535 -30.744  1.00  0.00    -0.320 OA
HETATM   35  C   UNL     1       0.735   5.509 -30.781  1.00  0.00     0.142 A 
HETATM   36  C   UNL     1       0.240   6.640 -31.384  1.00  0.00     0.027 A 
HETATM   37  C   UNL     1      -1.098   6.341 -31.740  1.00  0.00     0.041 A 
ENDBRANCH   3  33
TORSDOF 7
ENDMDL
MODEL 3
REMARK VINA RESULT:      -9.8      2.432      8.724
REMARK  7 active torsions:
REMARK  status: ('A' for Active; 'I' for Inactive)
REMARK    1  A    between atoms: C_2  and  C_3 
REMARK    2  A    between atoms: C_5  and  N_6 
REMARK    3  A    between atoms: C_8  and  C_9 
REMARK    4  A    between atoms: C_15  and  N_16 
REMARK       I    between atoms: N_16  and  C_17 
REMARK    5  A    between atoms: C_17  and  C_18 
REMARK    6  A    between atoms: C_18  and  O_19 
REMARK    7  A    between atoms: O_19  and  C_20 
ROOT
HETATM    1  N   UNL     1      -9.220   1.131 -33.681  1.00  0.00    -0.044 N 
HETATM    2  N   UNL     1     -10.470   0.568 -33.671  1.00  0.00    -0.148 NA
HETATM    3  C   UNL     1     -11.301   1.616 -33.658  1.00  0.00     0.115 C 
HETATM    4  C   UNL     1     -10.614   2.848 -33.736  1.00  0.00     0.087 C 
HETATM    5  C   UNL     1      -9.289   2.509 -33.870  1.00  0.00     0.152 C 
ENDROOT
BRANCH   5   6
HETATM    6  N   UNL     1      -8.283   3.433 -34.111  1.00  0.00    -0.309 N 
HETATM    7  C   UNL     1      -7.609   4.088 -33.020  1.00  0.00     0.247 C 
HETATM    8  O   UNL     1      -7.720   3.641 -31.887  1.00  0.00    -0.271 OA
HETATM    9  H   UNL     1      -7.923   3.577 -35.049  1.00  0.00     0.170 HD
BRANCH   7  10
HETATM   10  C   UNL     1      -6.800   5.309 -33.400  1.00  0.00     0.278 C 
BRANCH  10  11
HETATM   11  O   UNL     1      -5.834   4.963 -34.390  1.00  0.00    -0.342 OA
BRANCH  11  12
HETATM   12  C   UNL     1      -4.552   5.357 -34.103  1.00  0.00     0.070 A 
HETATM   13  C   UNL     1      -4.335   5.792 -32.793  1.00  0.00     0.049 A 
HETATM   14  C   UNL     1      -3.067   6.234 -32.374  1.00  0.00    -0.023 A 
HETATM   15  C   UNL     1      -1.993   6.219 -33.292  1.00  0.00    -0.026 A 
HETATM   16  C   UNL     1      -2.841   6.696 -31.067  1.00  0.00     0.012 A 
HETATM   17  C   UNL     1      -2.215   5.761 -34.597  1.00  0.00     0.015 A 
HETATM   18  C   UNL     1      -0.726   6.663 -32.881  1.00  0.00     0.012 A 
HETATM   19  C   UNL     1      -3.484   5.331 -35.001  1.00  0.00     0.037 A 
HETATM   20  C   UNL     1      -0.519   7.119 -31.579  1.00  0.00     0.001 A 
HETATM   21  C   UNL     1      -1.576   7.136 -30.673  1.00  0.00     0.001 A 
ENDBRANCH  11  12
ENDBRANCH  10  11
ENDBRANCH   7  10
ENDBRANCH   5   6
BRANCH   1  22
HETATM   22  C   UNL     1      -8.112   0.325 -33.349  1.00  0.00     0.732 A 
HETATM   23  N   UNL     1      -7.564  -0.528 -34.159  1.00  0.00    -0.067 NA
HETATM   24  C   UNL     1      -6.464  -1.211 -33.672  1.00  0.00     0.062 A 
HETATM   25  C   UNL     1      -5.938  -0.997 -32.454  1.00  0.00     0.103 A 
HETATM   26  C   UNL     1      -6.561   0.001 -31.572  1.00  0.00     0.261 A 
HETATM   27  N   UNL     1      -7.661   0.604 -32.087  1.00  0.00    -0.152 N 
HETATM   28  O   UNL     1      -6.102   0.257 -30.467  1.00  0.00    -0.268 OA
HETATM   29  H   UNL     1      -8.122   1.321 -31.533  1.00  0.00     0.187 HD
BRANCH  24  30
HETATM   30  C   UNL     1      -5.840  -2.250 -34.594  1.00  0.00     0.030 C 
HETATM   31  C   UNL     1      -6.760  -3.455 -34.805  1.00  0.00     0.016 C 
HETATM   32  C   UNL     1      -4.472  -2.690 -34.071  1.00  0.00     0.016 C 
ENDBRANCH  24  30
ENDBRANCH   1  22
BRANCH   3  33
HETATM   33  C   UNL     1     -12.783   1.466 -33.586  1.00  0.00     0.105 A 
HETATM   34  O   UNL     1     -13.603   2.267 -32.839  1.00  0.00    -0.320 OA
HETATM   35  C   UNL     1     -14.875   1.829 -33.028  1.00  0.00     0.142 A 
HETATM   36  C   UNL     1     -14.892   0.754 -33.885  1.00  0.00     0.027 A 
HETATM   37  C   UNL     1     -13.543   0.519 -34.246  1.00  0.00     0.041 A 
ENDBRANCH   3  33
TORSDOF 7
ENDMDL
MODEL 4
REMARK VINA RESULT:      -9.7      3.754      7.443
REMARK  7 active torsions:
REMARK  status: ('A' for Active; 'I' for Inactive)
REMARK    1  A    between atoms: C_2  and  C_3 
REMARK    2  A    between atoms: C_5  and  N_6 
REMARK    3  A    between atoms: C_8  and  C_9 
REMARK    4  A    between atoms: C_15  and  N_16 
REMARK       I    between atoms: N_16  and  C_17 
REMARK    5  A    between atoms: C_17  and  C_18 
REMARK    6  A    between atoms: C_18  and  O_19 
REMARK    7  A    between atoms: O_19  and  C_20 
ROOT
HETATM    1  N   UNL     1      -4.495   5.851 -30.094  1.00  0.00    -0.044 N 
HETATM    2  N   UNL     1      -5.118   6.908 -29.484  1.00  0.00    -0.148 NA
HETATM    3  C   UNL     1      -6.301   6.414 -29.104  1.00  0.00     0.115 C 
HETATM    4  C   UNL     1      -6.426   5.036 -29.387  1.00  0.00     0.087 C 
HETATM    5  C   UNL     1      -5.210   4.670 -29.914  1.00  0.00     0.152 C 
ENDROOT
BRANCH   5   6
HETATM    6  N   UNL     1      -4.867   3.358 -30.208  1.00  0.00    -0.309 N 
HETATM    7  C   UNL     1      -5.137   2.801 -31.508  1.00  0.00     0.247 C 
HETATM    8  O   UNL     1      -5.411   3.546 -32.438  1.00  0.00    -0.271 OA
HETATM    9  H   UNL     1      -4.317   2.807 -29.557  1.00  0.00     0.170 HD
BRANCH   7  10
HETATM   10  C   UNL     1      -5.048   1.293 -31.595  1.00  0.00     0.278 C 
BRANCH  10  11
HETATM   11  O   UNL     1      -4.533   0.909 -32.868  1.00  0.00    -0.342 OA
BRANCH  11  12
HETATM   12  C   UNL     1      -5.146  -0.183 -33.428  1.00  0.00     0.070 A 
HETATM   13  C   UNL     1      -4.408  -1.368 -33.398  1.00  0.00     0.049 A 
HETATM   14  C   UNL     1      -4.919  -2.557 -33.951  1.00  0.00    -0.023 A 
HETATM   15  C   UNL     1      -6.208  -2.552 -34.528  1.00  0.00    -0.026 A 
HETATM   16  C   UNL     1      -4.177  -3.750 -33.948  1.00  0.00     0.012 A 
HETATM   17  C   UNL     1      -6.950  -1.364 -34.533  1.00  0.00     0.015 A 
HETATM   18  C   UNL     1      -6.722  -3.734 -35.084  1.00  0.00     0.012 A 
HETATM   19  C   UNL     1      -6.425  -0.187 -33.987  1.00  0.00     0.037 A 
HETATM   20  C   UNL     1      -5.971  -4.910 -35.074  1.00  0.00     0.001 A 
HETATM   21  C   UNL     1      -4.700  -4.918 -34.507  1.00  0.00     0.001 A 
ENDBRANCH  11  12
ENDBRANCH  10  11
ENDBRANCH   7  10
ENDBRANCH   5   6
BRANCH   1  22
HETATM   22  C   UNL     1      -3.377   6.106 -30.915  1.00  0.00     0.732 A 
HETATM   23  N   UNL     1      -2.157   6.180 -30.480  1.00  0.00    -0.067 NA
HETATM   24  C   UNL     1      -1.182   6.408 -31.435  1.00  0.00     0.062 A 
HETATM   25  C   UNL     1      -1.441   6.506 -32.750  1.00  0.00     0.103 A 
HETATM   26  C   UNL     1      -2.830   6.384 -33.216  1.00  0.00     0.261 A 
HETATM   27  N   UNL     1      -3.745   6.207 -32.230  1.00  0.00    -0.152 N 
HETATM   28  O   UNL     1      -3.116   6.433 -34.404  1.00  0.00    -0.268 OA
HETATM   29  H   UNL     1      -4.720   6.092 -32.491  1.00  0.00     0.187 HD
BRANCH  24  30
HETATM   30  C   UNL     1       0.250   6.546 -30.934  1.00  0.00     0.030 C 
HETATM   31  C   UNL     1       0.949   5.189 -30.817  1.00  0.00     0.016 C 
HETATM   32  C   UNL     1       0.291   7.300 -29.604  1.00  0.00     0.016 C 
ENDBRANCH  24  30
ENDBRANCH   1  22
BRANCH   3  33
HETATM   33  C   UNL     1      -7.345   7.248 -28.440  1.00  0.00     0.105 A 
HETATM   34  O   UNL     1      -7.145   8.529 -28.004  1.00  0.00    -0.320 OA
HETATM   35  C   UNL     1      -8.314   8.957 -27.461  1.00  0.00     0.142 A 
HETATM   36  C   UNL     1      -9.270   7.972 -27.537  1.00  0.00     0.027 A 
HETATM   37  C   UNL     1      -8.646   6.869 -28.168  1.00  0.00     0.041 A 
ENDBRANCH   3  33
TORSDOF 7
ENDMDL
MODEL 5
REMARK VINA RESULT:      -9.3      2.060      8.648
REMARK  7 active torsions:
REMARK  status: ('A' for Active; 'I' for Inactive)
REMARK    1  A    between atoms: C_2  and  C_3 
REMARK    2  A    between atoms: C_5  and  N_6 
REMARK    3  A    between atoms: C_8  and  C_9 
REMARK    4  A    between atoms: C_15  and  N_16 
REMARK       I    between atoms: N_16  and  C_17 
REMARK    5  A    between atoms: C_17  and  C_18 
REMARK    6  A    between atoms: C_18  and  O_19 
REMARK    7  A    between atoms: O_19  and  C_20 
ROOT
HETATM    1  N   UNL     1      -8.572   0.727 -33.468  1.00  0.00    -0.044 N 
HETATM    2  N   UNL     1      -8.235  -0.531 -33.893  1.00  0.00    -0.148 NA
HETATM    3  C   UNL     1      -6.909  -0.586 -33.731  1.00  0.00     0.115 C 
HETATM    4  C   UNL     1      -6.389   0.585 -33.137  1.00  0.00     0.087 C 
HETATM    5  C   UNL     1      -7.489   1.365 -32.868  1.00  0.00     0.152 C 
ENDROOT
BRANCH   5   6
HETATM    6  N   UNL     1      -7.428   2.556 -32.159  1.00  0.00    -0.309 N 
HETATM    7  C   UNL     1      -7.095   3.790 -32.823  1.00  0.00     0.247 C 
HETATM    8  O   UNL     1      -7.135   3.848 -34.043  1.00  0.00    -0.271 OA
HETATM    9  H   UNL     1      -7.731   2.601 -31.192  1.00  0.00     0.170 HD
BRANCH   7  10
HETATM   10  C   UNL     1      -6.716   4.933 -31.906  1.00  0.00     0.278 C 
BRANCH  10  11
HETATM   11  O   UNL     1      -5.833   4.468 -30.889  1.00  0.00    -0.342 OA
BRANCH  11  12
HETATM   12  C   UNL     1      -4.499   4.621 -31.174  1.00  0.00     0.070 A 
HETATM   13  C   UNL     1      -3.878   5.721 -30.578  1.00  0.00     0.049 A 
HETATM   14  C   UNL     1      -2.516   5.996 -30.800  1.00  0.00    -0.023 A 
HETATM   15  C   UNL     1      -1.764   5.132 -31.626  1.00  0.00    -0.026 A 
HETATM   16  C   UNL     1      -1.886   7.112 -30.226  1.00  0.00     0.012 A 
HETATM   17  C   UNL     1      -2.390   4.019 -32.202  1.00  0.00     0.015 A 
HETATM   18  C   UNL     1      -0.405   5.403 -31.855  1.00  0.00     0.012 A 
HETATM   19  C   UNL     1      -3.747   3.762 -31.978  1.00  0.00     0.037 A 
HETATM   20  C   UNL     1       0.205   6.516 -31.277  1.00  0.00     0.001 A 
HETATM   21  C   UNL     1      -0.534   7.370 -30.464  1.00  0.00     0.001 A 
ENDBRANCH  11  12
ENDBRANCH  10  11
ENDBRANCH   7  10
ENDBRANCH   5   6
BRANCH   1  22
HETATM   22  C   UNL     1      -9.835   1.246 -33.821  1.00  0.00     0.732 A 
HETATM   23  N   UNL     1     -10.965   0.718 -33.461  1.00  0.00    -0.067 NA
HETATM   24  C   UNL     1     -12.106   1.380 -33.875  1.00  0.00     0.062 A 
HETATM   25  C   UNL     1     -12.085   2.530 -34.571  1.00  0.00     0.103 A 
HETATM   26  C   UNL     1     -10.790   3.122 -34.935  1.00  0.00     0.261 A 
HETATM   27  N   UNL     1      -9.708   2.404 -34.540  1.00  0.00    -0.152 N 
HETATM   28  O   UNL     1     -10.714   4.182 -35.538  1.00  0.00    -0.268 OA
HETATM   29  H   UNL     1      -8.784   2.773 -34.742  1.00  0.00     0.187 HD
BRANCH  24  30
HETATM   30  C   UNL     1     -13.440   0.746 -33.501  1.00  0.00     0.030 C 
HETATM   31  C   UNL     1     -13.377  -0.782 -33.537  1.00  0.00     0.016 C 
HETATM   32  C   UNL     1     -14.562   1.271 -34.398  1.00  0.00     0.016 C 
ENDBRANCH  24  30
ENDBRANCH   1  22
BRANCH   3  33
HETATM   33  C   UNL     1      -6.099  -1.774 -34.128  1.00  0.00     0.105 A 
HETATM   34  O   UNL     1      -4.737  -1.849 -34.025  1.00  0.00    -0.320 OA
HETATM   35  C   UNL     1      -4.365  -3.074 -34.477  1.00  0.00     0.142 A 
HETATM   36  C   UNL     1      -5.465  -3.797 -34.873  1.00  0.00     0.027 A 
HETATM   37  C   UNL     1      -6.585  -2.960 -34.649  1.00  0.00     0.041 A 
ENDBRANCH   3  33
TORSDOF 7
ENDMDL
MODEL 6
REMARK VINA RESULT:      -9.3      2.154      9.017
REMARK  7 active torsions:
REMARK  status: ('A' for Active; 'I' for Inactive)
REMARK    1  A    between atoms: C_2  and  C_3 
REMARK    2  A    between atoms: C_5  and  N_6 
REMARK    3  A    between atoms: C_8  and  C_9 
REMARK    4  A    between atoms: C_15  and  N_16 
REMARK       I    between atoms: N_16  and  C_17 
REMARK    5  A    between atoms: C_17  and  C_18 
REMARK    6  A    between atoms: C_18  and  O_19 
REMARK    7  A    between atoms: O_19  and  C_20 
ROOT
HETATM    1  N   UNL     1      -7.502   0.527 -33.472  1.00  0.00    -0.044 N 
HETATM    2  N   UNL     1      -7.621  -0.818 -33.712  1.00  0.00    -0.148 NA
HETATM    3  C   UNL     1      -6.365  -1.224 -33.927  1.00  0.00     0.115 C 
HETATM    4  C   UNL     1      -5.426  -0.183 -33.755  1.00  0.00     0.087 C 
HETATM    5  C   UNL     1      -6.166   0.901 -33.347  1.00  0.00     0.152 C 
ENDROOT
BRANCH   5   6
HETATM    6  N   UNL     1      -5.605   2.103 -32.941  1.00  0.00    -0.309 N 
HETATM    7  C   UNL     1      -5.651   2.508 -31.561  1.00  0.00     0.247 C 
HETATM    8  O   UNL     1      -5.934   1.687 -30.700  1.00  0.00    -0.271 OA
HETATM    9  H   UNL     1      -5.050   2.660 -33.584  1.00  0.00     0.170 HD
BRANCH   7  10
HETATM   10  C   UNL     1      -5.333   3.965 -31.304  1.00  0.00     0.278 C 
BRANCH  10  11
HETATM   11  O   UNL     1      -4.649   4.517 -32.427  1.00  0.00    -0.342 OA
BRANCH  11  12
HETATM   12  C   UNL     1      -3.375   4.954 -32.163  1.00  0.00     0.070 A 
HETATM   13  C   UNL     1      -3.230   5.724 -31.007  1.00  0.00     0.049 A 
HETATM   14  C   UNL     1      -1.977   6.242 -30.630  1.00  0.00    -0.023 A 
HETATM   15  C   UNL     1      -0.846   5.962 -31.429  1.00  0.00    -0.026 A 
HETATM   16  C   UNL     1      -1.821   7.037 -29.483  1.00  0.00     0.012 A 
HETATM   17  C   UNL     1      -0.998   5.171 -32.575  1.00  0.00     0.015 A 
HETATM   18  C   UNL     1       0.406   6.479 -31.061  1.00  0.00     0.012 A 
HETATM   19  C   UNL     1      -2.251   4.668 -32.941  1.00  0.00     0.037 A 
HETATM   20  C   UNL     1       0.542   7.268 -29.919  1.00  0.00     0.001 A 
HETATM   21  C   UNL     1      -0.570   7.546 -29.130  1.00  0.00     0.001 A 
ENDBRANCH  11  12
ENDBRANCH  10  11
ENDBRANCH   7  10
ENDBRANCH   5   6
BRANCH   1  22
HETATM   22  C   UNL     1      -8.656   1.333 -33.548  1.00  0.00     0.732 A 
HETATM   23  N   UNL     1      -8.636   2.618 -33.726  1.00  0.00    -0.067 NA
HETATM   24  C   UNL     1      -9.868   3.242 -33.805  1.00  0.00     0.062 A 
HETATM   25  C   UNL     1     -11.037   2.583 -33.752  1.00  0.00     0.103 A 
HETATM   26  C   UNL     1     -11.028   1.122 -33.585  1.00  0.00     0.261 A 
HETATM   27  N   UNL     1      -9.793   0.574 -33.467  1.00  0.00    -0.152 N 
HETATM   28  O   UNL     1     -12.063   0.471 -33.563  1.00  0.00    -0.268 OA
HETATM   29  H   UNL     1      -9.719  -0.435 -33.372  1.00  0.00     0.187 HD
BRANCH  24  30
HETATM   30  C   UNL     1      -9.859   4.757 -33.965  1.00  0.00     0.030 C 
HETATM   31  C   UNL     1     -10.265   5.186 -35.377  1.00  0.00     0.016 C 
HETATM   32  C   UNL     1      -8.497   5.337 -33.585  1.00  0.00     0.016 C 
ENDBRANCH  24  30
ENDBRANCH   1  22
BRANCH   3  33
HETATM   33  C   UNL     1      -6.026  -2.630 -34.288  1.00  0.00     0.105 A 
HETATM   34  O   UNL     1      -4.806  -3.210 -34.070  1.00  0.00    -0.320 OA
HETATM   35  C   UNL     1      -4.880  -4.487 -34.526  1.00  0.00     0.142 A 
HETATM   36  C   UNL     1      -6.129  -4.745 -35.037  1.00  0.00     0.027 A 
HETATM   37  C   UNL     1      -6.870  -3.549 -34.885  1.00  0.00     0.041 A 
ENDBRANCH   3  33
TORSDOF 7
ENDMDL
MODEL 7
REMARK VINA RESULT:      -9.0      2.245      8.300
REMARK  7 active torsions:
REMARK  status: ('A' for Active; 'I' for Inactive)
REMARK    1  A    between atoms: C_2  and  C_3 
REMARK    2  A    between atoms: C_5  and  N_6 
REMARK    3  A    between atoms: C_8  and  C_9 
REMARK    4  A    between atoms: C_15  and  N_16 
REMARK       I    between atoms: N_16  and  C_17 
REMARK    5  A    between atoms: C_17  and  C_18 
REMARK    6  A    between atoms: C_18  and  O_19 
REMARK    7  A    between atoms: O_19  and  C_20 
ROOT
HETATM    1  N   UNL     1      -7.522   0.487 -33.676  1.00  0.00    -0.044 N 
HETATM    2  N   UNL     1      -8.725   0.336 -34.315  1.00  0.00    -0.148 NA
HETATM    3  C   UNL     1      -9.495   1.298 -33.795  1.00  0.00     0.115 C 
HETATM    4  C   UNL     1      -8.791   2.118 -32.886  1.00  0.00     0.087 C 
HETATM    5  C   UNL     1      -7.497   1.654 -32.916  1.00  0.00     0.152 C 
ENDROOT
BRANCH   5   6
HETATM    6  N   UNL     1      -6.446   2.274 -32.257  1.00  0.00    -0.309 N 
HETATM    7  C   UNL     1      -6.176   1.989 -30.871  1.00  0.00     0.247 C 
HETATM    8  O   UNL     1      -6.685   1.010 -30.346  1.00  0.00    -0.271 OA
HETATM    9  H   UNL     1      -5.779   2.845 -32.765  1.00  0.00     0.170 HD
BRANCH   7  10
HETATM   10  C   UNL     1      -5.252   2.968 -30.179  1.00  0.00     0.278 C 
BRANCH  10  11
HETATM   11  O   UNL     1      -5.664   4.305 -30.459  1.00  0.00    -0.342 OA
BRANCH  11  12
HETATM   12  C   UNL     1      -4.677   5.115 -30.962  1.00  0.00     0.070 A 
HETATM   13  C   UNL     1      -4.050   4.651 -32.120  1.00  0.00     0.049 A 
HETATM   14  C   UNL     1      -3.013   5.383 -32.729  1.00  0.00    -0.023 A 
HETATM   15  C   UNL     1      -2.617   6.616 -32.166  1.00  0.00    -0.026 A 
HETATM   16  C   UNL     1      -2.358   4.917 -33.881  1.00  0.00     0.012 A 
HETATM   17  C   UNL     1      -3.267   7.083 -31.016  1.00  0.00     0.015 A 
HETATM   18  C   UNL     1      -1.581   7.350 -32.766  1.00  0.00     0.012 A 
HETATM   19  C   UNL     1      -4.290   6.341 -30.418  1.00  0.00     0.037 A 
HETATM   20  C   UNL     1      -0.940   6.871 -33.909  1.00  0.00     0.001 A 
HETATM   21  C   UNL     1      -1.328   5.656 -34.466  1.00  0.00     0.001 A 
ENDBRANCH  11  12
ENDBRANCH  10  11
ENDBRANCH   7  10
ENDBRANCH   5   6
BRANCH   1  22
HETATM   22  C   UNL     1      -6.590  -0.570 -33.728  1.00  0.00     0.732 A 
HETATM   23  N   UNL     1      -5.457  -0.573 -33.095  1.00  0.00    -0.067 NA
HETATM   24  C   UNL     1      -4.682  -1.710 -33.239  1.00  0.00     0.062 A 
HETATM   25  C   UNL     1      -5.067  -2.785 -33.947  1.00  0.00     0.103 A 
HETATM   26  C   UNL     1      -6.372  -2.765 -34.625  1.00  0.00     0.261 A 
HETATM   27  N   UNL     1      -7.065  -1.608 -34.484  1.00  0.00    -0.152 N 
HETATM   28  O   UNL     1      -6.784  -3.729 -35.254  1.00  0.00    -0.268 OA
HETATM   29  H   UNL     1      -7.985  -1.541 -34.911  1.00  0.00     0.187 HD
BRANCH  24  30
HETATM   30  C   UNL     1      -3.328  -1.708 -32.542  1.00  0.00     0.030 C 
HETATM   31  C   UNL     1      -3.020  -3.056 -31.886  1.00  0.00     0.016 C 
HETATM   32  C   UNL     1      -3.241  -0.570 -31.524  1.00  0.00     0.016 C 
ENDBRANCH  24  30
ENDBRANCH   1  22
BRANCH   3  33
HETATM   33  C   UNL     1     -10.929   1.469 -34.167  1.00  0.00     0.105 A 
HETATM   34  O   UNL     1     -11.401   2.463 -34.980  1.00  0.00    -0.320 OA
HETATM   35  C   UNL     1     -12.744   2.292 -35.087  1.00  0.00     0.142 A 
HETATM   36  C   UNL     1     -13.151   1.201 -34.355  1.00  0.00     0.027 A 
HETATM   37  C   UNL     1     -11.981   0.669 -33.761  1.00  0.00     0.041 A 
ENDBRANCH   3  33
TORSDOF 7
ENDMDL
MODEL 8
REMARK VINA RESULT:      -9.0      2.484      6.156
REMARK  7 active torsions:
REMARK  status: ('A' for Active; 'I' for Inactive)
REMARK    1  A    between atoms: C_2  and  C_3 
REMARK    2  A    between atoms: C_5  and  N_6 
REMARK    3  A    between atoms: C_8  and  C_9 
REMARK    4  A    between atoms: C_15  and  N_16 
REMARK       I    between atoms: N_16  and  C_17 
REMARK    5  A    between atoms: C_17  and  C_18 
REMARK    6  A    between atoms: C_18  and  O_19 
REMARK    7  A    between atoms: O_19  and  C_20 
ROOT
HETATM    1  N   UNL     1      -6.168   4.834 -31.979  1.00  0.00    -0.044 N 
HETATM    2  N   UNL     1      -6.114   6.199 -31.862  1.00  0.00    -0.148 NA
HETATM    3  C   UNL     1      -4.860   6.444 -31.469  1.00  0.00     0.115 C 
HETATM    4  C   UNL     1      -4.077   5.271 -31.403  1.00  0.00     0.087 C 
HETATM    5  C   UNL     1      -4.903   4.266 -31.849  1.00  0.00     0.152 C 
ENDROOT
BRANCH   5   6
HETATM    6  N   UNL     1      -4.478   2.964 -32.064  1.00  0.00    -0.309 N 
HETATM    7  C   UNL     1      -4.527   1.989 -31.005  1.00  0.00     0.247 C 
HETATM    8  O   UNL     1      -5.190   2.219 -30.005  1.00  0.00    -0.271 OA
HETATM    9  H   UNL     1      -4.237   2.643 -32.997  1.00  0.00     0.170 HD
BRANCH   7  10
HETATM   10  C   UNL     1      -3.722   0.731 -31.248  1.00  0.00     0.278 C 
BRANCH  10  11
HETATM   11  O   UNL     1      -3.518   0.547 -32.647  1.00  0.00    -0.342 OA
BRANCH  11  12
HETATM   12  C   UNL     1      -4.361  -0.364 -33.234  1.00  0.00     0.070 A 
HETATM   13  C   UNL     1      -3.880  -1.674 -33.298  1.00  0.00     0.049 A 
HETATM   14  C   UNL     1      -4.642  -2.700 -33.886  1.00  0.00    -0.023 A 
HETATM   15  C   UNL     1      -5.922  -2.399 -34.403  1.00  0.00    -0.026 A 
HETATM   16  C   UNL     1      -4.161  -4.016 -33.978  1.00  0.00     0.012 A 
HETATM   17  C   UNL     1      -6.404  -1.087 -34.315  1.00  0.00     0.015 A 
HETATM   18  C   UNL     1      -6.686  -3.418 -34.995  1.00  0.00     0.012 A 
HETATM   19  C   UNL     1      -5.632  -0.076 -33.733  1.00  0.00     0.037 A 
HETATM   20  C   UNL     1      -6.192  -4.720 -35.079  1.00  0.00     0.001 A 
HETATM   21  C   UNL     1      -4.931  -5.019 -34.571  1.00  0.00     0.001 A 
ENDBRANCH  11  12
ENDBRANCH  10  11
ENDBRANCH   7  10
ENDBRANCH   5   6
BRANCH   1  22
HETATM   22  C   UNL     1      -7.431   4.209 -32.039  1.00  0.00     0.732 A 
HETATM   23  N   UNL     1      -7.662   3.095 -32.663  1.00  0.00    -0.067 NA
HETATM   24  C   UNL     1      -8.956   2.613 -32.590  1.00  0.00     0.062 A 
HETATM   25  C   UNL     1      -9.932   3.212 -31.887  1.00  0.00     0.103 A 
HETATM   26  C   UNL     1      -9.631   4.456 -31.162  1.00  0.00     0.261 A 
HETATM   27  N   UNL     1      -8.358   4.902 -31.308  1.00  0.00    -0.152 N 
HETATM   28  O   UNL     1     -10.473   5.022 -30.480  1.00  0.00    -0.268 OA
HETATM   29  H   UNL     1      -8.082   5.745 -30.812  1.00  0.00     0.187 HD
BRANCH  24  30
HETATM   30  C   UNL     1      -9.255   1.332 -33.358  1.00  0.00     0.030 C 
HETATM   31  C   UNL     1     -10.538   1.445 -34.184  1.00  0.00     0.016 C 
HETATM   32  C   UNL     1      -9.315   0.132 -32.412  1.00  0.00     0.016 C 
ENDBRANCH  24  30
ENDBRANCH   1  22
BRANCH   3  33
HETATM   33  C   UNL     1      -4.368   7.818 -31.160  1.00  0.00     0.105 A 
HETATM   34  O   UNL     1      -3.075   8.230 -31.329  1.00  0.00    -0.320 OA
HETATM   35  C   UNL     1      -3.014   9.532 -30.946  1.00  0.00     0.142 A 
HETATM   36  C   UNL     1      -4.248   9.971 -30.531  1.00  0.00     0.027 A 
HETATM   37  C   UNL     1      -5.124   8.866 -30.668  1.00  0.00     0.041 A 
ENDBRANCH   3  33
TORSDOF 7
ENDMDL
MODEL 9
REMARK VINA RESULT:      -9.0      3.447      8.448
REMARK  7 active torsions:
REMARK  status: ('A' for Active; 'I' for Inactive)
REMARK    1  A    between atoms: C_2  and  C_3 
REMARK    2  A    between atoms: C_5  and  N_6 
REMARK    3  A    between atoms: C_8  and  C_9 
REMARK    4  A    between atoms: C_15  and  N_16 
REMARK       I    between atoms: N_16  and  C_17 
REMARK    5  A    between atoms: C_17  and  C_18 
REMARK    6  A    between atoms: C_18  and  O_19 
REMARK    7  A    between atoms: O_19  and  C_20 
ROOT
HETATM    1  N   UNL     1      -9.626   5.184 -34.217  1.00  0.00    -0.044 N 
HETATM    2  N   UNL     1     -10.497   6.238 -34.316  1.00  0.00    -0.148 NA
HETATM    3  C   UNL     1     -11.484   5.774 -35.090  1.00  0.00     0.115 C 
HETATM    4  C   UNL     1     -11.307   4.415 -35.432  1.00  0.00     0.087 C 
HETATM    5  C   UNL     1     -10.171   4.025 -34.763  1.00  0.00     0.152 C 
ENDROOT
BRANCH   5   6
HETATM    6  N   UNL     1      -9.716   2.715 -34.725  1.00  0.00    -0.309 N 
HETATM    7  C   UNL     1     -10.086   1.838 -33.645  1.00  0.00     0.247 C 
HETATM    8  O   UNL     1     -11.012   2.146 -32.908  1.00  0.00    -0.271 OA
HETATM    9  H   UNL     1      -9.215   2.316 -35.513  1.00  0.00     0.170 HD
BRANCH   7  10
HETATM   10  C   UNL     1      -9.261   0.576 -33.526  1.00  0.00     0.278 C 
BRANCH  10  11
HETATM   11  O   UNL     1      -8.353   0.484 -34.622  1.00  0.00    -0.342 OA
BRANCH  11  12
HETATM   12  C   UNL     1      -7.252  -0.302 -34.390  1.00  0.00     0.070 A 
HETATM   13  C   UNL     1      -7.383  -1.644 -34.754  1.00  0.00     0.049 A 
HETATM   14  C   UNL     1      -6.330  -2.556 -34.558  1.00  0.00    -0.023 A 
HETATM   15  C   UNL     1      -5.116  -2.099 -34.000  1.00  0.00    -0.026 A 
HETATM   16  C   UNL     1      -6.457  -3.913 -34.897  1.00  0.00     0.012 A 
HETATM   17  C   UNL     1      -4.986  -0.746 -33.658  1.00  0.00     0.015 A 
HETATM   18  C   UNL     1      -4.062  -3.005 -33.798  1.00  0.00     0.012 A 
HETATM   19  C   UNL     1      -6.045   0.148 -33.853  1.00  0.00     0.037 A 
HETATM   20  C   UNL     1      -4.206  -4.350 -34.140  1.00  0.00     0.001 A 
HETATM   21  C   UNL     1      -5.401  -4.803 -34.689  1.00  0.00     0.001 A 
ENDBRANCH  11  12
ENDBRANCH  10  11
ENDBRANCH   7  10
ENDBRANCH   5   6
BRANCH   1  22
HETATM   22  C   UNL     1      -8.314   5.431 -33.763  1.00  0.00     0.732 A 
HETATM   23  N   UNL     1      -7.273   4.755 -34.142  1.00  0.00    -0.067 NA
HETATM   24  C   UNL     1      -6.059   5.158 -33.614  1.00  0.00     0.062 A 
HETATM   25  C   UNL     1      -5.922   6.211 -32.792  1.00  0.00     0.103 A 
HETATM   26  C   UNL     1      -7.115   6.980 -32.408  1.00  0.00     0.261 A 
HETATM   27  N   UNL     1      -8.280   6.510 -32.920  1.00  0.00    -0.152 N 
HETATM   28  O   UNL     1      -7.040   7.966 -31.689  1.00  0.00    -0.268 OA
HETATM   29  H   UNL     1      -9.137   7.012 -32.709  1.00  0.00     0.187 HD
BRANCH  24  30
HETATM   30  C   UNL     1      -4.836   4.343 -34.012  1.00  0.00     0.030 C 
HETATM   31  C   UNL     1      -4.030   3.887 -32.792  1.00  0.00     0.016 C 
HETATM   32  C   UNL     1      -3.956   5.123 -34.989  1.00  0.00     0.016 C 
ENDBRANCH  24  30
ENDBRANCH   1  22
BRANCH   3  33
HETATM   33  C   UNL     1     -12.638   6.618 -35.513  1.00  0.00     0.105 A 
HETATM   34  O   UNL     1     -13.905   6.499 -35.011  1.00  0.00    -0.320 OA
HETATM   35  C   UNL     1     -14.674   7.432 -35.631  1.00  0.00     0.142 A 
HETATM   36  C   UNL     1     -13.925   8.154 -36.529  1.00  0.00     0.027 A 
HETATM   37  C   UNL     1     -12.611   7.630 -36.455  1.00  0.00     0.041 A 
ENDBRANCH   3  33
TORSDOF 7
ENDMDL
MODEL 10
REMARK VINA RESULT:      -9.0      3.783      6.436
REMARK  7 active torsions:
REMARK  status: ('A' for Active; 'I' for Inactive)
REMARK    1  A    between atoms: C_2  and  C_3 
REMARK    2  A    between atoms: C_5  and  N_6 
REMARK    3  A    between atoms: C_8  and  C_9 
REMARK    4  A    between atoms: C_15  and  N_16 
REMARK       I    between atoms: N_16  and  C_17 
REMARK    5  A    between atoms: C_17  and  C_18 
REMARK    6  A    between atoms: C_18  and  O_19 
REMARK    7  A    between atoms: O_19  and  C_20 
ROOT
HETATM    1  N   UNL     1      -3.923   6.362 -29.794  1.00  0.00    -0.044 N 
HETATM    2  N   UNL     1      -3.505   7.114 -28.727  1.00  0.00    -0.148 NA
HETATM    3  C   UNL     1      -4.638   7.593 -28.202  1.00  0.00     0.115 C 
HETATM    4  C   UNL     1      -5.787   7.104 -28.862  1.00  0.00     0.087 C 
HETATM    5  C   UNL     1      -5.308   6.223 -29.803  1.00  0.00     0.152 C 
ENDROOT
BRANCH   5   6
HETATM    6  N   UNL     1      -6.126   5.421 -30.586  1.00  0.00    -0.309 N 
HETATM    7  C   UNL     1      -6.079   3.987 -30.468  1.00  0.00     0.247 C 
HETATM    8  O   UNL     1      -5.531   3.478 -29.500  1.00  0.00    -0.271 OA
HETATM    9  H   UNL     1      -6.851   5.829 -31.166  1.00  0.00     0.170 HD
BRANCH   7  10
HETATM   10  C   UNL     1      -6.738   3.225 -31.597  1.00  0.00     0.278 C 
BRANCH  10  11
HETATM   11  O   UNL     1      -7.013   1.888 -31.185  1.00  0.00    -0.342 OA
BRANCH  11  12
HETATM   12  C   UNL     1      -6.293   0.925 -31.847  1.00  0.00     0.070 A 
HETATM   13  C   UNL     1      -7.046   0.026 -32.606  1.00  0.00     0.049 A 
HETATM   14  C   UNL     1      -6.429  -1.016 -33.322  1.00  0.00    -0.023 A 
HETATM   15  C   UNL     1      -5.022  -1.139 -33.285  1.00  0.00    -0.026 A 
HETATM   16  C   UNL     1      -7.176  -1.941 -34.071  1.00  0.00     0.012 A 
HETATM   17  C   UNL     1      -4.274  -0.220 -32.539  1.00  0.00     0.015 A 
HETATM   18  C   UNL     1      -4.400  -2.179 -33.996  1.00  0.00     0.012 A 
HETATM   19  C   UNL     1      -4.902   0.806 -31.826  1.00  0.00     0.037 A 
HETATM   20  C   UNL     1      -5.158  -3.089 -34.733  1.00  0.00     0.001 A 
HETATM   21  C   UNL     1      -6.544  -2.971 -34.770  1.00  0.00     0.001 A 
ENDBRANCH  11  12
ENDBRANCH  10  11
ENDBRANCH   7  10
ENDBRANCH   5   6
BRANCH   1  22
HETATM   22  C   UNL     1      -2.978   5.994 -30.774  1.00  0.00     0.732 A 
HETATM   23  N   UNL     1      -3.154   6.153 -32.050  1.00  0.00    -0.067 NA
HETATM   24  C   UNL     1      -2.106   5.762 -32.863  1.00  0.00     0.062 A 
HETATM   25  C   UNL     1      -0.941   5.285 -32.393  1.00  0.00     0.103 A 
HETATM   26  C   UNL     1      -0.758   5.149 -30.940  1.00  0.00     0.261 A 
HETATM   27  N   UNL     1      -1.836   5.506 -30.198  1.00  0.00    -0.152 N 
HETATM   28  O   UNL     1       0.294   4.752 -30.459  1.00  0.00    -0.268 OA
HETATM   29  H   UNL     1      -1.763   5.456 -29.186  1.00  0.00     0.187 HD
BRANCH  24  30
HETATM   30  C   UNL     1      -2.317   5.896 -34.365  1.00  0.00     0.030 C 
HETATM   31  C   UNL     1      -3.664   5.320 -34.809  1.00  0.00     0.016 C 
HETATM   32  C   UNL     1      -1.164   5.252 -35.137  1.00  0.00     0.016 C 
ENDBRANCH  24  30
ENDBRANCH   1  22
BRANCH   3  33
HETATM   33  C   UNL     1      -4.653   8.524 -27.037  1.00  0.00     0.105 A 
HETATM   34  O   UNL     1      -5.156   8.210 -25.804  1.00  0.00    -0.320 OA
HETATM   35  C   UNL     1      -4.992   9.300 -25.012  1.00  0.00     0.142 A 
HETATM   36  C   UNL     1      -4.391  10.319 -25.712  1.00  0.00     0.027 A 
HETATM   37  C   UNL     1      -4.171   9.821 -27.019  1.00  0.00     0.041 A 
ENDBRANCH   3  33
TORSDOF 7
ENDMDL
