MODEL 1
REMARK VINA RESULT:      -9.7      0.000      0.000
REMARK  8 active torsions:
REMARK  status: ('A' for Active; 'I' for Inactive)
REMARK    1  A    between atoms: C_2  and  N_3 
REMARK    2  A    between atoms: C_2  and  C_26 
REMARK       I    between atoms: N_3  and  C_4 
REMARK    3  A    between atoms: C_4  and  C_5 
REMARK    4  A    between atoms: C_5  and  S_6 
REMARK    5  A    between atoms: S_6  and  C_7 
REMARK    6  A    between atoms: C_10  and  C_11 
REMARK    7  A    between atoms: C_11  and  O_12 
REMARK    8  A    between atoms: O_12  and  C_13 
ROOT
HETATM    1  C   UNL     1      -3.677   4.632 -31.015  1.00  0.00     0.191 A 
HETATM    2  N   UNL     1      -4.378   3.475 -30.820  1.00  0.00    -0.314 N 
HETATM    3  C   UNL     1      -5.548   3.285 -30.004  1.00  0.00     0.160 C 
HETATM    4  C   UNL     1      -3.747   2.530 -31.598  1.00  0.00     0.154 A 
HETATM    5  N   UNL     1      -2.687   3.082 -32.158  1.00  0.00    -0.132 NA
HETATM    6  N   UNL     1      -2.637   4.395 -31.778  1.00  0.00    -0.123 NA
ENDROOT
BRANCH   1   7
HETATM    7  S   UNL     1      -4.155   6.179 -30.415  1.00  0.00    -0.081 SA
BRANCH   7   8
HETATM    8  C   UNL     1      -3.751   7.250 -31.829  1.00  0.00     0.185 C 
BRANCH   8   9
HETATM    9  C   UNL     1      -2.315   7.748 -31.769  1.00  0.00     0.227 C 
HETATM   10  N   UNL     1      -1.550   7.193 -30.772  1.00  0.00    -0.352 N 
HETATM   11  H   UNL     1      -1.957   6.448 -30.205  1.00  0.00     0.163 HD
HETATM   12  O   UNL     1      -1.892   8.605 -32.542  1.00  0.00    -0.273 OA
BRANCH  10  13
HETATM   13  C   UNL     1      -0.169   7.557 -30.509  1.00  0.00     0.113 C 
HETATM   14  C   UNL     1       0.820   6.708 -31.316  1.00  0.00     0.037 C 
BRANCH  13  15
HETATM   15  C   UNL     1       0.097   7.459 -29.016  1.00  0.00    -0.036 A 
HETATM   16  C   UNL     1      -0.687   6.619 -28.212  1.00  0.00     0.009 A 
HETATM   17  C   UNL     1      -0.425   6.492 -26.846  1.00  0.00     0.001 A 
HETATM   18  C   UNL     1       0.627   7.198 -26.266  1.00  0.00     0.000 A 
HETATM   19  C   UNL     1       1.422   8.028 -27.052  1.00  0.00     0.001 A 
HETATM   20  C   UNL     1       1.161   8.156 -28.417  1.00  0.00     0.009 A 
ENDBRANCH  13  15
ENDBRANCH  10  13
ENDBRANCH   8   9
ENDBRANCH   7   8
ENDBRANCH   1   7
BRANCH   4  21
HETATM   21  C   UNL     1      -4.220   1.138 -31.816  1.00  0.00     0.256 C 
BRANCH  21  22
HETATM   22  O   UNL     1      -4.998   1.140 -33.012  1.00  0.00    -0.344 OA
BRANCH  22  23
HETATM   23  C   UNL     1      -5.360  -0.098 -33.472  1.00  0.00     0.069 A 
HETATM   24  C   UNL     1      -4.526  -1.216 -33.517  1.00  0.00     0.044 A 
HETATM   25  C   UNL     1      -4.999  -2.447 -34.005  1.00  0.00    -0.049 A 
HETATM   26  C   UNL     1      -6.317  -2.542 -34.485  1.00  0.00    -0.052 A 
HETATM   27  C   UNL     1      -4.053  -3.623 -34.061  1.00  0.00     0.039 C 
HETATM   28  C   UNL     1      -6.881  -3.850 -34.986  1.00  0.00     0.039 C 
HETATM   29  C   UNL     1      -7.145  -1.413 -34.445  1.00  0.00     0.010 A 
HETATM   30  C   UNL     1      -5.805  -4.872 -35.346  1.00  0.00     0.005 C 
HETATM   31  C   UNL     1      -4.765  -4.963 -34.237  1.00  0.00     0.005 C 
HETATM   32  C   UNL     1      -6.666  -0.198 -33.951  1.00  0.00     0.037 A 
ENDBRANCH  22  23
ENDBRANCH  21  22
ENDBRANCH   4  21
TORSDOF 8
ENDMDL
MODEL 2
REMARK VINA RESULT:      -9.5      0.922      1.522
REMARK  8 active torsions:
REMARK  status: ('A' for Active; 'I' for Inactive)
REMARK    1  A    between atoms: C_2  and  N_3 
REMARK    2  A    between atoms: C_2  and  C_26 
REMARK       I    between atoms: N_3  and  C_4 
REMARK    3  A    between atoms: C_4  and  C_5 
REMARK    4  A    between atoms: C_5  and  S_6 
REMARK    5  A    between atoms: S_6  and  C_7 
REMARK    6  A    between atoms: C_10  and  C_11 
REMARK    7  A    between atoms: C_11  and  O_12 
REMARK    8  A    between atoms: O_12  and  C_13 
ROOT
HETATM    1  C   UNL     1      -4.206   4.926 -31.254  1.00  0.00     0.191 A 
HETATM    2  N   UNL     1      -5.312   4.294 -31.751  1.00  0.00    -0.314 N 
HETATM    3  C   UNL     1      -6.692   4.615 -31.500  1.00  0.00     0.160 C 
HETATM    4  C   UNL     1      -4.827   3.300 -32.572  1.00  0.00     0.154 A 
HETATM    5  N   UNL     1      -3.509   3.298 -32.501  1.00  0.00    -0.132 NA
HETATM    6  N   UNL     1      -3.124   4.307 -31.662  1.00  0.00    -0.123 NA
ENDROOT
BRANCH   1   7
HETATM    7  S   UNL     1      -4.246   6.371 -30.309  1.00  0.00    -0.081 SA
BRANCH   7   8
HETATM    8  C   UNL     1      -3.777   7.619 -31.547  1.00  0.00     0.185 C 
BRANCH   8   9
HETATM    9  C   UNL     1      -2.273   7.839 -31.586  1.00  0.00     0.227 C 
HETATM   10  N   UNL     1      -1.555   7.098 -30.680  1.00  0.00    -0.352 N 
HETATM   11  H   UNL     1      -2.051   6.409 -30.113  1.00  0.00     0.163 HD
HETATM   12  O   UNL     1      -1.754   8.647 -32.354  1.00  0.00    -0.273 OA
BRANCH  10  13
HETATM   13  C   UNL     1      -0.114   7.186 -30.517  1.00  0.00     0.113 C 
HETATM   14  C   UNL     1       0.620   6.019 -31.187  1.00  0.00     0.037 C 
BRANCH  13  15
HETATM   15  C   UNL     1       0.216   7.279 -29.037  1.00  0.00    -0.036 A 
HETATM   16  C   UNL     1      -0.377   6.395 -28.124  1.00  0.00     0.009 A 
HETATM   17  C   UNL     1      -0.049   6.446 -26.766  1.00  0.00     0.001 A 
HETATM   18  C   UNL     1       0.878   7.379 -26.304  1.00  0.00     0.000 A 
HETATM   19  C   UNL     1       1.483   8.257 -27.199  1.00  0.00     0.001 A 
HETATM   20  C   UNL     1       1.158   8.206 -28.555  1.00  0.00     0.009 A 
ENDBRANCH  13  15
ENDBRANCH  10  13
ENDBRANCH   8   9
ENDBRANCH   7   8
ENDBRANCH   1   7
BRANCH   4  21
HETATM   21  C   UNL     1      -5.653   2.420 -33.440  1.00  0.00     0.256 C 
BRANCH  21  22
HETATM   22  O   UNL     1      -6.109   1.338 -32.631  1.00  0.00    -0.344 OA
BRANCH  22  23
HETATM   23  C   UNL     1      -5.714   0.094 -33.048  1.00  0.00     0.069 A 
HETATM   24  C   UNL     1      -6.546  -0.859 -33.636  1.00  0.00     0.044 A 
HETATM   25  C   UNL     1      -6.038  -2.108 -34.034  1.00  0.00    -0.049 A 
HETATM   26  C   UNL     1      -4.685  -2.412 -33.805  1.00  0.00    -0.052 A 
HETATM   27  C   UNL     1      -6.980  -3.121 -34.641  1.00  0.00     0.039 C 
HETATM   28  C   UNL     1      -4.085  -3.725 -34.246  1.00  0.00     0.039 C 
HETATM   29  C   UNL     1      -3.859  -1.452 -33.206  1.00  0.00     0.010 A 
HETATM   30  C   UNL     1      -5.131  -4.806 -34.510  1.00  0.00     0.005 C 
HETATM   31  C   UNL     1      -6.262  -4.255 -35.369  1.00  0.00     0.005 C 
HETATM   32  C   UNL     1      -4.373  -0.212 -32.822  1.00  0.00     0.037 A 
ENDBRANCH  22  23
ENDBRANCH  21  22
ENDBRANCH   4  21
TORSDOF 8
ENDMDL
MODEL 3
REMARK VINA RESULT:      -9.5      2.428     10.182
REMARK  8 active torsions:
REMARK  status: ('A' for Active; 'I' for Inactive)
REMARK    1  A    between atoms: C_2  and  N_3 
REMARK    2  A    between atoms: C_2  and  C_26 
REMARK       I    between atoms: N_3  and  C_4 
REMARK    3  A    between atoms: C_4  and  C_5 
REMARK    4  A    between atoms: C_5  and  S_6 
REMARK    5  A    between atoms: S_6  and  C_7 
REMARK    6  A    between atoms: C_10  and  C_11 
REMARK    7  A    between atoms: C_11  and  O_12 
REMARK    8  A    between atoms: O_12  and  C_13 
ROOT
HETATM    1  C   UNL     1      -4.627   4.358 -33.592  1.00  0.00     0.191 A 
HETATM    2  N   UNL     1      -3.309   4.515 -33.267  1.00  0.00    -0.314 N 
HETATM    3  C   UNL     1      -2.634   4.042 -32.087  1.00  0.00     0.160 C 
HETATM    4  C   UNL     1      -2.750   5.197 -34.325  1.00  0.00     0.154 A 
HETATM    5  N   UNL     1      -3.703   5.492 -35.189  1.00  0.00    -0.132 NA
HETATM    6  N   UNL     1      -4.881   4.979 -34.719  1.00  0.00    -0.123 NA
ENDROOT
BRANCH   1   7
HETATM    7  S   UNL     1      -5.751   3.406 -32.691  1.00  0.00    -0.081 SA
BRANCH   7   8
HETATM    8  C   UNL     1      -7.312   3.801 -33.537  1.00  0.00     0.185 C 
BRANCH   8   9
HETATM    9  C   UNL     1      -8.092   2.547 -33.899  1.00  0.00     0.227 C 
HETATM   10  N   UNL     1      -7.435   1.366 -33.655  1.00  0.00    -0.352 N 
HETATM   11  H   UNL     1      -6.529   1.401 -33.187  1.00  0.00     0.163 HD
HETATM   12  O   UNL     1      -9.213   2.601 -34.402  1.00  0.00    -0.273 OA
BRANCH  10  13
HETATM   13  C   UNL     1      -7.977   0.055 -33.967  1.00  0.00     0.113 C 
HETATM   14  C   UNL     1      -9.046  -0.387 -32.961  1.00  0.00     0.037 C 
BRANCH  13  15
HETATM   15  C   UNL     1      -6.839  -0.949 -34.052  1.00  0.00    -0.036 A 
HETATM   16  C   UNL     1      -7.058  -2.219 -34.608  1.00  0.00     0.009 A 
HETATM   17  C   UNL     1      -6.009  -3.133 -34.727  1.00  0.00     0.001 A 
HETATM   18  C   UNL     1      -4.728  -2.791 -34.298  1.00  0.00     0.000 A 
HETATM   19  C   UNL     1      -4.493  -1.532 -33.754  1.00  0.00     0.001 A 
HETATM   20  C   UNL     1      -5.539  -0.616 -33.634  1.00  0.00     0.009 A 
ENDBRANCH  13  15
ENDBRANCH  10  13
ENDBRANCH   8   9
ENDBRANCH   7   8
ENDBRANCH   1   7
BRANCH   4  21
HETATM   21  C   UNL     1      -1.302   5.493 -34.492  1.00  0.00     0.256 C 
BRANCH  21  22
HETATM   22  O   UNL     1      -1.124   6.884 -34.233  1.00  0.00    -0.344 OA
BRANCH  22  23
HETATM   23  C   UNL     1      -1.115   7.232 -32.909  1.00  0.00     0.069 A 
HETATM   24  C   UNL     1      -0.220   6.746 -31.955  1.00  0.00     0.044 A 
HETATM   25  C   UNL     1      -0.293   7.173 -30.617  1.00  0.00    -0.049 A 
HETATM   26  C   UNL     1      -1.302   8.073 -30.230  1.00  0.00    -0.052 A 
HETATM   27  C   UNL     1       0.678   6.600 -29.612  1.00  0.00     0.039 C 
HETATM   28  C   UNL     1      -1.400   8.586 -28.814  1.00  0.00     0.039 C 
HETATM   29  C   UNL     1      -2.202   8.548 -31.193  1.00  0.00     0.010 A 
HETATM   30  C   UNL     1      -0.647   7.721 -27.806  1.00  0.00     0.005 C 
HETATM   31  C   UNL     1       0.753   7.404 -28.317  1.00  0.00     0.005 C 
HETATM   32  C   UNL     1      -2.114   8.123 -32.519  1.00  0.00     0.037 A 
ENDBRANCH  22  23
ENDBRANCH  21  22
ENDBRANCH   4  21
TORSDOF 8
ENDMDL
MODEL 4
REMARK VINA RESULT:      -9.4      1.769      2.309
REMARK  8 active torsions:
REMARK  status: ('A' for Active; 'I' for Inactive)
REMARK    1  A    between atoms: C_2  and  N_3 
REMARK    2  A    between atoms: C_2  and  C_26 
REMARK       I    between atoms: N_3  and  C_4 
REMARK    3  A    between atoms: C_4  and  C_5 
REMARK    4  A    between atoms: C_5  and  S_6 
REMARK    5  A    between atoms: S_6  and  C_7 
REMARK    6  A    between atoms: C_10  and  C_11 
REMARK    7  A    between atoms: C_11  and  O_12 
REMARK    8  A    between atoms: O_12  and  C_13 
ROOT
HETATM    1  C   UNL     1      -5.253   5.003 -32.928  1.00  0.00     0.191 A 
HETATM    2  N   UNL     1      -5.247   3.730 -32.432  1.00  0.00    -0.314 N 
HETATM    3  C   UNL     1      -4.325   3.163 -31.483  1.00  0.00     0.160 C 
HETATM    4  C   UNL     1      -6.332   3.108 -33.007  1.00  0.00     0.154 A 
HETATM    5  N   UNL     1      -6.900   3.945 -33.854  1.00  0.00    -0.132 NA
HETATM    6  N   UNL     1      -6.212   5.127 -33.814  1.00  0.00    -0.123 NA
ENDROOT
BRANCH   1   7
HETATM    7  S   UNL     1      -4.209   6.270 -32.391  1.00  0.00    -0.081 SA
BRANCH   7   8
HETATM    8  C   UNL     1      -2.961   6.288 -33.714  1.00  0.00     0.185 C 
BRANCH   8   9
HETATM    9  C   UNL     1      -1.586   6.671 -33.188  1.00  0.00     0.227 C 
HETATM   10  N   UNL     1      -1.280   6.170 -31.947  1.00  0.00    -0.352 N 
HETATM   11  H   UNL     1      -1.940   5.527 -31.506  1.00  0.00     0.163 HD
HETATM   12  O   UNL     1      -0.827   7.400 -33.824  1.00  0.00    -0.273 OA
BRANCH  10  13
HETATM   13  C   UNL     1      -0.041   6.446 -31.241  1.00  0.00     0.113 C 
HETATM   14  C   UNL     1       0.748   5.171 -30.929  1.00  0.00     0.037 C 
BRANCH  13  15
HETATM   15  C   UNL     1      -0.351   7.235 -29.979  1.00  0.00    -0.036 A 
HETATM   16  C   UNL     1      -1.681   7.432 -29.578  1.00  0.00     0.009 A 
HETATM   17  C   UNL     1      -1.974   8.121 -28.399  1.00  0.00     0.001 A 
HETATM   18  C   UNL     1      -0.944   8.619 -27.603  1.00  0.00     0.000 A 
HETATM   19  C   UNL     1       0.381   8.424 -27.983  1.00  0.00     0.001 A 
HETATM   20  C   UNL     1       0.676   7.735 -29.160  1.00  0.00     0.009 A 
ENDBRANCH  13  15
ENDBRANCH  10  13
ENDBRANCH   8   9
ENDBRANCH   7   8
ENDBRANCH   1   7
BRANCH   4  21
HETATM   21  C   UNL     1      -6.817   1.742 -32.677  1.00  0.00     0.256 C 
BRANCH  21  22
HETATM   22  O   UNL     1      -6.988   1.046 -33.912  1.00  0.00    -0.344 OA
BRANCH  22  23
HETATM   23  C   UNL     1      -6.355  -0.166 -33.988  1.00  0.00     0.069 A 
HETATM   24  C   UNL     1      -6.931  -1.347 -34.457  1.00  0.00     0.044 A 
HETATM   25  C   UNL     1      -6.190  -2.541 -34.499  1.00  0.00    -0.049 A 
HETATM   26  C   UNL     1      -4.865  -2.552 -34.029  1.00  0.00    -0.052 A 
HETATM   27  C   UNL     1      -6.862  -3.802 -34.989  1.00  0.00     0.039 C 
HETATM   28  C   UNL     1      -4.018  -3.800 -34.086  1.00  0.00     0.039 C 
HETATM   29  C   UNL     1      -4.297  -1.364 -33.551  1.00  0.00     0.010 A 
HETATM   30  C   UNL     1      -4.839  -5.078 -34.243  1.00  0.00     0.005 C 
HETATM   31  C   UNL     1      -5.877  -4.912 -35.346  1.00  0.00     0.005 C 
HETATM   32  C   UNL     1      -5.041  -0.183 -33.522  1.00  0.00     0.037 A 
ENDBRANCH  22  23
ENDBRANCH  21  22
ENDBRANCH   4  21
TORSDOF 8
ENDMDL
MODEL 5
REMARK VINA RESULT:      -9.3      3.790      6.467
REMARK  8 active torsions:
REMARK  status: ('A' for Active; 'I' for Inactive)
REMARK    1  A    between atoms: C_2  and  N_3 
REMARK    2  A    between atoms: C_2  and  C_26 
REMARK       I    between atoms: N_3  and  C_4 
REMARK    3  A    between atoms: C_4  and  C_5 
REMARK    4  A    between atoms: C_5  and  S_6 
REMARK    5  A    between atoms: S_6  and  C_7 
REMARK    6  A    between atoms: C_10  and  C_11 
REMARK    7  A    between atoms: C_11  and  O_12 
REMARK    8  A    between atoms: O_12  and  C_13 
ROOT
HETATM    1  C   UNL     1      -4.715   4.204 -30.926  1.00  0.00     0.191 A 
HETATM    2  N   UNL     1      -4.762   2.865 -30.655  1.00  0.00    -0.314 N 
HETATM    3  C   UNL     1      -5.796   2.148 -29.955  1.00  0.00     0.160 C 
HETATM    4  C   UNL     1      -3.624   2.337 -31.221  1.00  0.00     0.154 A 
HETATM    5  N   UNL     1      -2.908   3.322 -31.730  1.00  0.00    -0.132 NA
HETATM    6  N   UNL     1      -3.587   4.493 -31.530  1.00  0.00    -0.123 NA
ENDROOT
BRANCH   1   7
HETATM    7  S   UNL     1      -5.996   5.315 -30.599  1.00  0.00    -0.081 SA
BRANCH   7   8
HETATM    8  C   UNL     1      -6.070   6.243 -32.162  1.00  0.00     0.185 C 
BRANCH   8   9
HETATM    9  C   UNL     1      -6.599   5.388 -33.303  1.00  0.00     0.227 C 
HETATM   10  N   UNL     1      -7.925   5.046 -33.205  1.00  0.00    -0.352 N 
HETATM   11  H   UNL     1      -8.474   5.441 -32.440  1.00  0.00     0.163 HD
HETATM   12  O   UNL     1      -5.874   5.012 -34.222  1.00  0.00    -0.273 OA
BRANCH  10  13
HETATM   13  C   UNL     1      -8.620   4.200 -34.159  1.00  0.00     0.113 C 
HETATM   14  C   UNL     1      -9.914   4.842 -34.671  1.00  0.00     0.037 C 
BRANCH  13  15
HETATM   15  C   UNL     1      -8.880   2.842 -33.528  1.00  0.00    -0.036 A 
HETATM   16  C   UNL     1      -8.523   2.605 -32.192  1.00  0.00     0.009 A 
HETATM   17  C   UNL     1      -8.794   1.374 -31.590  1.00  0.00     0.001 A 
HETATM   18  C   UNL     1      -9.428   0.365 -32.314  1.00  0.00     0.000 A 
HETATM   19  C   UNL     1      -9.797   0.588 -33.637  1.00  0.00     0.001 A 
HETATM   20  C   UNL     1      -9.528   1.818 -34.239  1.00  0.00     0.009 A 
ENDBRANCH  13  15
ENDBRANCH  10  13
ENDBRANCH   8   9
ENDBRANCH   7   8
ENDBRANCH   1   7
BRANCH   4  21
HETATM   21  C   UNL     1      -3.291   0.890 -31.299  1.00  0.00     0.256 C 
BRANCH  21  22
HETATM   22  O   UNL     1      -3.121   0.571 -32.680  1.00  0.00    -0.344 OA
BRANCH  22  23
HETATM   23  C   UNL     1      -3.973  -0.385 -33.164  1.00  0.00     0.069 A 
HETATM   24  C   UNL     1      -3.623  -1.706 -33.449  1.00  0.00     0.044 A 
HETATM   25  C   UNL     1      -4.579  -2.613 -33.940  1.00  0.00    -0.049 A 
HETATM   26  C   UNL     1      -5.893  -2.174 -34.179  1.00  0.00    -0.052 A 
HETATM   27  C   UNL     1      -4.150  -4.025 -34.260  1.00  0.00     0.039 C 
HETATM   28  C   UNL     1      -6.962  -3.118 -34.672  1.00  0.00     0.039 C 
HETATM   29  C   UNL     1      -6.233  -0.844 -33.899  1.00  0.00     0.010 A 
HETATM   30  C   UNL     1      -6.399  -4.390 -35.302  1.00  0.00     0.005 C 
HETATM   31  C   UNL     1      -5.321  -4.993 -34.411  1.00  0.00     0.005 C 
HETATM   32  C   UNL     1      -5.277   0.045 -33.405  1.00  0.00     0.037 A 
ENDBRANCH  22  23
ENDBRANCH  21  22
ENDBRANCH   4  21
TORSDOF 8
ENDMDL
MODEL 6
REMARK VINA RESULT:      -9.2      1.730      2.270
REMARK  8 active torsions:
REMARK  status: ('A' for Active; 'I' for Inactive)
REMARK    1  A    between atoms: C_2  and  N_3 
REMARK    2  A    between atoms: C_2  and  C_26 
REMARK       I    between atoms: N_3  and  C_4 
REMARK    3  A    between atoms: C_4  and  C_5 
REMARK    4  A    between atoms: C_5  and  S_6 
REMARK    5  A    between atoms: S_6  and  C_7 
REMARK    6  A    between atoms: C_10  and  C_11 
REMARK    7  A    between atoms: C_11  and  O_12 
REMARK    8  A    between atoms: O_12  and  C_13 
ROOT
HETATM    1  C   UNL     1      -5.090   4.623 -31.898  1.00  0.00     0.191 A 
HETATM    2  N   UNL     1      -6.058   4.030 -32.658  1.00  0.00    -0.314 N 
HETATM    3  C   UNL     1      -6.830   4.627 -33.717  1.00  0.00     0.160 C 
HETATM    4  C   UNL     1      -6.120   2.726 -32.220  1.00  0.00     0.154 A 
HETATM    5  N   UNL     1      -5.288   2.581 -31.206  1.00  0.00    -0.132 NA
HETATM    6  N   UNL     1      -4.656   3.775 -30.996  1.00  0.00    -0.123 NA
ENDROOT
BRANCH   1   7
HETATM    7  S   UNL     1      -4.478   6.217 -32.159  1.00  0.00    -0.081 SA
BRANCH   7   8
HETATM    8  C   UNL     1      -3.372   5.947 -33.579  1.00  0.00     0.185 C 
BRANCH   8   9
HETATM    9  C   UNL     1      -1.937   6.336 -33.259  1.00  0.00     0.227 C 
HETATM   10  N   UNL     1      -1.551   6.112 -31.960  1.00  0.00    -0.352 N 
HETATM   11  H   UNL     1      -2.204   5.639 -31.334  1.00  0.00     0.163 HD
HETATM   12  O   UNL     1      -1.198   6.842 -34.102  1.00  0.00    -0.273 OA
BRANCH  10  13
HETATM   13  C   UNL     1      -0.242   6.450 -31.431  1.00  0.00     0.113 C 
HETATM   14  C   UNL     1       0.587   5.207 -31.089  1.00  0.00     0.037 C 
BRANCH  13  15
HETATM   15  C   UNL     1      -0.410   7.361 -30.226  1.00  0.00    -0.036 A 
HETATM   16  C   UNL     1       0.575   7.400 -29.228  1.00  0.00     0.009 A 
HETATM   17  C   UNL     1       0.448   8.263 -28.136  1.00  0.00     0.001 A 
HETATM   18  C   UNL     1      -0.660   9.101 -28.030  1.00  0.00     0.000 A 
HETATM   19  C   UNL     1      -1.641   9.081 -29.018  1.00  0.00     0.001 A 
HETATM   20  C   UNL     1      -1.516   8.221 -30.109  1.00  0.00     0.009 A 
ENDBRANCH  13  15
ENDBRANCH  10  13
ENDBRANCH   8   9
ENDBRANCH   7   8
ENDBRANCH   1   7
BRANCH   4  21
HETATM   21  C   UNL     1      -6.942   1.649 -32.833  1.00  0.00     0.256 C 
BRANCH  21  22
HETATM   22  O   UNL     1      -6.263   1.220 -34.012  1.00  0.00    -0.344 OA
BRANCH  22  23
HETATM   23  C   UNL     1      -5.828  -0.078 -33.992  1.00  0.00     0.069 A 
HETATM   24  C   UNL     1      -4.801  -0.571 -33.186  1.00  0.00     0.044 A 
HETATM   25  C   UNL     1      -4.433  -1.927 -33.238  1.00  0.00    -0.049 A 
HETATM   26  C   UNL     1      -5.085  -2.788 -34.138  1.00  0.00    -0.052 A 
HETATM   27  C   UNL     1      -3.297  -2.410 -32.369  1.00  0.00     0.039 C 
HETATM   28  C   UNL     1      -4.750  -4.258 -34.206  1.00  0.00     0.039 C 
HETATM   29  C   UNL     1      -6.109  -2.283 -34.950  1.00  0.00     0.010 A 
HETATM   30  C   UNL     1      -3.394  -4.596 -33.589  1.00  0.00     0.005 C 
HETATM   31  C   UNL     1      -3.249  -3.930 -32.227  1.00  0.00     0.005 C 
HETATM   32  C   UNL     1      -6.470  -0.936 -34.884  1.00  0.00     0.037 A 
ENDBRANCH  22  23
ENDBRANCH  21  22
ENDBRANCH   4  21
TORSDOF 8
ENDMDL
MODEL 7
REMARK VINA RESULT:      -9.0      2.219     10.450
REMARK  8 active torsions:
REMARK  status: ('A' for Active; 'I' for Inactive)
REMARK    1  A    between atoms: C_2  and  N_3 
REMARK    2  A    between atoms: C_2  and  C_26 
REMARK       I    between atoms: N_3  and  C_4 
REMARK    3  A    between atoms: C_4  and  C_5 
REMARK    4  A    between atoms: C_5  and  S_6 
REMARK    5  A    between atoms: S_6  and  C_7 
REMARK    6  A    between atoms: C_10  and  C_11 
REMARK    7  A    between atoms: C_11  and  O_12 
REMARK    8  A    between atoms: O_12  and  C_13 
ROOT
HETATM    1  C   UNL     1      -3.973   3.907 -33.031  1.00  0.00     0.191 A 
HETATM    2  N   UNL     1      -2.917   4.750 -33.233  1.00  0.00    -0.314 N 
HETATM    3  C   UNL     1      -2.784   5.761 -34.250  1.00  0.00     0.160 C 
HETATM    4  C   UNL     1      -2.014   4.452 -32.237  1.00  0.00     0.154 A 
HETATM    5  N   UNL     1      -2.480   3.437 -31.534  1.00  0.00    -0.132 NA
HETATM    6  N   UNL     1      -3.700   3.087 -32.044  1.00  0.00    -0.123 NA
ENDROOT
BRANCH   1   7
HETATM    7  S   UNL     1      -5.467   3.984 -33.893  1.00  0.00    -0.081 SA
BRANCH   7   8
HETATM    8  C   UNL     1      -6.654   4.190 -32.530  1.00  0.00     0.185 C 
BRANCH   8   9
HETATM    9  C   UNL     1      -7.328   2.876 -32.164  1.00  0.00     0.227 C 
HETATM   10  N   UNL     1      -6.469   1.864 -31.811  1.00  0.00    -0.352 N 
HETATM   11  H   UNL     1      -5.473   2.074 -31.740  1.00  0.00     0.163 HD
HETATM   12  O   UNL     1      -8.548   2.734 -32.215  1.00  0.00    -0.273 OA
BRANCH  10  13
HETATM   13  C   UNL     1      -6.895   0.518 -31.468  1.00  0.00     0.113 C 
HETATM   14  C   UNL     1      -6.323   0.050 -30.126  1.00  0.00     0.037 C 
BRANCH  13  15
HETATM   15  C   UNL     1      -6.520  -0.427 -32.597  1.00  0.00    -0.036 A 
HETATM   16  C   UNL     1      -7.422  -0.669 -33.644  1.00  0.00     0.009 A 
HETATM   17  C   UNL     1      -7.071  -1.505 -34.707  1.00  0.00     0.001 A 
HETATM   18  C   UNL     1      -5.814  -2.107 -34.740  1.00  0.00     0.000 A 
HETATM   19  C   UNL     1      -4.905  -1.869 -33.714  1.00  0.00     0.001 A 
HETATM   20  C   UNL     1      -5.253  -1.034 -32.652  1.00  0.00     0.009 A 
ENDBRANCH  13  15
ENDBRANCH  10  13
ENDBRANCH   8   9
ENDBRANCH   7   8
ENDBRANCH   1   7
BRANCH   4  21
HETATM   21  C   UNL     1      -0.756   5.195 -31.963  1.00  0.00     0.256 C 
BRANCH  21  22
HETATM   22  O   UNL     1      -0.383   4.910 -30.616  1.00  0.00    -0.344 OA
BRANCH  22  23
HETATM   23  C   UNL     1      -0.278   6.003 -29.798  1.00  0.00     0.069 A 
HETATM   24  C   UNL     1       0.590   6.115 -28.710  1.00  0.00     0.044 A 
HETATM   25  C   UNL     1       0.623   7.287 -27.935  1.00  0.00    -0.049 A 
HETATM   26  C   UNL     1      -0.252   8.345 -28.239  1.00  0.00    -0.052 A 
HETATM   27  C   UNL     1       1.558   7.354 -26.751  1.00  0.00     0.039 C 
HETATM   28  C   UNL     1      -0.229   9.636 -27.457  1.00  0.00     0.039 C 
HETATM   29  C   UNL     1      -1.126   8.221 -29.326  1.00  0.00     0.010 A 
HETATM   30  C   UNL     1       0.454   9.505 -26.098  1.00  0.00     0.005 C 
HETATM   31  C   UNL     1       1.783   8.774 -26.237  1.00  0.00     0.005 C 
HETATM   32  C   UNL     1      -1.145   7.054 -30.093  1.00  0.00     0.037 A 
ENDBRANCH  22  23
ENDBRANCH  21  22
ENDBRANCH   4  21
TORSDOF 8
ENDMDL
MODEL 8
REMARK VINA RESULT:      -8.7      1.807      2.595
REMARK  8 active torsions:
REMARK  status: ('A' for Active; 'I' for Inactive)
REMARK    1  A    between atoms: C_2  and  N_3 
REMARK    2  A    between atoms: C_2  and  C_26 
REMARK       I    between atoms: N_3  and  C_4 
REMARK    3  A    between atoms: C_4  and  C_5 
REMARK    4  A    between atoms: C_5  and  S_6 
REMARK    5  A    between atoms: S_6  and  C_7 
REMARK    6  A    between atoms: C_10  and  C_11 
REMARK    7  A    between atoms: C_11  and  O_12 
REMARK    8  A    between atoms: O_12  and  C_13 
ROOT
HETATM    1  C   UNL     1      -2.717   4.330 -32.792  1.00  0.00     0.191 A 
HETATM    2  N   UNL     1      -3.978   3.951 -33.159  1.00  0.00    -0.314 N 
HETATM    3  C   UNL     1      -4.740   4.417 -34.288  1.00  0.00     0.160 C 
HETATM    4  C   UNL     1      -4.357   3.000 -32.238  1.00  0.00     0.154 A 
HETATM    5  N   UNL     1      -3.403   2.883 -31.334  1.00  0.00    -0.132 NA
HETATM    6  N   UNL     1      -2.383   3.730 -31.675  1.00  0.00    -0.123 NA
ENDROOT
BRANCH   1   7
HETATM    7  S   UNL     1      -1.699   5.372 -33.719  1.00  0.00    -0.081 SA
BRANCH   7   8
HETATM    8  C   UNL     1      -2.509   6.981 -33.466  1.00  0.00     0.185 C 
BRANCH   8   9
HETATM    9  C   UNL     1      -1.879   7.756 -32.319  1.00  0.00     0.227 C 
HETATM   10  N   UNL     1      -1.497   6.992 -31.244  1.00  0.00    -0.352 N 
HETATM   11  H   UNL     1      -1.583   5.977 -31.314  1.00  0.00     0.163 HD
HETATM   12  O   UNL     1      -1.756   8.979 -32.351  1.00  0.00    -0.273 OA
BRANCH  10  13
HETATM   13  C   UNL     1      -0.917   7.533 -30.027  1.00  0.00     0.113 C 
HETATM   14  C   UNL     1       0.481   6.971 -29.749  1.00  0.00     0.037 C 
BRANCH  13  15
HETATM   15  C   UNL     1      -1.864   7.276 -28.866  1.00  0.00    -0.036 A 
HETATM   16  C   UNL     1      -1.366   7.174 -27.558  1.00  0.00     0.009 A 
HETATM   17  C   UNL     1      -2.232   6.979 -26.480  1.00  0.00     0.001 A 
HETATM   18  C   UNL     1      -3.607   6.888 -26.692  1.00  0.00     0.000 A 
HETATM   19  C   UNL     1      -4.117   6.997 -27.983  1.00  0.00     0.001 A 
HETATM   20  C   UNL     1      -3.254   7.193 -29.061  1.00  0.00     0.009 A 
ENDBRANCH  13  15
ENDBRANCH  10  13
ENDBRANCH   8   9
ENDBRANCH   7   8
ENDBRANCH   1   7
BRANCH   4  21
HETATM   21  C   UNL     1      -5.606   2.196 -32.292  1.00  0.00     0.256 C 
BRANCH  21  22
HETATM   22  O   UNL     1      -5.416   1.064 -31.445  1.00  0.00    -0.344 OA
BRANCH  22  23
HETATM   23  C   UNL     1      -5.164  -0.113 -32.096  1.00  0.00     0.069 A 
HETATM   24  C   UNL     1      -6.035  -0.745 -32.985  1.00  0.00     0.044 A 
HETATM   25  C   UNL     1      -5.675  -1.954 -33.607  1.00  0.00    -0.049 A 
HETATM   26  C   UNL     1      -4.439  -2.549 -33.303  1.00  0.00    -0.052 A 
HETATM   27  C   UNL     1      -6.661  -2.617 -34.540  1.00  0.00     0.039 C 
HETATM   28  C   UNL     1      -3.994  -3.828 -33.971  1.00  0.00     0.039 C 
HETATM   29  C   UNL     1      -3.574  -1.913 -32.403  1.00  0.00     0.010 A 
HETATM   30  C   UNL     1      -5.144  -4.610 -34.601  1.00  0.00     0.005 C 
HETATM   31  C   UNL     1      -6.027  -3.685 -35.428  1.00  0.00     0.005 C 
HETATM   32  C   UNL     1      -3.939  -0.710 -31.797  1.00  0.00     0.037 A 
ENDBRANCH  22  23
ENDBRANCH  21  22
ENDBRANCH   4  21
TORSDOF 8
ENDMDL
MODEL 9
REMARK VINA RESULT:      -8.6      4.757      7.345
REMARK  8 active torsions:
REMARK  status: ('A' for Active; 'I' for Inactive)
REMARK    1  A    between atoms: C_2  and  N_3 
REMARK    2  A    between atoms: C_2  and  C_26 
REMARK       I    between atoms: N_3  and  C_4 
REMARK    3  A    between atoms: C_4  and  C_5 
REMARK    4  A    between atoms: C_5  and  S_6 
REMARK    5  A    between atoms: S_6  and  C_7 
REMARK    6  A    between atoms: C_10  and  C_11 
REMARK    7  A    between atoms: C_11  and  O_12 
REMARK    8  A    between atoms: O_12  and  C_13 
ROOT
HETATM    1  C   UNL     1      -6.470   4.589 -30.757  1.00  0.00     0.191 A 
HETATM    2  N   UNL     1      -6.441   4.273 -32.086  1.00  0.00    -0.314 N 
HETATM    3  C   UNL     1      -6.675   5.154 -33.202  1.00  0.00     0.160 C 
HETATM    4  C   UNL     1      -6.110   2.938 -32.139  1.00  0.00     0.154 A 
HETATM    5  N   UNL     1      -6.024   2.475 -30.907  1.00  0.00    -0.132 NA
HETATM    6  N   UNL     1      -6.265   3.508 -30.043  1.00  0.00    -0.123 NA
ENDROOT
BRANCH   1   7
HETATM    7  S   UNL     1      -6.656   6.188 -30.133  1.00  0.00    -0.081 SA
BRANCH   7   8
HETATM    8  C   UNL     1      -8.325   6.099 -29.415  1.00  0.00     0.185 C 
BRANCH   8   9
HETATM    9  C   UNL     1      -9.391   5.918 -30.485  1.00  0.00     0.227 C 
HETATM   10  N   UNL     1     -10.224   4.843 -30.296  1.00  0.00    -0.352 N 
HETATM   11  H   UNL     1     -10.130   4.299 -29.437  1.00  0.00     0.163 HD
HETATM   12  O   UNL     1      -9.470   6.667 -31.456  1.00  0.00    -0.273 OA
BRANCH  10  13
HETATM   13  C   UNL     1     -11.280   4.461 -31.217  1.00  0.00     0.113 C 
HETATM   14  C   UNL     1     -12.635   4.305 -30.517  1.00  0.00     0.037 C 
BRANCH  13  15
HETATM   15  C   UNL     1     -10.875   3.189 -31.943  1.00  0.00    -0.036 A 
HETATM   16  C   UNL     1     -11.602   2.750 -33.060  1.00  0.00     0.009 A 
HETATM   17  C   UNL     1     -11.213   1.604 -33.758  1.00  0.00     0.001 A 
HETATM   18  C   UNL     1     -10.091   0.884 -33.353  1.00  0.00     0.000 A 
HETATM   19  C   UNL     1      -9.353   1.312 -32.253  1.00  0.00     0.001 A 
HETATM   20  C   UNL     1      -9.739   2.457 -31.555  1.00  0.00     0.009 A 
ENDBRANCH  13  15
ENDBRANCH  10  13
ENDBRANCH   8   9
ENDBRANCH   7   8
ENDBRANCH   1   7
BRANCH   4  21
HETATM   21  C   UNL     1      -5.833   2.167 -33.380  1.00  0.00     0.256 C 
BRANCH  21  22
HETATM   22  O   UNL     1      -4.945   1.107 -33.028  1.00  0.00    -0.344 OA
BRANCH  22  23
HETATM   23  C   UNL     1      -5.312  -0.133 -33.479  1.00  0.00     0.069 A 
HETATM   24  C   UNL     1      -4.487  -1.258 -33.504  1.00  0.00     0.044 A 
HETATM   25  C   UNL     1      -4.966  -2.490 -33.984  1.00  0.00    -0.049 A 
HETATM   26  C   UNL     1      -6.279  -2.579 -34.476  1.00  0.00    -0.052 A 
HETATM   27  C   UNL     1      -4.029  -3.674 -34.018  1.00  0.00     0.039 C 
HETATM   28  C   UNL     1      -6.849  -3.887 -34.969  1.00  0.00     0.039 C 
HETATM   29  C   UNL     1      -7.098  -1.443 -34.456  1.00  0.00     0.010 A 
HETATM   30  C   UNL     1      -5.778  -4.921 -35.308  1.00  0.00     0.005 C 
HETATM   31  C   UNL     1      -4.750  -5.010 -34.187  1.00  0.00     0.005 C 
HETATM   32  C   UNL     1      -6.614  -0.227 -33.970  1.00  0.00     0.037 A 
ENDBRANCH  22  23
ENDBRANCH  21  22
ENDBRANCH   4  21
TORSDOF 8
ENDMDL
MODEL 10
REMARK VINA RESULT:      -8.5      1.803      2.728
REMARK  8 active torsions:
REMARK  status: ('A' for Active; 'I' for Inactive)
REMARK    1  A    between atoms: C_2  and  N_3 
REMARK    2  A    between atoms: C_2  and  C_26 
REMARK       I    between atoms: N_3  and  C_4 
REMARK    3  A    between atoms: C_4  and  C_5 
REMARK    4  A    between atoms: C_5  and  S_6 
REMARK    5  A    between atoms: S_6  and  C_7 
REMARK    6  A    between atoms: C_10  and  C_11 
REMARK    7  A    between atoms: C_11  and  O_12 
REMARK    8  A    between atoms: O_12  and  C_13 
ROOT
HETATM    1  C   UNL     1      -2.105   4.994 -32.849  1.00  0.00     0.191 A 
HETATM    2  N   UNL     1      -3.338   4.572 -33.261  1.00  0.00    -0.314 N 
HETATM    3  C   UNL     1      -4.140   5.116 -34.326  1.00  0.00     0.160 C 
HETATM    4  C   UNL     1      -3.641   3.492 -32.463  1.00  0.00     0.154 A 
HETATM    5  N   UNL     1      -2.675   3.336 -31.578  1.00  0.00    -0.132 NA
HETATM    6  N   UNL     1      -1.721   4.288 -31.812  1.00  0.00    -0.123 NA
ENDROOT
BRANCH   1   7
HETATM    7  S   UNL     1      -1.171   6.211 -33.641  1.00  0.00    -0.081 SA
BRANCH   7   8
HETATM    8  C   UNL     1      -1.235   7.560 -32.422  1.00  0.00     0.185 C 
BRANCH   8   9
HETATM    9  C   UNL     1      -0.762   7.105 -31.050  1.00  0.00     0.227 C 
HETATM   10  N   UNL     1      -1.645   7.338 -30.025  1.00  0.00    -0.352 N 
HETATM   11  H   UNL     1      -2.566   7.716 -30.254  1.00  0.00     0.163 HD
HETATM   12  O   UNL     1       0.345   6.596 -30.880  1.00  0.00    -0.273 OA
BRANCH  10  13
HETATM   13  C   UNL     1      -1.378   7.024 -28.633  1.00  0.00     0.113 C 
HETATM   14  C   UNL     1      -2.664   6.827 -27.823  1.00  0.00     0.037 C 
BRANCH  13  15
HETATM   15  C   UNL     1      -0.500   8.111 -28.035  1.00  0.00    -0.036 A 
HETATM   16  C   UNL     1       0.875   7.894 -27.863  1.00  0.00     0.009 A 
HETATM   17  C   UNL     1       1.697   8.902 -27.352  1.00  0.00     0.001 A 
HETATM   18  C   UNL     1       1.156  10.140 -27.010  1.00  0.00     0.000 A 
HETATM   19  C   UNL     1      -0.205  10.375 -27.184  1.00  0.00     0.001 A 
HETATM   20  C   UNL     1      -1.027   9.370 -27.695  1.00  0.00     0.009 A 
ENDBRANCH  13  15
ENDBRANCH  10  13
ENDBRANCH   8   9
ENDBRANCH   7   8
ENDBRANCH   1   7
BRANCH   4  21
HETATM   21  C   UNL     1      -4.830   2.613 -32.617  1.00  0.00     0.256 C 
BRANCH  21  22
HETATM   22  O   UNL     1      -4.703   1.561 -31.662  1.00  0.00    -0.344 OA
BRANCH  22  23
HETATM   23  C   UNL     1      -4.576   0.306 -32.194  1.00  0.00     0.069 A 
HETATM   24  C   UNL     1      -5.463  -0.278 -33.100  1.00  0.00     0.044 A 
HETATM   25  C   UNL     1      -5.238  -1.576 -33.592  1.00  0.00    -0.049 A 
HETATM   26  C   UNL     1      -4.125  -2.306 -33.139  1.00  0.00    -0.052 A 
HETATM   27  C   UNL     1      -6.239  -2.179 -34.549  1.00  0.00     0.039 C 
HETATM   28  C   UNL     1      -3.822  -3.688 -33.664  1.00  0.00     0.039 C 
HETATM   29  C   UNL     1      -3.245  -1.716 -32.223  1.00  0.00     0.010 A 
HETATM   30  C   UNL     1      -5.025  -4.359 -34.325  1.00  0.00     0.005 C 
HETATM   31  C   UNL     1      -5.703  -3.399 -35.294  1.00  0.00     0.005 C 
HETATM   32  C   UNL     1      -3.475  -0.424 -31.747  1.00  0.00     0.037 A 
ENDBRANCH  22  23
ENDBRANCH  21  22
ENDBRANCH   4  21
TORSDOF 8
ENDMDL
