MODEL 1
REMARK VINA RESULT:      -9.1      0.000      0.000
REMARK  12 active torsions:
REMARK  status: ('A' for Active; 'I' for Inactive)
REMARK    1  A    between atoms: C_2  and  C_3 
REMARK    2  A    between atoms: C_3  and  N_4 
REMARK    3  A    between atoms: C_3  and  C_25 
REMARK    4  A    between atoms: N_4  and  C_6 
REMARK    5  A    between atoms: N_4  and  C_21 
REMARK    6  A    between atoms: C_6  and  C_7 
REMARK    7  A    between atoms: C_8  and  O_9 
REMARK    8  A    between atoms: C_21  and  C_22 
REMARK    9  A    between atoms: C_22  and  C_23 
REMARK   10  A    between atoms: C_23  and  O_24 
REMARK   11  A    between atoms: N_26  and  C_27 
REMARK   12  A    between atoms: C_27  and  C_28 
ROOT
HETATM    1  N   UNL     1      -6.616   3.313 -32.668  1.00  0.00    -0.055 N 
HETATM    2  H   UNL     1      -7.488   3.848 -32.696  1.00  0.00     0.281 HD
ENDROOT
BRANCH   1   3
HETATM    3  C   UNL     1      -5.524   4.354 -32.341  1.00  0.00     0.263 C 
BRANCH   3   4
HETATM    4  C   UNL     1      -6.046   5.610 -31.571  1.00  0.00     0.016 C 
HETATM    5  C   UNL     1      -5.891   5.489 -30.049  1.00  0.00     0.012 C 
HETATM    6  C   UNL     1      -7.459   6.099 -31.902  1.00  0.00     0.012 C 
ENDBRANCH   3   4
BRANCH   3   7
HETATM    7  C   UNL     1      -4.573   4.714 -33.436  1.00  0.00     0.168 A 
HETATM    8  N   UNL     1      -3.203   4.591 -33.394  1.00  0.00    -0.257 N 
HETATM    9  N   UNL     1      -2.673   5.070 -34.530  1.00  0.00    -0.003 NA
HETATM   10  N   UNL     1      -3.699   5.474 -35.257  1.00  0.00     0.018 NA
HETATM   11  N   UNL     1      -4.873   5.271 -34.591  1.00  0.00    -0.145 NA
BRANCH   8  12
HETATM   12  C   UNL     1      -2.326   4.055 -32.369  1.00  0.00     0.186 C 
BRANCH  12  13
HETATM   13  C   UNL     1      -1.593   5.134 -31.605  1.00  0.00    -0.039 A 
HETATM   14  C   UNL     1      -0.203   5.312 -31.717  1.00  0.00     0.009 A 
HETATM   15  C   UNL     1       0.437   6.367 -31.065  1.00  0.00     0.001 A 
HETATM   16  C   UNL     1      -0.302   7.271 -30.308  1.00  0.00     0.000 A 
HETATM   17  C   UNL     1      -1.683   7.123 -30.203  1.00  0.00     0.001 A 
HETATM   18  C   UNL     1      -2.326   6.066 -30.851  1.00  0.00     0.009 A 
ENDBRANCH  12  13
ENDBRANCH   8  12
ENDBRANCH   3   7
ENDBRANCH   1   3
BRANCH   1  19
HETATM   19  C   UNL     1      -6.632   2.654 -34.055  1.00  0.00     0.278 C 
BRANCH  19  20
HETATM   20  C   UNL     1      -6.578   1.167 -34.205  1.00  0.00     0.021 A 
HETATM   21  C   UNL     1      -7.677   0.467 -34.683  1.00  0.00     0.170 A 
HETATM   22  N   UNL     1      -7.767  -0.859 -34.858  1.00  0.00    -0.224 NA
HETATM   23  C   UNL     1      -6.691  -1.598 -34.551  1.00  0.00     0.072 A 
HETATM   24  C   UNL     1      -5.513  -1.013 -34.007  1.00  0.00    -0.004 A 
HETATM   25  C   UNL     1      -6.726  -2.971 -34.760  1.00  0.00     0.072 A 
HETATM   26  C   UNL     1      -5.490   0.379 -33.822  1.00  0.00     0.027 A 
HETATM   27  C   UNL     1      -4.404  -1.809 -33.672  1.00  0.00     0.053 A 
HETATM   28  C   UNL     1      -4.489  -3.163 -33.904  1.00  0.00     0.106 A 
HETATM   29  C   UNL     1      -5.620  -3.728 -34.436  1.00  0.00     0.107 A 
HETATM   30  O   UNL     1      -3.515  -4.075 -33.657  1.00  0.00    -0.323 OA
HETATM   31  O   UNL     1      -5.501  -5.073 -34.592  1.00  0.00    -0.323 OA
HETATM   32  C   UNL     1      -4.158  -5.288 -34.110  1.00  0.00     0.352 A 
BRANCH  21  33
HETATM   33  O   UNL     1      -8.820   1.112 -35.022  1.00  0.00    -0.344 OA
HETATM   34  H   UNL     1      -8.558   1.452 -35.902  1.00  0.00     0.219 HD
ENDBRANCH  21  33
ENDBRANCH  19  20
ENDBRANCH   1  19
BRANCH   1  35
HETATM   35  C   UNL     1      -6.854   2.305 -31.549  1.00  0.00     0.238 C 
BRANCH  35  36
HETATM   36  C   UNL     1      -8.184   2.570 -30.841  1.00  0.00     0.054 C 
BRANCH  36  37
HETATM   37  C   UNL     1      -9.328   1.871 -31.563  1.00  0.00     0.165 C 
BRANCH  37  38
HETATM   38  O   UNL     1      -9.335   0.509 -31.165  1.00  0.00    -0.401 OA
HETATM   39  H   UNL     1      -9.068  -0.022 -31.940  1.00  0.00     0.209 HD
ENDBRANCH  37  38
ENDBRANCH  36  37
ENDBRANCH  35  36
ENDBRANCH   1  35
TORSDOF 12
ENDMDL
MODEL 2
REMARK VINA RESULT:      -9.0      1.845      2.710
REMARK  12 active torsions:
REMARK  status: ('A' for Active; 'I' for Inactive)
REMARK    1  A    between atoms: C_2  and  C_3 
REMARK    2  A    between atoms: C_3  and  N_4 
REMARK    3  A    between atoms: C_3  and  C_25 
REMARK    4  A    between atoms: N_4  and  C_6 
REMARK    5  A    between atoms: N_4  and  C_21 
REMARK    6  A    between atoms: C_6  and  C_7 
REMARK    7  A    between atoms: C_8  and  O_9 
REMARK    8  A    between atoms: C_21  and  C_22 
REMARK    9  A    between atoms: C_22  and  C_23 
REMARK   10  A    between atoms: C_23  and  O_24 
REMARK   11  A    between atoms: N_26  and  C_27 
REMARK   12  A    between atoms: C_27  and  C_28 
ROOT
HETATM    1  N   UNL     1      -5.887   3.382 -31.881  1.00  0.00    -0.055 N 
HETATM    2  H   UNL     1      -6.542   2.620 -32.078  1.00  0.00     0.281 HD
ENDROOT
BRANCH   1   3
HETATM    3  C   UNL     1      -6.200   4.456 -32.944  1.00  0.00     0.263 C 
BRANCH   3   4
HETATM    4  C   UNL     1      -7.470   4.156 -33.805  1.00  0.00     0.016 C 
HETATM    5  C   UNL     1      -8.516   5.276 -33.744  1.00  0.00     0.012 C 
HETATM    6  C   UNL     1      -8.158   2.804 -33.593  1.00  0.00     0.012 C 
ENDBRANCH   3   4
BRANCH   3   7
HETATM    7  C   UNL     1      -5.059   4.953 -33.771  1.00  0.00     0.168 A 
HETATM    8  N   UNL     1      -4.053   5.790 -33.346  1.00  0.00    -0.257 N 
HETATM    9  N   UNL     1      -3.238   6.074 -34.374  1.00  0.00    -0.003 NA
HETATM   10  N   UNL     1      -3.732   5.419 -35.409  1.00  0.00     0.018 NA
HETATM   11  N   UNL     1      -4.858   4.734 -35.055  1.00  0.00    -0.145 NA
BRANCH   8  12
HETATM   12  C   UNL     1      -3.776   6.360 -32.040  1.00  0.00     0.186 C 
BRANCH  12  13
HETATM   13  C   UNL     1      -2.313   6.280 -31.665  1.00  0.00    -0.039 A 
HETATM   14  C   UNL     1      -1.504   7.427 -31.578  1.00  0.00     0.009 A 
HETATM   15  C   UNL     1      -0.179   7.334 -31.150  1.00  0.00     0.001 A 
HETATM   16  C   UNL     1       0.352   6.101 -30.784  1.00  0.00     0.000 A 
HETATM   17  C   UNL     1      -0.442   4.958 -30.843  1.00  0.00     0.001 A 
HETATM   18  C   UNL     1      -1.767   5.047 -31.275  1.00  0.00     0.009 A 
ENDBRANCH  12  13
ENDBRANCH   8  12
ENDBRANCH   3   7
ENDBRANCH   1   3
BRANCH   1  19
HETATM   19  C   UNL     1      -4.545   2.637 -31.942  1.00  0.00     0.278 C 
BRANCH  19  20
HETATM   20  C   UNL     1      -4.479   1.197 -32.344  1.00  0.00     0.021 A 
HETATM   21  C   UNL     1      -3.453   0.384 -31.883  1.00  0.00     0.170 A 
HETATM   22  N   UNL     1      -3.271  -0.913 -32.168  1.00  0.00    -0.224 NA
HETATM   23  C   UNL     1      -4.165  -1.500 -32.976  1.00  0.00     0.072 A 
HETATM   24  C   UNL     1      -5.240  -0.771 -33.558  1.00  0.00    -0.004 A 
HETATM   25  C   UNL     1      -4.039  -2.854 -33.262  1.00  0.00     0.072 A 
HETATM   26  C   UNL     1      -5.362   0.592 -33.241  1.00  0.00     0.027 A 
HETATM   27  C   UNL     1      -6.154  -1.401 -34.419  1.00  0.00     0.053 A 
HETATM   28  C   UNL     1      -5.986  -2.745 -34.664  1.00  0.00     0.106 A 
HETATM   29  C   UNL     1      -4.957  -3.452 -34.099  1.00  0.00     0.107 A 
HETATM   30  O   UNL     1      -6.778  -3.514 -35.454  1.00  0.00    -0.323 OA
HETATM   31  O   UNL     1      -4.970  -4.762 -34.461  1.00  0.00    -0.323 OA
HETATM   32  C   UNL     1      -6.136  -4.802 -35.311  1.00  0.00     0.352 A 
BRANCH  21  33
HETATM   33  O   UNL     1      -2.491   0.873 -31.062  1.00  0.00    -0.344 OA
HETATM   34  H   UNL     1      -2.306   0.068 -30.535  1.00  0.00     0.219 HD
ENDBRANCH  21  33
ENDBRANCH  19  20
ENDBRANCH   1  19
BRANCH   1  35
HETATM   35  C   UNL     1      -6.248   3.803 -30.462  1.00  0.00     0.238 C 
BRANCH  35  36
HETATM   36  C   UNL     1      -7.359   2.920 -29.890  1.00  0.00     0.054 C 
BRANCH  36  37
HETATM   37  C   UNL     1      -8.730   3.496 -30.221  1.00  0.00     0.165 C 
BRANCH  37  38
HETATM   38  O   UNL     1      -9.637   2.415 -30.377  1.00  0.00    -0.401 OA
HETATM   39  H   UNL     1     -10.513   2.725 -30.074  1.00  0.00     0.209 HD
ENDBRANCH  37  38
ENDBRANCH  36  37
ENDBRANCH  35  36
ENDBRANCH   1  35
TORSDOF 12
ENDMDL
MODEL 3
REMARK VINA RESULT:      -9.0      3.222      8.065
REMARK  12 active torsions:
REMARK  status: ('A' for Active; 'I' for Inactive)
REMARK    1  A    between atoms: C_2  and  C_3 
REMARK    2  A    between atoms: C_3  and  N_4 
REMARK    3  A    between atoms: C_3  and  C_25 
REMARK    4  A    between atoms: N_4  and  C_6 
REMARK    5  A    between atoms: N_4  and  C_21 
REMARK    6  A    between atoms: C_6  and  C_7 
REMARK    7  A    between atoms: C_8  and  O_9 
REMARK    8  A    between atoms: C_21  and  C_22 
REMARK    9  A    between atoms: C_22  and  C_23 
REMARK   10  A    between atoms: C_23  and  O_24 
REMARK   11  A    between atoms: N_26  and  C_27 
REMARK   12  A    between atoms: C_27  and  C_28 
ROOT
HETATM    1  N   UNL     1      -7.662   3.144 -33.029  1.00  0.00    -0.055 N 
HETATM    2  H   UNL     1      -7.317   3.280 -32.074  1.00  0.00     0.281 HD
ENDROOT
BRANCH   1   3
HETATM    3  C   UNL     1      -7.341   1.670 -33.358  1.00  0.00     0.263 C 
BRANCH   3   4
HETATM    4  C   UNL     1      -8.511   0.899 -34.051  1.00  0.00     0.016 C 
HETATM    5  C   UNL     1      -9.180  -0.130 -33.131  1.00  0.00     0.012 C 
HETATM    6  C   UNL     1      -8.218   0.254 -35.409  1.00  0.00     0.012 C 
ENDBRANCH   3   4
BRANCH   3   7
HETATM    7  C   UNL     1      -6.682   0.859 -32.290  1.00  0.00     0.168 A 
HETATM    8  N   UNL     1      -5.716  -0.103 -32.481  1.00  0.00    -0.257 N 
HETATM    9  N   UNL     1      -5.402  -0.667 -31.305  1.00  0.00    -0.003 NA
HETATM   10  N   UNL     1      -6.157  -0.058 -30.408  1.00  0.00     0.018 NA
HETATM   11  N   UNL     1      -6.956   0.874 -31.001  1.00  0.00    -0.145 NA
BRANCH   8  12
HETATM   12  C   UNL     1      -5.045  -0.551 -33.688  1.00  0.00     0.186 C 
BRANCH  12  13
HETATM   13  C   UNL     1      -5.307  -2.009 -33.995  1.00  0.00    -0.039 A 
HETATM   14  C   UNL     1      -6.552  -2.457 -34.468  1.00  0.00     0.009 A 
HETATM   15  C   UNL     1      -6.742  -3.794 -34.823  1.00  0.00     0.001 A 
HETATM   16  C   UNL     1      -5.689  -4.698 -34.728  1.00  0.00     0.000 A 
HETATM   17  C   UNL     1      -4.442  -4.267 -34.281  1.00  0.00     0.001 A 
HETATM   18  C   UNL     1      -4.249  -2.930 -33.923  1.00  0.00     0.009 A 
ENDBRANCH  12  13
ENDBRANCH   8  12
ENDBRANCH   3   7
ENDBRANCH   1   3
BRANCH   1  19
HETATM   19  C   UNL     1      -6.910   4.258 -33.773  1.00  0.00     0.278 C 
BRANCH  19  20
HETATM   20  C   UNL     1      -5.724   4.932 -33.159  1.00  0.00     0.021 A 
HETATM   21  C   UNL     1      -5.816   6.238 -32.699  1.00  0.00     0.170 A 
HETATM   22  N   UNL     1      -4.835   6.960 -32.138  1.00  0.00    -0.224 NA
HETATM   23  C   UNL     1      -3.639   6.372 -31.995  1.00  0.00     0.072 A 
HETATM   24  C   UNL     1      -3.393   5.052 -32.468  1.00  0.00    -0.004 A 
HETATM   25  C   UNL     1      -2.607   7.069 -31.378  1.00  0.00     0.072 A 
HETATM   26  C   UNL     1      -4.454   4.357 -33.070  1.00  0.00     0.027 A 
HETATM   27  C   UNL     1      -2.124   4.463 -32.327  1.00  0.00     0.053 A 
HETATM   28  C   UNL     1      -1.140   5.195 -31.704  1.00  0.00     0.106 A 
HETATM   29  C   UNL     1      -1.376   6.463 -31.240  1.00  0.00     0.107 A 
HETATM   30  O   UNL     1       0.131   4.780 -31.470  1.00  0.00    -0.323 OA
HETATM   31  O   UNL     1      -0.279   7.011 -30.653  1.00  0.00    -0.323 OA
HETATM   32  C   UNL     1       0.672   5.934 -30.788  1.00  0.00     0.352 A 
BRANCH  21  33
HETATM   33  O   UNL     1      -6.977   6.930 -32.794  1.00  0.00    -0.344 OA
HETATM   34  H   UNL     1      -7.265   6.892 -31.859  1.00  0.00     0.219 HD
ENDBRANCH  21  33
ENDBRANCH  19  20
ENDBRANCH   1  19
BRANCH   1  35
HETATM   35  C   UNL     1      -9.153   3.434 -32.912  1.00  0.00     0.238 C 
BRANCH  35  36
HETATM   36  C   UNL     1      -9.448   4.337 -31.713  1.00  0.00     0.054 C 
BRANCH  36  37
HETATM   37  C   UNL     1      -9.151   3.613 -30.407  1.00  0.00     0.165 C 
BRANCH  37  38
HETATM   38  O   UNL     1      -9.561   2.261 -30.547  1.00  0.00    -0.401 OA
HETATM   39  H   UNL     1     -10.055   2.022 -29.740  1.00  0.00     0.209 HD
ENDBRANCH  37  38
ENDBRANCH  36  37
ENDBRANCH  35  36
ENDBRANCH   1  35
TORSDOF 12
ENDMDL
MODEL 4
REMARK VINA RESULT:      -9.0      1.887      2.745
REMARK  12 active torsions:
REMARK  status: ('A' for Active; 'I' for Inactive)
REMARK    1  A    between atoms: C_2  and  C_3 
REMARK    2  A    between atoms: C_3  and  N_4 
REMARK    3  A    between atoms: C_3  and  C_25 
REMARK    4  A    between atoms: N_4  and  C_6 
REMARK    5  A    between atoms: N_4  and  C_21 
REMARK    6  A    between atoms: C_6  and  C_7 
REMARK    7  A    between atoms: C_8  and  O_9 
REMARK    8  A    between atoms: C_21  and  C_22 
REMARK    9  A    between atoms: C_22  and  C_23 
REMARK   10  A    between atoms: C_23  and  O_24 
REMARK   11  A    between atoms: N_26  and  C_27 
REMARK   12  A    between atoms: C_27  and  C_28 
ROOT
HETATM    1  N   UNL     1      -4.800   2.883 -31.659  1.00  0.00    -0.055 N 
HETATM    2  H   UNL     1      -5.146   2.563 -32.568  1.00  0.00     0.281 HD
ENDROOT
BRANCH   1   3
HETATM    3  C   UNL     1      -4.341   4.337 -31.902  1.00  0.00     0.263 C 
BRANCH   3   4
HETATM    4  C   UNL     1      -5.208   5.413 -31.172  1.00  0.00     0.016 C 
HETATM    5  C   UNL     1      -5.630   6.568 -32.090  1.00  0.00     0.012 C 
HETATM    6  C   UNL     1      -4.662   5.981 -29.858  1.00  0.00     0.012 C 
ENDBRANCH   3   4
BRANCH   3   7
HETATM    7  C   UNL     1      -4.018   4.727 -33.308  1.00  0.00     0.168 A 
HETATM    8  N   UNL     1      -2.810   5.207 -33.760  1.00  0.00    -0.257 N 
HETATM    9  N   UNL     1      -2.906   5.510 -35.064  1.00  0.00    -0.003 NA
HETATM   10  N   UNL     1      -4.148   5.217 -35.406  1.00  0.00     0.018 NA
HETATM   11  N   UNL     1      -4.845   4.745 -34.333  1.00  0.00    -0.145 NA
BRANCH   8  12
HETATM   12  C   UNL     1      -1.548   5.410 -33.072  1.00  0.00     0.186 C 
BRANCH  12  13
HETATM   13  C   UNL     1      -1.632   6.472 -31.999  1.00  0.00    -0.039 A 
HETATM   14  C   UNL     1      -1.105   6.272 -30.711  1.00  0.00     0.009 A 
HETATM   15  C   UNL     1      -1.122   7.298 -29.766  1.00  0.00     0.001 A 
HETATM   16  C   UNL     1      -1.646   8.544 -30.096  1.00  0.00     0.000 A 
HETATM   17  C   UNL     1      -2.154   8.767 -31.374  1.00  0.00     0.001 A 
HETATM   18  C   UNL     1      -2.142   7.741 -32.322  1.00  0.00     0.009 A 
ENDBRANCH  12  13
ENDBRANCH   8  12
ENDBRANCH   3   7
ENDBRANCH   1   3
BRANCH   1  19
HETATM   19  C   UNL     1      -3.747   1.807 -31.352  1.00  0.00     0.278 C 
BRANCH  19  20
HETATM   20  C   UNL     1      -3.861   0.430 -31.925  1.00  0.00     0.021 A 
HETATM   21  C   UNL     1      -2.917  -0.540 -31.621  1.00  0.00     0.170 A 
HETATM   22  N   UNL     1      -2.895  -1.803 -32.068  1.00  0.00    -0.224 NA
HETATM   23  C   UNL     1      -3.883  -2.186 -32.890  1.00  0.00     0.072 A 
HETATM   24  C   UNL     1      -4.890  -1.279 -33.321  1.00  0.00    -0.004 A 
HETATM   25  C   UNL     1      -3.922  -3.500 -33.341  1.00  0.00     0.072 A 
HETATM   26  C   UNL     1      -4.844   0.039 -32.838  1.00  0.00     0.027 A 
HETATM   27  C   UNL     1      -5.905  -1.695 -34.199  1.00  0.00     0.053 A 
HETATM   28  C   UNL     1      -5.901  -3.008 -34.611  1.00  0.00     0.106 A 
HETATM   29  C   UNL     1      -4.936  -3.887 -34.191  1.00  0.00     0.107 A 
HETATM   30  O   UNL     1      -6.808  -3.584 -35.442  1.00  0.00    -0.323 OA
HETATM   31  O   UNL     1      -5.113  -5.133 -34.706  1.00  0.00    -0.323 OA
HETATM   32  C   UNL     1      -6.311  -4.941 -35.488  1.00  0.00     0.352 A 
BRANCH  21  33
HETATM   33  O   UNL     1      -1.872  -0.263 -30.803  1.00  0.00    -0.344 OA
HETATM   34  H   UNL     1      -1.953   0.713 -30.763  1.00  0.00     0.219 HD
ENDBRANCH  21  33
ENDBRANCH  19  20
ENDBRANCH   1  19
BRANCH   1  35
HETATM   35  C   UNL     1      -6.020   2.771 -30.754  1.00  0.00     0.238 C 
BRANCH  35  36
HETATM   36  C   UNL     1      -7.302   2.605 -31.573  1.00  0.00     0.054 C 
BRANCH  36  37
HETATM   37  C   UNL     1      -7.939   1.247 -31.307  1.00  0.00     0.165 C 
BRANCH  37  38
HETATM   38  O   UNL     1      -9.295   1.459 -30.945  1.00  0.00    -0.401 OA
HETATM   39  H   UNL     1      -9.558   2.331 -31.300  1.00  0.00     0.209 HD
ENDBRANCH  37  38
ENDBRANCH  36  37
ENDBRANCH  35  36
ENDBRANCH   1  35
TORSDOF 12
ENDMDL
MODEL 5
REMARK VINA RESULT:      -8.9      3.289      4.942
REMARK  12 active torsions:
REMARK  status: ('A' for Active; 'I' for Inactive)
REMARK    1  A    between atoms: C_2  and  C_3 
REMARK    2  A    between atoms: C_3  and  N_4 
REMARK    3  A    between atoms: C_3  and  C_25 
REMARK    4  A    between atoms: N_4  and  C_6 
REMARK    5  A    between atoms: N_4  and  C_21 
REMARK    6  A    between atoms: C_6  and  C_7 
REMARK    7  A    between atoms: C_8  and  O_9 
REMARK    8  A    between atoms: C_21  and  C_22 
REMARK    9  A    between atoms: C_22  and  C_23 
REMARK   10  A    between atoms: C_23  and  O_24 
REMARK   11  A    between atoms: N_26  and  C_27 
REMARK   12  A    between atoms: C_27  and  C_28 
ROOT
HETATM    1  N   UNL     1      -3.556   5.192 -32.075  1.00  0.00    -0.055 N 
HETATM    2  H   UNL     1      -2.882   4.569 -32.528  1.00  0.00     0.281 HD
ENDROOT
BRANCH   1   3
HETATM    3  C   UNL     1      -2.735   5.962 -31.018  1.00  0.00     0.263 C 
BRANCH   3   4
HETATM    4  C   UNL     1      -2.833   7.517 -31.138  1.00  0.00     0.016 C 
HETATM    5  C   UNL     1      -1.494   8.178 -31.490  1.00  0.00     0.012 C 
HETATM    6  C   UNL     1      -3.482   8.271 -29.974  1.00  0.00     0.012 C 
ENDBRANCH   3   4
BRANCH   3   7
HETATM    7  C   UNL     1      -1.335   5.499 -30.770  1.00  0.00     0.168 A 
HETATM    8  N   UNL     1      -0.610   5.691 -29.617  1.00  0.00    -0.257 N 
HETATM    9  N   UNL     1       0.628   5.197 -29.776  1.00  0.00    -0.003 NA
HETATM   10  N   UNL     1       0.659   4.706 -31.001  1.00  0.00     0.018 NA
HETATM   11  N   UNL     1      -0.538   4.895 -31.628  1.00  0.00    -0.145 NA
BRANCH   8  12
HETATM   12  C   UNL     1      -0.975   6.306 -28.354  1.00  0.00     0.186 C 
BRANCH  12  13
HETATM   13  C   UNL     1       0.141   7.141 -27.766  1.00  0.00    -0.039 A 
HETATM   14  C   UNL     1       0.779   8.155 -28.502  1.00  0.00     0.009 A 
HETATM   15  C   UNL     1       1.748   8.965 -27.909  1.00  0.00     0.001 A 
HETATM   16  C   UNL     1       2.081   8.790 -26.570  1.00  0.00     0.000 A 
HETATM   17  C   UNL     1       1.444   7.804 -25.819  1.00  0.00     0.001 A 
HETATM   18  C   UNL     1       0.476   6.989 -26.410  1.00  0.00     0.009 A 
ENDBRANCH  12  13
ENDBRANCH   8  12
ENDBRANCH   3   7
ENDBRANCH   1   3
BRANCH   1  19
HETATM   19  C   UNL     1      -4.618   4.184 -31.609  1.00  0.00     0.278 C 
BRANCH  19  20
HETATM   20  C   UNL     1      -4.556   2.749 -32.026  1.00  0.00     0.021 A 
HETATM   21  C   UNL     1      -3.465   1.963 -31.683  1.00  0.00     0.170 A 
HETATM   22  N   UNL     1      -3.279   0.673 -31.996  1.00  0.00    -0.224 NA
HETATM   23  C   UNL     1      -4.238   0.064 -32.707  1.00  0.00     0.072 A 
HETATM   24  C   UNL     1      -5.389   0.765 -33.165  1.00  0.00    -0.004 A 
HETATM   25  C   UNL     1      -4.106  -1.285 -33.014  1.00  0.00     0.072 A 
HETATM   26  C   UNL     1      -5.514   2.122 -32.827  1.00  0.00     0.027 A 
HETATM   27  C   UNL     1      -6.373   0.113 -33.927  1.00  0.00     0.053 A 
HETATM   28  C   UNL     1      -6.195  -1.225 -34.198  1.00  0.00     0.106 A 
HETATM   29  C   UNL     1      -5.092  -1.905 -33.752  1.00  0.00     0.107 A 
HETATM   30  O   UNL     1      -7.047  -2.013 -34.903  1.00  0.00    -0.323 OA
HETATM   31  O   UNL     1      -5.108  -3.214 -34.120  1.00  0.00    -0.323 OA
HETATM   32  C   UNL     1      -6.358  -3.282 -34.839  1.00  0.00     0.352 A 
BRANCH  21  33
HETATM   33  O   UNL     1      -2.434   2.475 -30.967  1.00  0.00    -0.344 OA
HETATM   34  H   UNL     1      -2.316   3.325 -31.441  1.00  0.00     0.219 HD
ENDBRANCH  21  33
ENDBRANCH  19  20
ENDBRANCH   1  19
BRANCH   1  35
HETATM   35  C   UNL     1      -4.055   6.068 -33.218  1.00  0.00     0.238 C 
BRANCH  35  36
HETATM   36  C   UNL     1      -3.552   5.553 -34.568  1.00  0.00     0.054 C 
BRANCH  36  37
HETATM   37  C   UNL     1      -2.054   5.789 -34.710  1.00  0.00     0.165 C 
BRANCH  37  38
HETATM   38  O   UNL     1      -1.807   7.176 -34.541  1.00  0.00    -0.401 OA
HETATM   39  H   UNL     1      -0.838   7.302 -34.552  1.00  0.00     0.209 HD
ENDBRANCH  37  38
ENDBRANCH  36  37
ENDBRANCH  35  36
ENDBRANCH   1  35
TORSDOF 12
ENDMDL
MODEL 6
REMARK VINA RESULT:      -8.7      2.551      5.934
REMARK  12 active torsions:
REMARK  status: ('A' for Active; 'I' for Inactive)
REMARK    1  A    between atoms: C_2  and  C_3 
REMARK    2  A    between atoms: C_3  and  N_4 
REMARK    3  A    between atoms: C_3  and  C_25 
REMARK    4  A    between atoms: N_4  and  C_6 
REMARK    5  A    between atoms: N_4  and  C_21 
REMARK    6  A    between atoms: C_6  and  C_7 
REMARK    7  A    between atoms: C_8  and  O_9 
REMARK    8  A    between atoms: C_21  and  C_22 
REMARK    9  A    between atoms: C_22  and  C_23 
REMARK   10  A    between atoms: C_23  and  O_24 
REMARK   11  A    between atoms: N_26  and  C_27 
REMARK   12  A    between atoms: C_27  and  C_28 
ROOT
HETATM    1  N   UNL     1      -4.645   3.100 -31.616  1.00  0.00    -0.055 N 
HETATM    2  H   UNL     1      -4.459   3.792 -30.885  1.00  0.00     0.281 HD
ENDROOT
BRANCH   1   3
HETATM    3  C   UNL     1      -6.101   3.368 -32.052  1.00  0.00     0.263 C 
BRANCH   3   4
HETATM    4  C   UNL     1      -6.284   3.563 -33.592  1.00  0.00     0.016 C 
HETATM    5  C   UNL     1      -7.270   4.685 -33.943  1.00  0.00     0.012 C 
HETATM    6  C   UNL     1      -6.613   2.318 -34.423  1.00  0.00     0.012 C 
ENDBRANCH   3   4
BRANCH   3   7
HETATM    7  C   UNL     1      -6.880   4.367 -31.258  1.00  0.00     0.168 A 
HETATM    8  N   UNL     1      -8.011   4.110 -30.517  1.00  0.00    -0.257 N 
HETATM    9  N   UNL     1      -8.475   5.254 -29.991  1.00  0.00    -0.003 NA
HETATM   10  N   UNL     1      -7.641   6.194 -30.398  1.00  0.00     0.018 NA
HETATM   11  N   UNL     1      -6.662   5.664 -31.187  1.00  0.00    -0.145 NA
BRANCH   8  12
HETATM   12  C   UNL     1      -8.711   2.867 -30.247  1.00  0.00     0.186 C 
BRANCH  12  13
HETATM   13  C   UNL     1      -9.257   2.221 -31.501  1.00  0.00    -0.039 A 
HETATM   14  C   UNL     1     -10.027   2.938 -32.433  1.00  0.00     0.009 A 
HETATM   15  C   UNL     1     -10.448   2.340 -33.622  1.00  0.00     0.001 A 
HETATM   16  C   UNL     1     -10.093   1.025 -33.906  1.00  0.00     0.000 A 
HETATM   17  C   UNL     1      -9.313   0.306 -33.003  1.00  0.00     0.001 A 
HETATM   18  C   UNL     1      -8.892   0.900 -31.812  1.00  0.00     0.009 A 
ENDBRANCH  12  13
ENDBRANCH   8  12
ENDBRANCH   3   7
ENDBRANCH   1   3
BRANCH   1  19
HETATM   19  C   UNL     1      -4.314   1.795 -30.876  1.00  0.00     0.278 C 
BRANCH  19  20
HETATM   20  C   UNL     1      -4.283   0.485 -31.596  1.00  0.00     0.021 A 
HETATM   21  C   UNL     1      -3.170  -0.340 -31.511  1.00  0.00     0.170 A 
HETATM   22  N   UNL     1      -3.008  -1.529 -32.108  1.00  0.00    -0.224 NA
HETATM   23  C   UNL     1      -4.017  -1.985 -32.864  1.00  0.00     0.072 A 
HETATM   24  C   UNL     1      -5.197  -1.218 -33.076  1.00  0.00    -0.004 A 
HETATM   25  C   UNL     1      -3.909  -3.233 -33.464  1.00  0.00     0.072 A 
HETATM   26  C   UNL     1      -5.297   0.032 -32.444  1.00  0.00     0.027 A 
HETATM   27  C   UNL     1      -6.235  -1.705 -33.890  1.00  0.00     0.053 A 
HETATM   28  C   UNL     1      -6.078  -2.950 -34.456  1.00  0.00     0.106 A 
HETATM   29  C   UNL     1      -4.946  -3.694 -34.247  1.00  0.00     0.107 A 
HETATM   30  O   UNL     1      -6.979  -3.580 -35.253  1.00  0.00    -0.323 OA
HETATM   31  O   UNL     1      -4.990  -4.892 -34.888  1.00  0.00    -0.323 OA
HETATM   32  C   UNL     1      -6.288  -4.822 -35.514  1.00  0.00     0.352 A 
BRANCH  21  33
HETATM   33  O   UNL     1      -2.090   0.021 -30.776  1.00  0.00    -0.344 OA
HETATM   34  H   UNL     1      -2.437   0.844 -30.374  1.00  0.00     0.219 HD
ENDBRANCH  21  33
ENDBRANCH  19  20
ENDBRANCH   1  19
BRANCH   1  35
HETATM   35  C   UNL     1      -3.615   3.431 -32.689  1.00  0.00     0.238 C 
BRANCH  35  36
HETATM   36  C   UNL     1      -2.391   4.122 -32.084  1.00  0.00     0.054 C 
BRANCH  36  37
HETATM   37  C   UNL     1      -2.791   5.421 -31.396  1.00  0.00     0.165 C 
BRANCH  37  38
HETATM   38  O   UNL     1      -3.826   6.024 -32.156  1.00  0.00    -0.401 OA
HETATM   39  H   UNL     1      -4.302   6.638 -31.563  1.00  0.00     0.209 HD
ENDBRANCH  37  38
ENDBRANCH  36  37
ENDBRANCH  35  36
ENDBRANCH   1  35
TORSDOF 12
ENDMDL
MODEL 7
REMARK VINA RESULT:      -8.7      3.110      7.248
REMARK  12 active torsions:
REMARK  status: ('A' for Active; 'I' for Inactive)
REMARK    1  A    between atoms: C_2  and  C_3 
REMARK    2  A    between atoms: C_3  and  N_4 
REMARK    3  A    between atoms: C_3  and  C_25 
REMARK    4  A    between atoms: N_4  and  C_6 
REMARK    5  A    between atoms: N_4  and  C_21 
REMARK    6  A    between atoms: C_6  and  C_7 
REMARK    7  A    between atoms: C_8  and  O_9 
REMARK    8  A    between atoms: C_21  and  C_22 
REMARK    9  A    between atoms: C_22  and  C_23 
REMARK   10  A    between atoms: C_23  and  O_24 
REMARK   11  A    between atoms: N_26  and  C_27 
REMARK   12  A    between atoms: C_27  and  C_28 
ROOT
HETATM    1  N   UNL     1      -7.665   3.490 -33.023  1.00  0.00    -0.055 N 
HETATM    2  H   UNL     1      -6.856   3.456 -32.397  1.00  0.00     0.281 HD
ENDROOT
BRANCH   1   3
HETATM    3  C   UNL     1      -8.862   3.067 -32.144  1.00  0.00     0.263 C 
BRANCH   3   4
HETATM    4  C   UNL     1      -8.672   3.357 -30.621  1.00  0.00     0.016 C 
HETATM    5  C   UNL     1      -9.288   4.692 -30.181  1.00  0.00     0.012 C 
HETATM    6  C   UNL     1      -7.253   3.240 -30.055  1.00  0.00     0.012 C 
ENDBRANCH   3   4
BRANCH   3   7
HETATM    7  C   UNL     1      -9.452   1.717 -32.396  1.00  0.00     0.168 A 
HETATM    8  N   UNL     1     -10.562   1.448 -33.165  1.00  0.00    -0.257 N 
HETATM    9  N   UNL     1     -10.837   0.135 -33.113  1.00  0.00    -0.003 NA
HETATM   10  N   UNL     1      -9.910  -0.391 -32.332  1.00  0.00     0.018 NA
HETATM   11  N   UNL     1      -9.060   0.573 -31.876  1.00  0.00    -0.145 NA
BRANCH   8  12
HETATM   12  C   UNL     1     -11.404   2.321 -33.960  1.00  0.00     0.186 C 
BRANCH  12  13
HETATM   13  C   UNL     1     -12.878   2.116 -33.691  1.00  0.00    -0.039 A 
HETATM   14  C   UNL     1     -13.661   1.239 -34.462  1.00  0.00     0.009 A 
HETATM   15  C   UNL     1     -14.998   1.006 -34.140  1.00  0.00     0.001 A 
HETATM   16  C   UNL     1     -15.570   1.627 -33.034  1.00  0.00     0.000 A 
HETATM   17  C   UNL     1     -14.803   2.482 -32.246  1.00  0.00     0.001 A 
HETATM   18  C   UNL     1     -13.465   2.721 -32.567  1.00  0.00     0.009 A 
ENDBRANCH  12  13
ENDBRANCH   8  12
ENDBRANCH   3   7
ENDBRANCH   1   3
BRANCH   1  19
HETATM   19  C   UNL     1      -7.199   2.558 -34.152  1.00  0.00     0.278 C 
BRANCH  19  20
HETATM   20  C   UNL     1      -6.346   1.363 -33.865  1.00  0.00     0.021 A 
HETATM   21  C   UNL     1      -5.249   1.467 -33.022  1.00  0.00     0.170 A 
HETATM   22  N   UNL     1      -4.401   0.484 -32.687  1.00  0.00    -0.224 NA
HETATM   23  C   UNL     1      -4.626  -0.731 -33.208  1.00  0.00     0.072 A 
HETATM   24  C   UNL     1      -5.688  -0.966 -34.125  1.00  0.00    -0.004 A 
HETATM   25  C   UNL     1      -3.798  -1.788 -32.851  1.00  0.00     0.072 A 
HETATM   26  C   UNL     1      -6.526   0.110 -34.457  1.00  0.00     0.027 A 
HETATM   27  C   UNL     1      -5.893  -2.243 -34.675  1.00  0.00     0.053 A 
HETATM   28  C   UNL     1      -5.047  -3.256 -34.284  1.00  0.00     0.106 A 
HETATM   29  C   UNL     1      -4.028  -3.034 -33.394  1.00  0.00     0.107 A 
HETATM   30  O   UNL     1      -5.107  -4.547 -34.700  1.00  0.00    -0.323 OA
HETATM   31  O   UNL     1      -3.314  -4.161 -33.136  1.00  0.00    -0.323 OA
HETATM   32  C   UNL     1      -4.010  -5.123 -33.956  1.00  0.00     0.352 A 
BRANCH  21  33
HETATM   33  O   UNL     1      -4.926   2.649 -32.442  1.00  0.00    -0.344 OA
HETATM   34  H   UNL     1      -4.177   2.911 -33.017  1.00  0.00     0.219 HD
ENDBRANCH  21  33
ENDBRANCH  19  20
ENDBRANCH   1  19
BRANCH   1  35
HETATM   35  C   UNL     1      -7.714   4.948 -33.463  1.00  0.00     0.238 C 
BRANCH  35  36
HETATM   36  C   UNL     1      -6.755   5.806 -32.636  1.00  0.00     0.054 C 
BRANCH  36  37
HETATM   37  C   UNL     1      -5.354   5.777 -33.233  1.00  0.00     0.165 C 
BRANCH  37  38
HETATM   38  O   UNL     1      -5.414   5.077 -34.466  1.00  0.00    -0.401 OA
HETATM   39  H   UNL     1      -6.314   4.706 -34.547  1.00  0.00     0.209 HD
ENDBRANCH  37  38
ENDBRANCH  36  37
ENDBRANCH  35  36
ENDBRANCH   1  35
TORSDOF 12
ENDMDL
MODEL 8
REMARK VINA RESULT:      -8.5      2.810      4.114
REMARK  12 active torsions:
REMARK  status: ('A' for Active; 'I' for Inactive)
REMARK    1  A    between atoms: C_2  and  C_3 
REMARK    2  A    between atoms: C_3  and  N_4 
REMARK    3  A    between atoms: C_3  and  C_25 
REMARK    4  A    between atoms: N_4  and  C_6 
REMARK    5  A    between atoms: N_4  and  C_21 
REMARK    6  A    between atoms: C_6  and  C_7 
REMARK    7  A    between atoms: C_8  and  O_9 
REMARK    8  A    between atoms: C_21  and  C_22 
REMARK    9  A    between atoms: C_22  and  C_23 
REMARK   10  A    between atoms: C_23  and  O_24 
REMARK   11  A    between atoms: N_26  and  C_27 
REMARK   12  A    between atoms: C_27  and  C_28 
ROOT
HETATM    1  N   UNL     1      -4.471   5.282 -31.172  1.00  0.00    -0.055 N 
HETATM    2  H   UNL     1      -5.034   5.156 -32.018  1.00  0.00     0.281 HD
ENDROOT
BRANCH   1   3
HETATM    3  C   UNL     1      -3.240   6.089 -31.634  1.00  0.00     0.263 C 
BRANCH   3   4
HETATM    4  C   UNL     1      -3.257   6.475 -33.149  1.00  0.00     0.016 C 
HETATM    5  C   UNL     1      -3.640   5.304 -34.062  1.00  0.00     0.012 C 
HETATM    6  C   UNL     1      -2.014   7.173 -33.710  1.00  0.00     0.012 C 
ENDBRANCH   3   4
BRANCH   3   7
HETATM    7  C   UNL     1      -1.898   5.606 -31.188  1.00  0.00     0.168 A 
HETATM    8  N   UNL     1      -1.092   6.204 -30.246  1.00  0.00    -0.257 N 
HETATM    9  N   UNL     1       0.064   5.528 -30.147  1.00  0.00    -0.003 NA
HETATM   10  N   UNL     1      -0.034   4.532 -31.009  1.00  0.00     0.018 NA
HETATM   11  N   UNL     1      -1.231   4.574 -31.663  1.00  0.00    -0.145 NA
BRANCH   8  12
HETATM   12  C   UNL     1      -1.308   7.371 -29.411  1.00  0.00     0.186 C 
BRANCH  12  13
HETATM   13  C   UNL     1      -0.249   7.530 -28.342  1.00  0.00    -0.039 A 
HETATM   14  C   UNL     1       0.846   8.396 -28.503  1.00  0.00     0.009 A 
HETATM   15  C   UNL     1       1.763   8.586 -27.468  1.00  0.00     0.001 A 
HETATM   16  C   UNL     1       1.592   7.931 -26.253  1.00  0.00     0.000 A 
HETATM   17  C   UNL     1       0.500   7.085 -26.069  1.00  0.00     0.001 A 
HETATM   18  C   UNL     1      -0.418   6.890 -27.103  1.00  0.00     0.009 A 
ENDBRANCH  12  13
ENDBRANCH   8  12
ENDBRANCH   3   7
ENDBRANCH   1   3
BRANCH   1  19
HETATM   19  C   UNL     1      -4.286   3.824 -30.725  1.00  0.00     0.278 C 
BRANCH  19  20
HETATM   20  C   UNL     1      -4.732   2.688 -31.590  1.00  0.00     0.021 A 
HETATM   21  C   UNL     1      -5.874   2.803 -32.370  1.00  0.00     0.170 A 
HETATM   22  N   UNL     1      -6.387   1.866 -33.180  1.00  0.00    -0.224 NA
HETATM   23  C   UNL     1      -5.740   0.695 -33.260  1.00  0.00     0.072 A 
HETATM   24  C   UNL     1      -4.582   0.426 -32.477  1.00  0.00    -0.004 A 
HETATM   25  C   UNL     1      -6.213  -0.287 -34.121  1.00  0.00     0.072 A 
HETATM   26  C   UNL     1      -4.108   1.439 -31.628  1.00  0.00     0.027 A 
HETATM   27  C   UNL     1      -3.930  -0.817 -32.561  1.00  0.00     0.053 A 
HETATM   28  C   UNL     1      -4.437  -1.752 -33.434  1.00  0.00     0.106 A 
HETATM   29  C   UNL     1      -5.547  -1.492 -34.195  1.00  0.00     0.107 A 
HETATM   30  O   UNL     1      -3.930  -2.992 -33.654  1.00  0.00    -0.323 OA
HETATM   31  O   UNL     1      -5.882  -2.540 -34.994  1.00  0.00    -0.323 OA
HETATM   32  C   UNL     1      -4.844  -3.485 -34.658  1.00  0.00     0.352 A 
BRANCH  21  33
HETATM   33  O   UNL     1      -6.609   3.942 -32.365  1.00  0.00    -0.344 OA
HETATM   34  H   UNL     1      -6.845   3.977 -31.415  1.00  0.00     0.219 HD
ENDBRANCH  21  33
ENDBRANCH  19  20
ENDBRANCH   1  19
BRANCH   1  35
HETATM   35  C   UNL     1      -5.396   6.057 -30.241  1.00  0.00     0.238 C 
BRANCH  35  36
HETATM   36  C   UNL     1      -5.669   5.272 -28.957  1.00  0.00     0.054 C 
BRANCH  36  37
HETATM   37  C   UNL     1      -5.130   6.019 -27.743  1.00  0.00     0.165 C 
BRANCH  37  38
HETATM   38  O   UNL     1      -5.013   5.095 -26.672  1.00  0.00    -0.401 OA
HETATM   39  H   UNL     1      -4.202   4.573 -26.825  1.00  0.00     0.209 HD
ENDBRANCH  37  38
ENDBRANCH  36  37
ENDBRANCH  35  36
ENDBRANCH   1  35
TORSDOF 12
ENDMDL
MODEL 9
REMARK VINA RESULT:      -8.5      2.949      4.270
REMARK  12 active torsions:
REMARK  status: ('A' for Active; 'I' for Inactive)
REMARK    1  A    between atoms: C_2  and  C_3 
REMARK    2  A    between atoms: C_3  and  N_4 
REMARK    3  A    between atoms: C_3  and  C_25 
REMARK    4  A    between atoms: N_4  and  C_6 
REMARK    5  A    between atoms: N_4  and  C_21 
REMARK    6  A    between atoms: C_6  and  C_7 
REMARK    7  A    between atoms: C_8  and  O_9 
REMARK    8  A    between atoms: C_21  and  C_22 
REMARK    9  A    between atoms: C_22  and  C_23 
REMARK   10  A    between atoms: C_23  and  O_24 
REMARK   11  A    between atoms: N_26  and  C_27 
REMARK   12  A    between atoms: C_27  and  C_28 
ROOT
HETATM    1  N   UNL     1      -3.818   4.477 -31.917  1.00  0.00    -0.055 N 
HETATM    2  H   UNL     1      -2.999   3.890 -31.733  1.00  0.00     0.281 HD
ENDROOT
BRANCH   1   3
HETATM    3  C   UNL     1      -3.711   5.633 -30.899  1.00  0.00     0.263 C 
BRANCH   3   4
HETATM    4  C   UNL     1      -5.068   6.027 -30.232  1.00  0.00     0.016 C 
HETATM    5  C   UNL     1      -6.055   6.674 -31.213  1.00  0.00     0.012 C 
HETATM    6  C   UNL     1      -5.003   6.862 -28.949  1.00  0.00     0.012 C 
ENDBRANCH   3   4
BRANCH   3   7
HETATM    7  C   UNL     1      -2.910   6.828 -31.303  1.00  0.00     0.168 A 
HETATM    8  N   UNL     1      -1.607   7.090 -30.945  1.00  0.00    -0.257 N 
HETATM    9  N   UNL     1      -1.236   8.282 -31.438  1.00  0.00    -0.003 NA
HETATM   10  N   UNL     1      -2.289   8.739 -32.090  1.00  0.00     0.018 NA
HETATM   11  N   UNL     1      -3.329   7.860 -32.006  1.00  0.00    -0.145 NA
BRANCH   8  12
HETATM   12  C   UNL     1      -0.658   6.312 -30.170  1.00  0.00     0.186 C 
BRANCH  12  13
HETATM   13  C   UNL     1      -0.249   7.000 -28.886  1.00  0.00    -0.039 A 
HETATM   14  C   UNL     1       0.961   7.705 -28.772  1.00  0.00     0.009 A 
HETATM   15  C   UNL     1       1.275   8.400 -27.603  1.00  0.00     0.001 A 
HETATM   16  C   UNL     1       0.379   8.417 -26.538  1.00  0.00     0.000 A 
HETATM   17  C   UNL     1      -0.835   7.741 -26.642  1.00  0.00     0.001 A 
HETATM   18  C   UNL     1      -1.151   7.042 -27.809  1.00  0.00     0.009 A 
ENDBRANCH  12  13
ENDBRANCH   8  12
ENDBRANCH   3   7
ENDBRANCH   1   3
BRANCH   1  19
HETATM   19  C   UNL     1      -4.952   3.452 -31.770  1.00  0.00     0.278 C 
BRANCH  19  20
HETATM   20  C   UNL     1      -4.768   2.029 -32.195  1.00  0.00     0.021 A 
HETATM   21  C   UNL     1      -3.611   1.339 -31.862  1.00  0.00     0.170 A 
HETATM   22  N   UNL     1      -3.315   0.072 -32.183  1.00  0.00    -0.224 NA
HETATM   23  C   UNL     1      -4.222  -0.614 -32.893  1.00  0.00     0.072 A 
HETATM   24  C   UNL     1      -5.431  -0.013 -33.342  1.00  0.00    -0.004 A 
HETATM   25  C   UNL     1      -3.975  -1.945 -33.209  1.00  0.00     0.072 A 
HETATM   26  C   UNL     1      -5.672   1.327 -32.995  1.00  0.00     0.027 A 
HETATM   27  C   UNL     1      -6.359  -0.744 -34.103  1.00  0.00     0.053 A 
HETATM   28  C   UNL     1      -6.067  -2.060 -34.383  1.00  0.00     0.106 A 
HETATM   29  C   UNL     1      -4.907  -2.644 -33.946  1.00  0.00     0.107 A 
HETATM   30  O   UNL     1      -6.851  -2.915 -35.089  1.00  0.00    -0.323 OA
HETATM   31  O   UNL     1      -4.811  -3.947 -34.321  1.00  0.00    -0.323 OA
HETATM   32  C   UNL     1      -6.054  -4.120 -35.035  1.00  0.00     0.352 A 
BRANCH  21  33
HETATM   33  O   UNL     1      -2.625   1.935 -31.149  1.00  0.00    -0.344 OA
HETATM   34  H   UNL     1      -1.877   1.349 -31.386  1.00  0.00     0.219 HD
ENDBRANCH  21  33
ENDBRANCH  19  20
ENDBRANCH   1  19
BRANCH   1  35
HETATM   35  C   UNL     1      -3.623   4.917 -33.363  1.00  0.00     0.238 C 
BRANCH  35  36
HETATM   36  C   UNL     1      -2.237   4.523 -33.877  1.00  0.00     0.054 C 
BRANCH  36  37
HETATM   37  C   UNL     1      -1.532   5.720 -34.500  1.00  0.00     0.165 C 
BRANCH  37  38
HETATM   38  O   UNL     1      -2.483   6.762 -34.654  1.00  0.00    -0.401 OA
HETATM   39  H   UNL     1      -3.041   6.535 -35.423  1.00  0.00     0.209 HD
ENDBRANCH  37  38
ENDBRANCH  36  37
ENDBRANCH  35  36
ENDBRANCH   1  35
TORSDOF 12
ENDMDL
MODEL 10
REMARK VINA RESULT:      -8.5      4.435      7.535
REMARK  12 active torsions:
REMARK  status: ('A' for Active; 'I' for Inactive)
REMARK    1  A    between atoms: C_2  and  C_3 
REMARK    2  A    between atoms: C_3  and  N_4 
REMARK    3  A    between atoms: C_3  and  C_25 
REMARK    4  A    between atoms: N_4  and  C_6 
REMARK    5  A    between atoms: N_4  and  C_21 
REMARK    6  A    between atoms: C_6  and  C_7 
REMARK    7  A    between atoms: C_8  and  O_9 
REMARK    8  A    between atoms: C_21  and  C_22 
REMARK    9  A    between atoms: C_22  and  C_23 
REMARK   10  A    between atoms: C_23  and  O_24 
REMARK   11  A    between atoms: N_26  and  C_27 
REMARK   12  A    between atoms: C_27  and  C_28 
ROOT
HETATM    1  N   UNL     1      -2.741   7.790 -29.726  1.00  0.00    -0.055 N 
HETATM    2  H   UNL     1      -3.378   8.205 -30.411  1.00  0.00     0.281 HD
ENDROOT
BRANCH   1   3
HETATM    3  C   UNL     1      -1.721   6.993 -30.568  1.00  0.00     0.263 C 
BRANCH   3   4
HETATM    4  C   UNL     1      -0.263   7.022 -30.005  1.00  0.00     0.016 C 
HETATM    5  C   UNL     1       0.805   6.869 -31.096  1.00  0.00     0.012 C 
HETATM    6  C   UNL     1       0.059   6.079 -28.842  1.00  0.00     0.012 C 
ENDBRANCH   3   4
BRANCH   3   7
HETATM    7  C   UNL     1      -1.761   7.183 -32.050  1.00  0.00     0.168 A 
HETATM    8  N   UNL     1      -1.680   6.188 -32.997  1.00  0.00    -0.257 N 
HETATM    9  N   UNL     1      -1.686   6.733 -34.224  1.00  0.00    -0.003 NA
HETATM   10  N   UNL     1      -1.774   8.037 -34.032  1.00  0.00     0.018 NA
HETATM   11  N   UNL     1      -1.810   8.327 -32.700  1.00  0.00    -0.145 NA
BRANCH   8  12
HETATM   12  C   UNL     1      -1.598   4.745 -32.860  1.00  0.00     0.186 C 
BRANCH  12  13
HETATM   13  C   UNL     1      -2.935   4.111 -32.548  1.00  0.00    -0.039 A 
HETATM   14  C   UNL     1      -3.983   4.085 -33.485  1.00  0.00     0.009 A 
HETATM   15  C   UNL     1      -5.177   3.421 -33.203  1.00  0.00     0.001 A 
HETATM   16  C   UNL     1      -5.337   2.756 -31.991  1.00  0.00     0.000 A 
HETATM   17  C   UNL     1      -4.301   2.753 -31.059  1.00  0.00     0.001 A 
HETATM   18  C   UNL     1      -3.106   3.420 -31.337  1.00  0.00     0.009 A 
ENDBRANCH  12  13
ENDBRANCH   8  12
ENDBRANCH   3   7
ENDBRANCH   1   3
BRANCH   1  19
HETATM   19  C   UNL     1      -3.730   7.029 -28.830  1.00  0.00     0.278 C 
BRANCH  19  20
HETATM   20  C   UNL     1      -4.960   6.398 -29.401  1.00  0.00     0.021 A 
HETATM   21  C   UNL     1      -5.635   5.409 -28.699  1.00  0.00     0.170 A 
HETATM   22  N   UNL     1      -6.738   4.759 -29.094  1.00  0.00    -0.224 NA
HETATM   23  C   UNL     1      -7.259   5.091 -30.284  1.00  0.00     0.072 A 
HETATM   24  C   UNL     1      -6.641   6.055 -31.128  1.00  0.00    -0.004 A 
HETATM   25  C   UNL     1      -8.428   4.473 -30.712  1.00  0.00     0.072 A 
HETATM   26  C   UNL     1      -5.472   6.683 -30.669  1.00  0.00     0.027 A 
HETATM   27  C   UNL     1      -7.192   6.373 -32.381  1.00  0.00     0.053 A 
HETATM   28  C   UNL     1      -8.354   5.736 -32.754  1.00  0.00     0.106 A 
HETATM   29  C   UNL     1      -8.956   4.812 -31.939  1.00  0.00     0.107 A 
HETATM   30  O   UNL     1      -9.029   5.930 -33.915  1.00  0.00    -0.323 OA
HETATM   31  O   UNL     1     -10.092   4.305 -32.486  1.00  0.00    -0.323 OA
HETATM   32  C   UNL     1     -10.144   5.027 -33.735  1.00  0.00     0.352 A 
BRANCH  21  33
HETATM   33  O   UNL     1      -5.196   4.992 -27.486  1.00  0.00    -0.344 OA
HETATM   34  H   UNL     1      -5.201   4.024 -27.637  1.00  0.00     0.219 HD
ENDBRANCH  21  33
ENDBRANCH  19  20
ENDBRANCH   1  19
BRANCH   1  35
HETATM   35  C   UNL     1      -2.138   9.000 -29.022  1.00  0.00     0.238 C 
BRANCH  35  36
HETATM   36  C   UNL     1      -2.252  10.255 -29.888  1.00  0.00     0.054 C 
BRANCH  36  37
HETATM   37  C   UNL     1      -3.713  10.614 -30.129  1.00  0.00     0.165 C 
BRANCH  37  38
HETATM   38  O   UNL     1      -4.141   9.953 -31.309  1.00  0.00    -0.401 OA
HETATM   39  H   UNL     1      -3.506   9.232 -31.486  1.00  0.00     0.209 HD
ENDBRANCH  37  38
ENDBRANCH  36  37
ENDBRANCH  35  36
ENDBRANCH   1  35
TORSDOF 12
ENDMDL
