MODEL 1
REMARK VINA RESULT:      -9.2      0.000      0.000
REMARK  9 active torsions:
REMARK  status: ('A' for Active; 'I' for Inactive)
REMARK    1  A    between atoms: O_2  and  C_3 
REMARK    2  A    between atoms: C_5  and  O_6 
REMARK    3  A    between atoms: C_8  and  N_9 
REMARK    4  A    between atoms: C_10  and  O_11 
REMARK    5  A    between atoms: C_10  and  C_12 
REMARK       I    between atoms: C_12  and  N_13 
REMARK    6  A    between atoms: N_13  and  C_14 
REMARK    7  A    between atoms: C_14  and  C_15 
REMARK    8  A    between atoms: C_15  and  N_16 
REMARK    9  A    between atoms: N_20  and  C_21 
ROOT
HETATM    1  N   UNL     1      -8.762   1.858 -32.649  1.00  0.00    -0.251 N 
HETATM    2  C   UNL     1      -7.596   1.695 -33.526  1.00  0.00     0.256 C 
HETATM    3  C   UNL     1      -6.575   0.750 -32.915  1.00  0.00     0.034 A 
HETATM    4  C   UNL     1      -6.491   0.692 -31.528  1.00  0.00     0.048 A 
HETATM    5  N   UNL     1      -7.415   1.408 -30.777  1.00  0.00    -0.308 N 
HETATM    6  C   UNL     1      -8.583   1.905 -31.275  1.00  0.00     0.330 C 
HETATM    7  O   UNL     1      -9.398   2.387 -30.490  1.00  0.00    -0.246 OA
HETATM    8  C   UNL     1      -5.677  -0.020 -33.674  1.00  0.00     0.015 A 
HETATM    9  C   UNL     1      -4.734  -0.834 -33.044  1.00  0.00     0.001 A 
HETATM   10  C   UNL     1      -4.658  -0.866 -31.653  1.00  0.00     0.002 A 
HETATM   11  C   UNL     1      -5.531  -0.093 -30.889  1.00  0.00     0.030 A 
HETATM   12  H   UNL     1      -7.380   1.360 -29.763  1.00  0.00     0.170 HD
ENDROOT
BRANCH   2  13
HETATM   13  O   UNL     1      -7.975   1.095 -34.767  1.00  0.00    -0.359 OA
HETATM   14  H   UNL     1      -7.281   1.334 -35.403  1.00  0.00     0.213 HD
ENDBRANCH   2  13
BRANCH   2  15
HETATM   15  C   UNL     1      -6.858   3.084 -33.822  1.00  0.00     0.279 C 
HETATM   16  N   UNL     1      -7.186   4.174 -33.035  1.00  0.00    -0.355 N 
HETATM   17  H   UNL     1      -8.070   4.082 -32.534  1.00  0.00     0.162 HD
HETATM   18  O   UNL     1      -5.960   3.193 -34.667  1.00  0.00    -0.268 OA
BRANCH  16  19
HETATM   19  C   UNL     1      -6.759   5.543 -33.314  1.00  0.00     0.150 C 
BRANCH  19  20
HETATM   20  C   UNL     1      -5.961   6.270 -32.204  1.00  0.00     0.254 C 
BRANCH  20  21
HETATM   21  N   UNL     1      -4.466   6.138 -32.344  1.00  0.00    -0.067 N 
HETATM   22  H   UNL     1      -4.287   5.972 -33.357  1.00  0.00     0.280 HD
HETATM   23  C   UNL     1      -3.666   7.396 -32.018  1.00  0.00     0.254 C 
HETATM   24  C   UNL     1      -2.179   7.189 -32.383  1.00  0.00     0.150 C 
HETATM   25  N   UNL     1      -1.641   5.999 -31.697  1.00  0.00    -0.378 N 
HETATM   26  C   UNL     1      -2.397   4.756 -31.919  1.00  0.00     0.150 C 
HETATM   27  C   UNL     1      -3.896   4.937 -31.595  1.00  0.00     0.254 C 
BRANCH  25  28
HETATM   28  C   UNL     1      -0.844   6.191 -30.574  1.00  0.00     0.030 A 
HETATM   29  C   UNL     1      -0.023   5.192 -30.035  1.00  0.00     0.029 A 
HETATM   30  C   UNL     1       0.776   5.425 -28.906  1.00  0.00     0.002 A 
HETATM   31  C   UNL     1       0.781   6.674 -28.296  1.00  0.00     0.000 A 
HETATM   32  C   UNL     1      -0.008   7.689 -28.817  1.00  0.00     0.002 A 
HETATM   33  C   UNL     1      -0.805   7.447 -29.942  1.00  0.00     0.029 A 
ENDBRANCH  25  28
ENDBRANCH  20  21
ENDBRANCH  19  20
ENDBRANCH  16  19
ENDBRANCH   2  15
BRANCH   1  34
HETATM   34  C   UNL     1     -10.098   1.869 -33.178  1.00  0.00     0.076 A 
HETATM   35  C   UNL     1     -10.697   3.002 -33.761  1.00  0.00     0.098 A 
HETATM   36  C   UNL     1     -11.931   2.896 -34.426  1.00  0.00     0.075 A 
HETATM   37  C   UNL     1     -12.606   1.677 -34.467  1.00  0.00     0.070 A 
HETATM   38  C   UNL     1     -12.065   0.576 -33.809  1.00  0.00     0.039 A 
HETATM   39  C   UNL     1     -10.826   0.669 -33.172  1.00  0.00     0.035 A 
BRANCH  35  40
HETATM   40  O   UNL     1     -10.022   4.200 -33.684  1.00  0.00    -0.354 OA
HETATM   41  C   UNL     1     -10.106   4.969 -34.888  1.00  0.00     0.210 C 
ENDBRANCH  35  40
BRANCH  37  42
HETATM   42  O   UNL     1     -13.795   1.441 -35.098  1.00  0.00    -0.356 OA
HETATM   43  C   UNL     1     -14.809   0.794 -34.338  1.00  0.00     0.210 C 
ENDBRANCH  37  42
ENDBRANCH   1  34
TORSDOF 9
ENDMDL
MODEL 2
REMARK VINA RESULT:      -9.2      2.449      9.058
REMARK  9 active torsions:
REMARK  status: ('A' for Active; 'I' for Inactive)
REMARK    1  A    between atoms: O_2  and  C_3 
REMARK    2  A    between atoms: C_5  and  O_6 
REMARK    3  A    between atoms: C_8  and  N_9 
REMARK    4  A    between atoms: C_10  and  O_11 
REMARK    5  A    between atoms: C_10  and  C_12 
REMARK       I    between atoms: C_12  and  N_13 
REMARK    6  A    between atoms: N_13  and  C_14 
REMARK    7  A    between atoms: C_14  and  C_15 
REMARK    8  A    between atoms: C_15  and  N_16 
REMARK    9  A    between atoms: N_20  and  C_21 
ROOT
HETATM    1  N   UNL     1      -4.787   3.542 -32.811  1.00  0.00    -0.251 N 
HETATM    2  C   UNL     1      -4.883   2.314 -32.012  1.00  0.00     0.256 C 
HETATM    3  C   UNL     1      -5.327   1.135 -32.861  1.00  0.00     0.034 A 
HETATM    4  C   UNL     1      -6.152   1.393 -33.951  1.00  0.00     0.048 A 
HETATM    5  N   UNL     1      -6.433   2.716 -34.272  1.00  0.00    -0.308 N 
HETATM    6  C   UNL     1      -5.720   3.782 -33.809  1.00  0.00     0.330 C 
HETATM    7  O   UNL     1      -5.957   4.894 -34.278  1.00  0.00    -0.246 OA
HETATM    8  C   UNL     1      -4.995  -0.199 -32.571  1.00  0.00     0.015 A 
HETATM    9  C   UNL     1      -5.474  -1.237 -33.371  1.00  0.00     0.001 A 
HETATM   10  C   UNL     1      -6.313  -0.958 -34.449  1.00  0.00     0.002 A 
HETATM   11  C   UNL     1      -6.662   0.360 -34.737  1.00  0.00     0.030 A 
HETATM   12  H   UNL     1      -7.018   2.920 -35.077  1.00  0.00     0.170 HD
ENDROOT
BRANCH   2  13
HETATM   13  O   UNL     1      -3.603   1.949 -31.490  1.00  0.00    -0.359 OA
HETATM   14  H   UNL     1      -3.191   1.385 -32.166  1.00  0.00     0.213 HD
ENDBRANCH   2  13
BRANCH   2  15
HETATM   15  C   UNL     1      -5.919   2.458 -30.800  1.00  0.00     0.279 C 
HETATM   16  N   UNL     1      -6.800   3.524 -30.821  1.00  0.00    -0.355 N 
HETATM   17  H   UNL     1      -6.528   4.284 -31.444  1.00  0.00     0.162 HD
HETATM   18  O   UNL     1      -6.007   1.615 -29.897  1.00  0.00    -0.268 OA
BRANCH  16  19
HETATM   19  C   UNL     1      -7.653   3.903 -29.697  1.00  0.00     0.150 C 
BRANCH  19  20
HETATM   20  C   UNL     1      -9.031   4.521 -30.038  1.00  0.00     0.254 C 
BRANCH  20  21
HETATM   21  N   UNL     1      -9.568   4.102 -31.383  1.00  0.00    -0.067 N 
HETATM   22  H   UNL     1      -8.918   4.505 -32.090  1.00  0.00     0.280 HD
HETATM   23  C   UNL     1      -9.542   2.601 -31.658  1.00  0.00     0.254 C 
HETATM   24  C   UNL     1      -9.933   2.322 -33.126  1.00  0.00     0.150 C 
HETATM   25  N   UNL     1     -11.248   2.916 -33.431  1.00  0.00    -0.378 N 
HETATM   26  C   UNL     1     -11.367   4.354 -33.136  1.00  0.00     0.150 C 
HETATM   27  C   UNL     1     -10.951   4.672 -31.683  1.00  0.00     0.254 C 
BRANCH  25  28
HETATM   28  C   UNL     1     -12.355   2.077 -33.477  1.00  0.00     0.030 A 
HETATM   29  C   UNL     1     -13.673   2.534 -33.344  1.00  0.00     0.029 A 
HETATM   30  C   UNL     1     -14.767   1.658 -33.407  1.00  0.00     0.002 A 
HETATM   31  C   UNL     1     -14.565   0.299 -33.619  1.00  0.00     0.000 A 
HETATM   32  C   UNL     1     -13.273  -0.182 -33.773  1.00  0.00     0.002 A 
HETATM   33  C   UNL     1     -12.187   0.699 -33.706  1.00  0.00     0.029 A 
ENDBRANCH  25  28
ENDBRANCH  20  21
ENDBRANCH  19  20
ENDBRANCH  16  19
ENDBRANCH   2  15
BRANCH   1  34
HETATM   34  C   UNL     1      -3.688   4.453 -32.652  1.00  0.00     0.076 A 
HETATM   35  C   UNL     1      -3.648   5.463 -31.672  1.00  0.00     0.098 A 
HETATM   36  C   UNL     1      -2.470   6.195 -31.447  1.00  0.00     0.075 A 
HETATM   37  C   UNL     1      -1.340   5.970 -32.234  1.00  0.00     0.070 A 
HETATM   38  C   UNL     1      -1.404   5.041 -33.268  1.00  0.00     0.039 A 
HETATM   39  C   UNL     1      -2.563   4.291 -33.476  1.00  0.00     0.035 A 
BRANCH  35  40
HETATM   40  O   UNL     1      -4.785   5.684 -30.926  1.00  0.00    -0.354 OA
HETATM   41  C   UNL     1      -5.498   6.859 -31.325  1.00  0.00     0.210 C 
ENDBRANCH  35  40
BRANCH  37  42
HETATM   42  O   UNL     1      -0.134   6.598 -32.100  1.00  0.00    -0.356 OA
HETATM   43  C   UNL     1       0.358   6.772 -30.777  1.00  0.00     0.210 C 
ENDBRANCH  37  42
ENDBRANCH   1  34
TORSDOF 9
ENDMDL
MODEL 3
REMARK VINA RESULT:      -9.1      3.681      8.475
REMARK  9 active torsions:
REMARK  status: ('A' for Active; 'I' for Inactive)
REMARK    1  A    between atoms: O_2  and  C_3 
REMARK    2  A    between atoms: C_5  and  O_6 
REMARK    3  A    between atoms: C_8  and  N_9 
REMARK    4  A    between atoms: C_10  and  O_11 
REMARK    5  A    between atoms: C_10  and  C_12 
REMARK       I    between atoms: C_12  and  N_13 
REMARK    6  A    between atoms: N_13  and  C_14 
REMARK    7  A    between atoms: C_14  and  C_15 
REMARK    8  A    between atoms: C_15  and  N_16 
REMARK    9  A    between atoms: N_20  and  C_21 
ROOT
HETATM    1  N   UNL     1      -5.508   5.838 -31.396  1.00  0.00    -0.251 N 
HETATM    2  C   UNL     1      -4.239   5.126 -31.199  1.00  0.00     0.256 C 
HETATM    3  C   UNL     1      -3.307   5.322 -32.382  1.00  0.00     0.034 A 
HETATM    4  C   UNL     1      -3.878   5.512 -33.636  1.00  0.00     0.048 A 
HETATM    5  N   UNL     1      -5.260   5.628 -33.724  1.00  0.00    -0.308 N 
HETATM    6  C   UNL     1      -6.074   5.887 -32.661  1.00  0.00     0.330 C 
HETATM    7  O   UNL     1      -7.262   6.123 -32.876  1.00  0.00    -0.246 OA
HETATM    8  C   UNL     1      -1.906   5.263 -32.285  1.00  0.00     0.015 A 
HETATM    9  C   UNL     1      -1.111   5.409 -33.423  1.00  0.00     0.001 A 
HETATM   10  C   UNL     1      -1.704   5.584 -34.672  1.00  0.00     0.002 A 
HETATM   11  C   UNL     1      -3.093   5.627 -34.783  1.00  0.00     0.030 A 
HETATM   12  H   UNL     1      -5.691   5.788 -34.630  1.00  0.00     0.170 HD
ENDROOT
BRANCH   2  13
HETATM   13  O   UNL     1      -3.536   5.649 -30.069  1.00  0.00    -0.359 OA
HETATM   14  H   UNL     1      -2.902   4.961 -29.807  1.00  0.00     0.213 HD
ENDBRANCH   2  13
BRANCH   2  15
HETATM   15  C   UNL     1      -4.449   3.552 -31.000  1.00  0.00     0.279 C 
HETATM   16  N   UNL     1      -5.322   3.133 -30.012  1.00  0.00    -0.355 N 
HETATM   17  H   UNL     1      -5.532   3.839 -29.306  1.00  0.00     0.162 HD
HETATM   18  O   UNL     1      -3.924   2.712 -31.743  1.00  0.00    -0.268 OA
BRANCH  16  19
HETATM   19  C   UNL     1      -5.459   1.745 -29.575  1.00  0.00     0.150 C 
BRANCH  19  20
HETATM   20  C   UNL     1      -6.454   0.856 -30.361  1.00  0.00     0.254 C 
BRANCH  20  21
HETATM   21  N   UNL     1      -5.945   0.424 -31.713  1.00  0.00    -0.067 N 
HETATM   22  H   UNL     1      -5.588   1.287 -32.174  1.00  0.00     0.280 HD
HETATM   23  C   UNL     1      -4.743  -0.517 -31.688  1.00  0.00     0.254 C 
HETATM   24  C   UNL     1      -4.204  -0.729 -33.120  1.00  0.00     0.150 C 
HETATM   25  N   UNL     1      -5.275  -1.223 -34.006  1.00  0.00    -0.378 N 
HETATM   26  C   UNL     1      -6.491  -0.396 -34.037  1.00  0.00     0.150 C 
HETATM   27  C   UNL     1      -7.039  -0.136 -32.617  1.00  0.00     0.254 C 
BRANCH  25  28
HETATM   28  C   UNL     1      -5.292  -2.576 -34.325  1.00  0.00     0.030 A 
HETATM   29  C   UNL     1      -4.243  -3.453 -34.015  1.00  0.00     0.029 A 
HETATM   30  C   UNL     1      -4.301  -4.815 -34.343  1.00  0.00     0.002 A 
HETATM   31  C   UNL     1      -5.420  -5.336 -34.982  1.00  0.00     0.000 A 
HETATM   32  C   UNL     1      -6.482  -4.497 -35.286  1.00  0.00     0.002 A 
HETATM   33  C   UNL     1      -6.416  -3.138 -34.958  1.00  0.00     0.029 A 
ENDBRANCH  25  28
ENDBRANCH  20  21
ENDBRANCH  19  20
ENDBRANCH  16  19
ENDBRANCH   2  15
BRANCH   1  34
HETATM   34  C   UNL     1      -6.127   6.573 -30.328  1.00  0.00     0.076 A 
HETATM   35  C   UNL     1      -7.094   6.026 -29.463  1.00  0.00     0.098 A 
HETATM   36  C   UNL     1      -7.519   6.734 -28.327  1.00  0.00     0.075 A 
HETATM   37  C   UNL     1      -7.031   8.015 -28.072  1.00  0.00     0.070 A 
HETATM   38  C   UNL     1      -6.148   8.600 -28.975  1.00  0.00     0.039 A 
HETATM   39  C   UNL     1      -5.700   7.888 -30.090  1.00  0.00     0.035 A 
BRANCH  35  40
HETATM   40  O   UNL     1      -7.580   4.770 -29.751  1.00  0.00    -0.354 OA
HETATM   41  C   UNL     1      -8.974   4.768 -30.075  1.00  0.00     0.210 C 
ENDBRANCH  35  40
BRANCH  37  42
HETATM   42  O   UNL     1      -7.348   8.794 -26.995  1.00  0.00    -0.356 OA
HETATM   43  C   UNL     1      -6.788  10.101 -26.958  1.00  0.00     0.210 C 
ENDBRANCH  37  42
ENDBRANCH   1  34
TORSDOF 9
ENDMDL
MODEL 4
REMARK VINA RESULT:      -8.9      2.812      5.294
REMARK  9 active torsions:
REMARK  status: ('A' for Active; 'I' for Inactive)
REMARK    1  A    between atoms: O_2  and  C_3 
REMARK    2  A    between atoms: C_5  and  O_6 
REMARK    3  A    between atoms: C_8  and  N_9 
REMARK    4  A    between atoms: C_10  and  O_11 
REMARK    5  A    between atoms: C_10  and  C_12 
REMARK       I    between atoms: C_12  and  N_13 
REMARK    6  A    between atoms: N_13  and  C_14 
REMARK    7  A    between atoms: C_14  and  C_15 
REMARK    8  A    between atoms: C_15  and  N_16 
REMARK    9  A    between atoms: N_20  and  C_21 
ROOT
HETATM    1  N   UNL     1      -6.458   1.224 -33.199  1.00  0.00    -0.251 N 
HETATM    2  C   UNL     1      -6.701   1.506 -31.778  1.00  0.00     0.256 C 
HETATM    3  C   UNL     1      -7.920   2.394 -31.593  1.00  0.00     0.034 A 
HETATM    4  C   UNL     1      -8.226   3.298 -32.605  1.00  0.00     0.048 A 
HETATM    5  N   UNL     1      -7.476   3.263 -33.775  1.00  0.00    -0.308 N 
HETATM    6  C   UNL     1      -6.680   2.218 -34.140  1.00  0.00     0.330 C 
HETATM    7  O   UNL     1      -6.183   2.225 -35.266  1.00  0.00    -0.246 OA
HETATM    8  C   UNL     1      -8.715   2.390 -30.434  1.00  0.00     0.015 A 
HETATM    9  C   UNL     1      -9.795   3.266 -30.313  1.00  0.00     0.001 A 
HETATM   10  C   UNL     1     -10.075   4.174 -31.333  1.00  0.00     0.002 A 
HETATM   11  C   UNL     1      -9.283   4.199 -32.480  1.00  0.00     0.030 A 
HETATM   12  H   UNL     1      -7.700   3.903 -34.531  1.00  0.00     0.170 HD
ENDROOT
BRANCH   2  13
HETATM   13  O   UNL     1      -6.996   0.301 -31.067  1.00  0.00    -0.359 OA
HETATM   14  H   UNL     1      -6.146  -0.155 -30.952  1.00  0.00     0.213 HD
ENDBRANCH   2  13
BRANCH   2  15
HETATM   15  C   UNL     1      -5.458   2.233 -31.081  1.00  0.00     0.279 C 
HETATM   16  N   UNL     1      -4.543   2.877 -31.894  1.00  0.00    -0.355 N 
HETATM   17  H   UNL     1      -4.572   2.591 -32.873  1.00  0.00     0.162 HD
HETATM   18  O   UNL     1      -5.333   2.304 -29.851  1.00  0.00    -0.268 OA
BRANCH  16  19
HETATM   19  C   UNL     1      -3.260   3.401 -31.429  1.00  0.00     0.150 C 
BRANCH  19  20
HETATM   20  C   UNL     1      -2.389   4.150 -32.466  1.00  0.00     0.254 C 
BRANCH  20  21
HETATM   21  N   UNL     1      -1.783   5.426 -31.941  1.00  0.00    -0.067 N 
HETATM   22  H   UNL     1      -1.900   6.133 -32.697  1.00  0.00     0.280 HD
HETATM   23  C   UNL     1      -2.492   6.039 -30.736  1.00  0.00     0.254 C 
HETATM   24  C   UNL     1      -1.897   7.429 -30.419  1.00  0.00     0.150 C 
HETATM   25  N   UNL     1      -0.440   7.329 -30.209  1.00  0.00    -0.378 N 
HETATM   26  C   UNL     1       0.306   6.694 -31.307  1.00  0.00     0.150 C 
HETATM   27  C   UNL     1      -0.284   5.315 -31.673  1.00  0.00     0.254 C 
BRANCH  25  28
HETATM   28  C   UNL     1       0.040   7.354 -28.905  1.00  0.00     0.030 A 
HETATM   29  C   UNL     1       1.089   8.185 -28.487  1.00  0.00     0.029 A 
HETATM   30  C   UNL     1       1.539   8.191 -27.159  1.00  0.00     0.002 A 
HETATM   31  C   UNL     1       0.940   7.370 -26.211  1.00  0.00     0.000 A 
HETATM   32  C   UNL     1      -0.113   6.549 -26.590  1.00  0.00     0.002 A 
HETATM   33  C   UNL     1      -0.555   6.547 -27.918  1.00  0.00     0.029 A 
ENDBRANCH  25  28
ENDBRANCH  20  21
ENDBRANCH  19  20
ENDBRANCH  16  19
ENDBRANCH   2  15
BRANCH   1  34
HETATM   34  C   UNL     1      -6.092  -0.090 -33.648  1.00  0.00     0.076 A 
HETATM   35  C   UNL     1      -4.806  -0.640 -33.485  1.00  0.00     0.098 A 
HETATM   36  C   UNL     1      -4.566  -1.994 -33.774  1.00  0.00     0.075 A 
HETATM   37  C   UNL     1      -5.586  -2.797 -34.283  1.00  0.00     0.070 A 
HETATM   38  C   UNL     1      -6.833  -2.235 -34.538  1.00  0.00     0.039 A 
HETATM   39  C   UNL     1      -7.085  -0.898 -34.224  1.00  0.00     0.035 A 
BRANCH  35  40
HETATM   40  O   UNL     1      -3.809   0.180 -33.005  1.00  0.00    -0.354 OA
HETATM   41  C   UNL     1      -3.010  -0.440 -31.993  1.00  0.00     0.210 C 
ENDBRANCH  35  40
BRANCH  37  42
HETATM   42  O   UNL     1      -5.484  -4.127 -34.582  1.00  0.00    -0.356 OA
HETATM   43  C   UNL     1      -4.355  -4.819 -34.063  1.00  0.00     0.210 C 
ENDBRANCH  37  42
ENDBRANCH   1  34
TORSDOF 9
ENDMDL
MODEL 5
REMARK VINA RESULT:      -8.8      3.010      8.978
REMARK  9 active torsions:
REMARK  status: ('A' for Active; 'I' for Inactive)
REMARK    1  A    between atoms: O_2  and  C_3 
REMARK    2  A    between atoms: C_5  and  O_6 
REMARK    3  A    between atoms: C_8  and  N_9 
REMARK    4  A    between atoms: C_10  and  O_11 
REMARK    5  A    between atoms: C_10  and  C_12 
REMARK       I    between atoms: C_12  and  N_13 
REMARK    6  A    between atoms: N_13  and  C_14 
REMARK    7  A    between atoms: C_14  and  C_15 
REMARK    8  A    between atoms: C_15  and  N_16 
REMARK    9  A    between atoms: N_20  and  C_21 
ROOT
HETATM    1  N   UNL     1      -2.682   5.389 -31.474  1.00  0.00    -0.251 N 
HETATM    2  C   UNL     1      -4.027   4.971 -31.059  1.00  0.00     0.256 C 
HETATM    3  C   UNL     1      -4.206   3.469 -31.201  1.00  0.00     0.034 A 
HETATM    4  C   UNL     1      -3.488   2.820 -32.200  1.00  0.00     0.048 A 
HETATM    5  N   UNL     1      -2.564   3.552 -32.936  1.00  0.00    -0.308 N 
HETATM    6  C   UNL     1      -2.076   4.767 -32.555  1.00  0.00     0.330 C 
HETATM    7  O   UNL     1      -1.149   5.256 -33.201  1.00  0.00    -0.246 OA
HETATM    8  C   UNL     1      -5.097   2.716 -30.418  1.00  0.00     0.015 A 
HETATM    9  C   UNL     1      -5.243   1.344 -30.633  1.00  0.00     0.001 A 
HETATM   10  C   UNL     1      -4.525   0.716 -31.650  1.00  0.00     0.002 A 
HETATM   11  C   UNL     1      -3.651   1.456 -32.444  1.00  0.00     0.030 A 
HETATM   12  H   UNL     1      -2.018   3.088 -33.655  1.00  0.00     0.170 HD
ENDROOT
BRANCH   2  13
HETATM   13  O   UNL     1      -4.239   5.251 -29.673  1.00  0.00    -0.359 OA
HETATM   14  H   UNL     1      -3.680   4.624 -29.185  1.00  0.00     0.213 HD
ENDBRANCH   2  13
BRANCH   2  15
HETATM   15  C   UNL     1      -5.176   5.681 -31.917  1.00  0.00     0.279 C 
HETATM   16  N   UNL     1      -6.273   6.185 -31.242  1.00  0.00    -0.355 N 
HETATM   17  H   UNL     1      -6.400   5.809 -30.303  1.00  0.00     0.162 HD
HETATM   18  O   UNL     1      -5.079   5.861 -33.139  1.00  0.00    -0.268 OA
BRANCH  16  19
HETATM   19  C   UNL     1      -7.486   6.669 -31.898  1.00  0.00     0.150 C 
BRANCH  19  20
HETATM   20  C   UNL     1      -8.837   6.146 -31.349  1.00  0.00     0.254 C 
BRANCH  20  21
HETATM   21  N   UNL     1      -9.337   4.908 -32.048  1.00  0.00    -0.067 N 
HETATM   22  H   UNL     1     -10.354   5.062 -32.212  1.00  0.00     0.280 HD
HETATM   23  C   UNL     1      -8.760   4.665 -33.440  1.00  0.00     0.254 C 
HETATM   24  C   UNL     1      -9.489   3.484 -34.119  1.00  0.00     0.150 C 
HETATM   25  N   UNL     1      -9.416   2.278 -33.273  1.00  0.00    -0.378 N 
HETATM   26  C   UNL     1      -9.902   2.452 -31.894  1.00  0.00     0.150 C 
HETATM   27  C   UNL     1      -9.217   3.647 -31.197  1.00  0.00     0.254 C 
BRANCH  25  28
HETATM   28  C   UNL     1      -8.501   1.289 -33.616  1.00  0.00     0.030 A 
HETATM   29  C   UNL     1      -8.312   0.123 -32.861  1.00  0.00     0.029 A 
HETATM   30  C   UNL     1      -7.387  -0.860 -33.245  1.00  0.00     0.002 A 
HETATM   31  C   UNL     1      -6.637  -0.703 -34.404  1.00  0.00     0.000 A 
HETATM   32  C   UNL     1      -6.815   0.432 -35.182  1.00  0.00     0.002 A 
HETATM   33  C   UNL     1      -7.738   1.409 -34.791  1.00  0.00     0.029 A 
ENDBRANCH  25  28
ENDBRANCH  20  21
ENDBRANCH  19  20
ENDBRANCH  16  19
ENDBRANCH   2  15
BRANCH   1  34
HETATM   34  C   UNL     1      -1.935   6.359 -30.721  1.00  0.00     0.076 A 
HETATM   35  C   UNL     1      -2.218   7.738 -30.729  1.00  0.00     0.098 A 
HETATM   36  C   UNL     1      -1.575   8.605 -29.829  1.00  0.00     0.075 A 
HETATM   37  C   UNL     1      -0.604   8.118 -28.955  1.00  0.00     0.070 A 
HETATM   38  C   UNL     1      -0.251   6.773 -29.009  1.00  0.00     0.039 A 
HETATM   39  C   UNL     1      -0.908   5.902 -29.880  1.00  0.00     0.035 A 
BRANCH  35  40
HETATM   40  O   UNL     1      -3.162   8.198 -31.620  1.00  0.00    -0.354 OA
HETATM   41  C   UNL     1      -4.085   9.121 -31.034  1.00  0.00     0.210 C 
ENDBRANCH  35  40
BRANCH  37  42
HETATM   42  O   UNL     1       0.073   8.852 -28.022  1.00  0.00    -0.356 OA
HETATM   43  C   UNL     1       1.438   8.513 -27.804  1.00  0.00     0.210 C 
ENDBRANCH  37  42
ENDBRANCH   1  34
TORSDOF 9
ENDMDL
MODEL 6
REMARK VINA RESULT:      -8.7      3.808      7.067
REMARK  9 active torsions:
REMARK  status: ('A' for Active; 'I' for Inactive)
REMARK    1  A    between atoms: O_2  and  C_3 
REMARK    2  A    between atoms: C_5  and  O_6 
REMARK    3  A    between atoms: C_8  and  N_9 
REMARK    4  A    between atoms: C_10  and  O_11 
REMARK    5  A    between atoms: C_10  and  C_12 
REMARK       I    between atoms: C_12  and  N_13 
REMARK    6  A    between atoms: N_13  and  C_14 
REMARK    7  A    between atoms: C_14  and  C_15 
REMARK    8  A    between atoms: C_15  and  N_16 
REMARK    9  A    between atoms: N_20  and  C_21 
ROOT
HETATM    1  N   UNL     1      -9.578   4.403 -32.825  1.00  0.00    -0.251 N 
HETATM    2  C   UNL     1      -9.022   4.422 -31.466  1.00  0.00     0.256 C 
HETATM    3  C   UNL     1      -8.824   5.845 -30.971  1.00  0.00     0.034 A 
HETATM    4  C   UNL     1      -8.547   6.829 -31.914  1.00  0.00     0.048 A 
HETATM    5  N   UNL     1      -8.580   6.486 -33.261  1.00  0.00    -0.308 N 
HETATM    6  C   UNL     1      -9.166   5.354 -33.746  1.00  0.00     0.330 C 
HETATM    7  O   UNL     1      -9.273   5.225 -34.965  1.00  0.00    -0.246 OA
HETATM    8  C   UNL     1      -8.848   6.205 -29.613  1.00  0.00     0.015 A 
HETATM    9  C   UNL     1      -8.614   7.526 -29.226  1.00  0.00     0.001 A 
HETATM   10  C   UNL     1      -8.324   8.493 -30.187  1.00  0.00     0.002 A 
HETATM   11  C   UNL     1      -8.280   8.145 -31.536  1.00  0.00     0.030 A 
HETATM   12  H   UNL     1      -8.400   7.198 -33.962  1.00  0.00     0.170 HD
ENDROOT
BRANCH   2  13
HETATM   13  O   UNL     1      -9.928   3.818 -30.539  1.00  0.00    -0.359 OA
HETATM   14  H   UNL     1     -10.585   4.501 -30.326  1.00  0.00     0.213 HD
ENDBRANCH   2  13
BRANCH   2  15
HETATM   15  C   UNL     1      -7.609   3.675 -31.377  1.00  0.00     0.279 C 
HETATM   16  N   UNL     1      -7.310   2.987 -30.215  1.00  0.00    -0.355 N 
HETATM   17  H   UNL     1      -7.876   3.253 -29.409  1.00  0.00     0.162 HD
HETATM   18  O   UNL     1      -6.821   3.628 -32.331  1.00  0.00    -0.268 OA
BRANCH  16  19
HETATM   19  C   UNL     1      -5.992   2.438 -29.905  1.00  0.00     0.150 C 
BRANCH  19  20
HETATM   20  C   UNL     1      -5.818   0.906 -30.049  1.00  0.00     0.254 C 
BRANCH  20  21
HETATM   21  N   UNL     1      -5.407   0.470 -31.432  1.00  0.00    -0.067 N 
HETATM   22  H   UNL     1      -5.020   1.317 -31.898  1.00  0.00     0.280 HD
HETATM   23  C   UNL     1      -4.269  -0.546 -31.486  1.00  0.00     0.254 C 
HETATM   24  C   UNL     1      -3.818  -0.763 -32.947  1.00  0.00     0.150 C 
HETATM   25  N   UNL     1      -4.962  -1.172 -33.784  1.00  0.00    -0.378 N 
HETATM   26  C   UNL     1      -6.123  -0.269 -33.737  1.00  0.00     0.150 C 
HETATM   27  C   UNL     1      -6.580  -0.004 -32.287  1.00  0.00     0.254 C 
BRANCH  25  28
HETATM   28  C   UNL     1      -5.082  -2.514 -34.124  1.00  0.00     0.030 A 
HETATM   29  C   UNL     1      -6.165  -3.030 -34.849  1.00  0.00     0.029 A 
HETATM   30  C   UNL     1      -6.246  -4.390 -35.184  1.00  0.00     0.002 A 
HETATM   31  C   UNL     1      -5.234  -5.266 -34.810  1.00  0.00     0.000 A 
HETATM   32  C   UNL     1      -4.139  -4.782 -34.107  1.00  0.00     0.002 A 
HETATM   33  C   UNL     1      -4.067  -3.425 -33.775  1.00  0.00     0.029 A 
ENDBRANCH  25  28
ENDBRANCH  20  21
ENDBRANCH  19  20
ENDBRANCH  16  19
ENDBRANCH   2  15
BRANCH   1  34
HETATM   34  C   UNL     1     -10.619   3.483 -33.193  1.00  0.00     0.076 A 
HETATM   35  C   UNL     1     -11.982   3.829 -33.246  1.00  0.00     0.098 A 
HETATM   36  C   UNL     1     -12.925   2.941 -33.792  1.00  0.00     0.075 A 
HETATM   37  C   UNL     1     -12.529   1.680 -34.237  1.00  0.00     0.070 A 
HETATM   38  C   UNL     1     -11.198   1.296 -34.098  1.00  0.00     0.039 A 
HETATM   39  C   UNL     1     -10.254   2.185 -33.583  1.00  0.00     0.035 A 
BRANCH  35  40
HETATM   40  O   UNL     1     -12.352   5.070 -32.776  1.00  0.00    -0.354 OA
HETATM   41  C   UNL     1     -12.950   5.895 -33.781  1.00  0.00     0.210 C 
ENDBRANCH  35  40
BRANCH  37  42
HETATM   42  O   UNL     1     -13.341   0.740 -34.806  1.00  0.00    -0.356 OA
HETATM   43  C   UNL     1     -14.682   0.679 -34.336  1.00  0.00     0.210 C 
ENDBRANCH  37  42
ENDBRANCH   1  34
TORSDOF 9
ENDMDL
MODEL 7
REMARK VINA RESULT:      -8.7      2.762      8.204
REMARK  9 active torsions:
REMARK  status: ('A' for Active; 'I' for Inactive)
REMARK    1  A    between atoms: O_2  and  C_3 
REMARK    2  A    between atoms: C_5  and  O_6 
REMARK    3  A    between atoms: C_8  and  N_9 
REMARK    4  A    between atoms: C_10  and  O_11 
REMARK    5  A    between atoms: C_10  and  C_12 
REMARK       I    between atoms: C_12  and  N_13 
REMARK    6  A    between atoms: N_13  and  C_14 
REMARK    7  A    between atoms: C_14  and  C_15 
REMARK    8  A    between atoms: C_15  and  N_16 
REMARK    9  A    between atoms: N_20  and  C_21 
ROOT
HETATM    1  N   UNL     1      -4.911   1.635 -32.268  1.00  0.00    -0.251 N 
HETATM    2  C   UNL     1      -5.320   2.943 -32.795  1.00  0.00     0.256 C 
HETATM    3  C   UNL     1      -4.119   3.843 -33.030  1.00  0.00     0.034 A 
HETATM    4  C   UNL     1      -3.009   3.674 -32.209  1.00  0.00     0.048 A 
HETATM    5  N   UNL     1      -3.010   2.623 -31.300  1.00  0.00    -0.308 N 
HETATM    6  C   UNL     1      -3.863   1.561 -31.362  1.00  0.00     0.330 C 
HETATM    7  O   UNL     1      -3.676   0.613 -30.600  1.00  0.00    -0.246 OA
HETATM    8  C   UNL     1      -4.094   4.869 -33.990  1.00  0.00     0.015 A 
HETATM    9  C   UNL     1      -2.972   5.689 -34.121  1.00  0.00     0.001 A 
HETATM   10  C   UNL     1      -1.876   5.512 -33.278  1.00  0.00     0.002 A 
HETATM   11  C   UNL     1      -1.896   4.508 -32.311  1.00  0.00     0.030 A 
HETATM   12  H   UNL     1      -2.199   2.475 -30.708  1.00  0.00     0.170 HD
ENDROOT
BRANCH   2  13
HETATM   13  O   UNL     1      -5.945   2.799 -34.073  1.00  0.00    -0.359 OA
HETATM   14  H   UNL     1      -5.637   1.949 -34.427  1.00  0.00     0.213 HD
ENDBRANCH   2  13
BRANCH   2  15
HETATM   15  C   UNL     1      -6.319   3.711 -31.809  1.00  0.00     0.279 C 
HETATM   16  N   UNL     1      -7.343   4.453 -32.370  1.00  0.00    -0.355 N 
HETATM   17  H   UNL     1      -7.205   4.688 -33.353  1.00  0.00     0.162 HD
HETATM   18  O   UNL     1      -6.253   3.601 -30.577  1.00  0.00    -0.268 OA
BRANCH  16  19
HETATM   19  C   UNL     1      -8.198   5.368 -31.617  1.00  0.00     0.150 C 
BRANCH  19  20
HETATM   20  C   UNL     1      -9.164   6.260 -32.434  1.00  0.00     0.254 C 
BRANCH  20  21
HETATM   21  N   UNL     1     -10.585   5.757 -32.455  1.00  0.00    -0.067 N 
HETATM   22  H   UNL     1     -11.183   6.576 -32.217  1.00  0.00     0.280 HD
HETATM   23  C   UNL     1     -11.095   5.298 -33.818  1.00  0.00     0.254 C 
HETATM   24  C   UNL     1     -12.607   4.991 -33.744  1.00  0.00     0.150 C 
HETATM   25  N   UNL     1     -12.880   3.997 -32.689  1.00  0.00    -0.378 N 
HETATM   26  C   UNL     1     -12.365   4.345 -31.355  1.00  0.00     0.150 C 
HETATM   27  C   UNL     1     -10.861   4.690 -31.399  1.00  0.00     0.254 C 
BRANCH  25  28
HETATM   28  C   UNL     1     -13.117   2.681 -33.071  1.00  0.00     0.030 A 
HETATM   29  C   UNL     1     -12.099   1.791 -33.437  1.00  0.00     0.029 A 
HETATM   30  C   UNL     1     -12.376   0.466 -33.806  1.00  0.00     0.002 A 
HETATM   31  C   UNL     1     -13.683  -0.004 -33.804  1.00  0.00     0.000 A 
HETATM   32  C   UNL     1     -14.712   0.848 -33.428  1.00  0.00     0.002 A 
HETATM   33  C   UNL     1     -14.428   2.169 -33.064  1.00  0.00     0.029 A 
ENDBRANCH  25  28
ENDBRANCH  20  21
ENDBRANCH  19  20
ENDBRANCH  16  19
ENDBRANCH   2  15
BRANCH   1  34
HETATM   34  C   UNL     1      -5.504   0.417 -32.746  1.00  0.00     0.076 A 
HETATM   35  C   UNL     1      -6.818   0.017 -32.438  1.00  0.00     0.098 A 
HETATM   36  C   UNL     1      -7.401  -1.085 -33.087  1.00  0.00     0.075 A 
HETATM   37  C   UNL     1      -6.663  -1.833 -34.004  1.00  0.00     0.070 A 
HETATM   38  C   UNL     1      -5.333  -1.500 -34.241  1.00  0.00     0.039 A 
HETATM   39  C   UNL     1      -4.759  -0.389 -33.620  1.00  0.00     0.035 A 
BRANCH  35  40
HETATM   40  O   UNL     1      -7.517   0.756 -31.509  1.00  0.00    -0.354 OA
HETATM   41  C   UNL     1      -8.882   0.976 -31.879  1.00  0.00     0.210 C 
ENDBRANCH  35  40
BRANCH  37  42
HETATM   42  O   UNL     1      -7.121  -2.907 -34.714  1.00  0.00    -0.356 OA
HETATM   43  C   UNL     1      -6.179  -3.931 -35.010  1.00  0.00     0.210 C 
ENDBRANCH  37  42
ENDBRANCH   1  34
TORSDOF 9
ENDMDL
MODEL 8
REMARK VINA RESULT:      -8.5      3.390      6.426
REMARK  9 active torsions:
REMARK  status: ('A' for Active; 'I' for Inactive)
REMARK    1  A    between atoms: O_2  and  C_3 
REMARK    2  A    between atoms: C_5  and  O_6 
REMARK    3  A    between atoms: C_8  and  N_9 
REMARK    4  A    between atoms: C_10  and  O_11 
REMARK    5  A    between atoms: C_10  and  C_12 
REMARK       I    between atoms: C_12  and  N_13 
REMARK    6  A    between atoms: N_13  and  C_14 
REMARK    7  A    between atoms: C_14  and  C_15 
REMARK    8  A    between atoms: C_15  and  N_16 
REMARK    9  A    between atoms: N_20  and  C_21 
ROOT
HETATM    1  N   UNL     1      -4.957   3.483 -32.734  1.00  0.00    -0.251 N 
HETATM    2  C   UNL     1      -5.075   2.262 -31.926  1.00  0.00     0.256 C 
HETATM    3  C   UNL     1      -5.507   1.078 -32.775  1.00  0.00     0.034 A 
HETATM    4  C   UNL     1      -6.308   1.330 -33.883  1.00  0.00     0.048 A 
HETATM    5  N   UNL     1      -6.576   2.651 -34.222  1.00  0.00    -0.308 N 
HETATM    6  C   UNL     1      -5.868   3.718 -33.753  1.00  0.00     0.330 C 
HETATM    7  O   UNL     1      -6.090   4.828 -34.236  1.00  0.00    -0.246 OA
HETATM    8  C   UNL     1      -5.187  -0.255 -32.468  1.00  0.00     0.015 A 
HETATM    9  C   UNL     1      -5.655  -1.298 -33.269  1.00  0.00     0.001 A 
HETATM   10  C   UNL     1      -6.470  -1.024 -34.366  1.00  0.00     0.002 A 
HETATM   11  C   UNL     1      -6.807   0.293 -34.672  1.00  0.00     0.030 A 
HETATM   12  H   UNL     1      -7.143   2.852 -35.040  1.00  0.00     0.170 HD
ENDROOT
BRANCH   2  13
HETATM   13  O   UNL     1      -3.808   1.895 -31.376  1.00  0.00    -0.359 OA
HETATM   14  H   UNL     1      -3.847   0.935 -31.230  1.00  0.00     0.213 HD
ENDBRANCH   2  13
BRANCH   2  15
HETATM   15  C   UNL     1      -6.135   2.420 -30.737  1.00  0.00     0.279 C 
HETATM   16  N   UNL     1      -6.891   3.577 -30.691  1.00  0.00    -0.355 N 
HETATM   17  H   UNL     1      -6.512   4.352 -31.236  1.00  0.00     0.162 HD
HETATM   18  O   UNL     1      -6.351   1.520 -29.915  1.00  0.00    -0.268 OA
BRANCH  16  19
HETATM   19  C   UNL     1      -7.740   3.956 -29.563  1.00  0.00     0.150 C 
BRANCH  19  20
HETATM   20  C   UNL     1      -7.966   5.470 -29.331  1.00  0.00     0.254 C 
BRANCH  20  21
HETATM   21  N   UNL     1      -6.996   6.086 -28.356  1.00  0.00    -0.067 N 
HETATM   22  H   UNL     1      -7.456   6.036 -27.423  1.00  0.00     0.280 HD
HETATM   23  C   UNL     1      -5.683   5.328 -28.173  1.00  0.00     0.254 C 
HETATM   24  C   UNL     1      -4.867   5.949 -27.019  1.00  0.00     0.150 C 
HETATM   25  N   UNL     1      -4.644   7.388 -27.261  1.00  0.00    -0.378 N 
HETATM   26  C   UNL     1      -5.864   8.175 -27.504  1.00  0.00     0.150 C 
HETATM   27  C   UNL     1      -6.721   7.562 -28.632  1.00  0.00     0.254 C 
BRANCH  25  28
HETATM   28  C   UNL     1      -3.398   7.792 -27.724  1.00  0.00     0.030 A 
HETATM   29  C   UNL     1      -3.219   8.844 -28.632  1.00  0.00     0.029 A 
HETATM   30  C   UNL     1      -1.944   9.232 -29.069  1.00  0.00     0.002 A 
HETATM   31  C   UNL     1      -0.812   8.580 -28.594  1.00  0.00     0.000 A 
HETATM   32  C   UNL     1      -0.954   7.546 -27.680  1.00  0.00     0.002 A 
HETATM   33  C   UNL     1      -2.231   7.164 -27.251  1.00  0.00     0.029 A 
ENDBRANCH  25  28
ENDBRANCH  20  21
ENDBRANCH  19  20
ENDBRANCH  16  19
ENDBRANCH   2  15
BRANCH   1  34
HETATM   34  C   UNL     1      -3.857   4.390 -32.560  1.00  0.00     0.076 A 
HETATM   35  C   UNL     1      -3.918   5.543 -31.754  1.00  0.00     0.098 A 
HETATM   36  C   UNL     1      -2.756   6.283 -31.476  1.00  0.00     0.075 A 
HETATM   37  C   UNL     1      -1.536   5.918 -32.043  1.00  0.00     0.070 A 
HETATM   38  C   UNL     1      -1.488   4.836 -32.918  1.00  0.00     0.039 A 
HETATM   39  C   UNL     1      -2.634   4.080 -33.174  1.00  0.00     0.035 A 
BRANCH  35  40
HETATM   40  O   UNL     1      -5.140   5.899 -31.227  1.00  0.00    -0.354 OA
HETATM   41  C   UNL     1      -5.683   7.083 -31.819  1.00  0.00     0.210 C 
ENDBRANCH  35  40
BRANCH  37  42
HETATM   42  O   UNL     1      -0.337   6.539 -31.834  1.00  0.00    -0.356 OA
HETATM   43  C   UNL     1       0.515   5.977 -30.844  1.00  0.00     0.210 C 
ENDBRANCH  37  42
ENDBRANCH   1  34
TORSDOF 9
ENDMDL
MODEL 9
REMARK VINA RESULT:      -8.4      2.650      8.692
REMARK  9 active torsions:
REMARK  status: ('A' for Active; 'I' for Inactive)
REMARK    1  A    between atoms: O_2  and  C_3 
REMARK    2  A    between atoms: C_5  and  O_6 
REMARK    3  A    between atoms: C_8  and  N_9 
REMARK    4  A    between atoms: C_10  and  O_11 
REMARK    5  A    between atoms: C_10  and  C_12 
REMARK       I    between atoms: C_12  and  N_13 
REMARK    6  A    between atoms: N_13  and  C_14 
REMARK    7  A    between atoms: C_14  and  C_15 
REMARK    8  A    between atoms: C_15  and  N_16 
REMARK    9  A    between atoms: N_20  and  C_21 
ROOT
HETATM    1  N   UNL     1      -4.987   3.375 -32.725  1.00  0.00    -0.251 N 
HETATM    2  C   UNL     1      -5.187   2.114 -32.000  1.00  0.00     0.256 C 
HETATM    3  C   UNL     1      -5.584   0.991 -32.944  1.00  0.00     0.034 A 
HETATM    4  C   UNL     1      -6.300   1.326 -34.088  1.00  0.00     0.048 A 
HETATM    5  N   UNL     1      -6.515   2.671 -34.367  1.00  0.00    -0.308 N 
HETATM    6  C   UNL     1      -5.818   3.691 -33.789  1.00  0.00     0.330 C 
HETATM    7  O   UNL     1      -5.982   4.831 -34.221  1.00  0.00    -0.246 OA
HETATM    8  C   UNL     1      -5.316  -0.365 -32.693  1.00  0.00     0.015 A 
HETATM    9  C   UNL     1      -5.749  -1.349 -33.583  1.00  0.00     0.001 A 
HETATM   10  C   UNL     1      -6.479  -0.993 -34.716  1.00  0.00     0.002 A 
HETATM   11  C   UNL     1      -6.765   0.348 -34.967  1.00  0.00     0.030 A 
HETATM   12  H   UNL     1      -7.019   2.932 -35.209  1.00  0.00     0.170 HD
ENDROOT
BRANCH   2  13
HETATM   13  O   UNL     1      -3.970   1.684 -31.386  1.00  0.00    -0.359 OA
HETATM   14  H   UNL     1      -3.657   2.437 -30.858  1.00  0.00     0.213 HD
ENDBRANCH   2  13
BRANCH   2  15
HETATM   15  C   UNL     1      -6.324   2.232 -30.879  1.00  0.00     0.279 C 
HETATM   16  N   UNL     1      -7.356   3.128 -31.093  1.00  0.00    -0.355 N 
HETATM   17  H   UNL     1      -7.157   3.842 -31.794  1.00  0.00     0.162 HD
HETATM   18  O   UNL     1      -6.350   1.502 -29.880  1.00  0.00    -0.268 OA
BRANCH  16  19
HETATM   19  C   UNL     1      -8.343   3.497 -30.080  1.00  0.00     0.150 C 
BRANCH  19  20
HETATM   20  C   UNL     1      -9.605   4.247 -30.569  1.00  0.00     0.254 C 
BRANCH  20  21
HETATM   21  N   UNL     1      -9.797   4.202 -32.064  1.00  0.00    -0.067 N 
HETATM   22  H   UNL     1      -9.249   3.382 -32.399  1.00  0.00     0.280 HD
HETATM   23  C   UNL     1     -11.223   3.923 -32.532  1.00  0.00     0.254 C 
HETATM   24  C   UNL     1     -11.249   3.712 -34.062  1.00  0.00     0.150 C 
HETATM   25  N   UNL     1     -10.660   4.875 -34.752  1.00  0.00    -0.378 N 
HETATM   26  C   UNL     1      -9.304   5.241 -34.311  1.00  0.00     0.150 C 
HETATM   27  C   UNL     1      -9.235   5.427 -32.780  1.00  0.00     0.254 C 
BRANCH  25  28
HETATM   28  C   UNL     1     -11.519   5.794 -35.344  1.00  0.00     0.030 A 
HETATM   29  C   UNL     1     -12.871   5.527 -35.601  1.00  0.00     0.029 A 
HETATM   30  C   UNL     1     -13.711   6.483 -36.190  1.00  0.00     0.002 A 
HETATM   31  C   UNL     1     -13.218   7.739 -36.524  1.00  0.00     0.000 A 
HETATM   32  C   UNL     1     -11.889   8.040 -36.265  1.00  0.00     0.002 A 
HETATM   33  C   UNL     1     -11.056   7.079 -35.679  1.00  0.00     0.029 A 
ENDBRANCH  25  28
ENDBRANCH  20  21
ENDBRANCH  19  20
ENDBRANCH  16  19
ENDBRANCH   2  15
BRANCH   1  34
HETATM   34  C   UNL     1      -3.882   4.243 -32.424  1.00  0.00     0.076 A 
HETATM   35  C   UNL     1      -3.892   5.180 -31.374  1.00  0.00     0.098 A 
HETATM   36  C   UNL     1      -2.717   5.863 -31.014  1.00  0.00     0.075 A 
HETATM   37  C   UNL     1      -1.538   5.662 -31.731  1.00  0.00     0.070 A 
HETATM   38  C   UNL     1      -1.547   4.810 -32.831  1.00  0.00     0.039 A 
HETATM   39  C   UNL     1      -2.704   4.107 -33.174  1.00  0.00     0.035 A 
BRANCH  35  40
HETATM   40  O   UNL     1      -5.075   5.380 -30.697  1.00  0.00    -0.354 OA
HETATM   41  C   UNL     1      -4.901   6.065 -29.453  1.00  0.00     0.210 C 
ENDBRANCH  35  40
BRANCH  37  42
HETATM   42  O   UNL     1      -0.331   6.246 -31.468  1.00  0.00    -0.356 OA
HETATM   43  C   UNL     1      -0.162   6.820 -30.177  1.00  0.00     0.210 C 
ENDBRANCH  37  42
ENDBRANCH   1  34
TORSDOF 9
ENDMDL
MODEL 10
REMARK VINA RESULT:      -8.4      3.006      9.226
REMARK  9 active torsions:
REMARK  status: ('A' for Active; 'I' for Inactive)
REMARK    1  A    between atoms: O_2  and  C_3 
REMARK    2  A    between atoms: C_5  and  O_6 
REMARK    3  A    between atoms: C_8  and  N_9 
REMARK    4  A    between atoms: C_10  and  O_11 
REMARK    5  A    between atoms: C_10  and  C_12 
REMARK       I    between atoms: C_12  and  N_13 
REMARK    6  A    between atoms: N_13  and  C_14 
REMARK    7  A    between atoms: C_14  and  C_15 
REMARK    8  A    between atoms: C_15  and  N_16 
REMARK    9  A    between atoms: N_20  and  C_21 
ROOT
HETATM    1  N   UNL     1      -5.597   1.740 -32.301  1.00  0.00    -0.251 N 
HETATM    2  C   UNL     1      -5.819   2.982 -33.053  1.00  0.00     0.256 C 
HETATM    3  C   UNL     1      -4.612   3.901 -32.969  1.00  0.00     0.034 A 
HETATM    4  C   UNL     1      -3.829   3.843 -31.821  1.00  0.00     0.048 A 
HETATM    5  N   UNL     1      -4.121   2.876 -30.867  1.00  0.00    -0.308 N 
HETATM    6  C   UNL     1      -4.901   1.783 -31.102  1.00  0.00     0.330 C 
HETATM    7  O   UNL     1      -4.968   0.912 -30.235  1.00  0.00    -0.246 OA
HETATM    8  C   UNL     1      -4.281   4.839 -33.961  1.00  0.00     0.015 A 
HETATM    9  C   UNL     1      -3.181   5.684 -33.798  1.00  0.00     0.001 A 
HETATM   10  C   UNL     1      -2.419   5.620 -32.632  1.00  0.00     0.002 A 
HETATM   11  C   UNL     1      -2.748   4.704 -31.634  1.00  0.00     0.030 A 
HETATM   12  H   UNL     1      -3.546   2.809 -30.032  1.00  0.00     0.170 HD
ENDROOT
BRANCH   2  13
HETATM   13  O   UNL     1      -5.992   2.705 -34.445  1.00  0.00    -0.359 OA
HETATM   14  H   UNL     1      -6.931   2.481 -34.558  1.00  0.00     0.213 HD
ENDBRANCH   2  13
BRANCH   2  15
HETATM   15  C   UNL     1      -7.089   3.796 -32.520  1.00  0.00     0.279 C 
HETATM   16  N   UNL     1      -8.316   3.543 -33.107  1.00  0.00    -0.355 N 
HETATM   17  H   UNL     1      -8.263   3.082 -34.015  1.00  0.00     0.162 HD
HETATM   18  O   UNL     1      -7.024   4.577 -31.562  1.00  0.00    -0.268 OA
BRANCH  16  19
HETATM   19  C   UNL     1      -9.515   4.346 -32.877  1.00  0.00     0.150 C 
BRANCH  19  20
HETATM   20  C   UNL     1     -10.770   3.990 -33.711  1.00  0.00     0.254 C 
BRANCH  20  21
HETATM   21  N   UNL     1     -11.903   3.427 -32.892  1.00  0.00    -0.067 N 
HETATM   22  H   UNL     1     -11.477   2.712 -32.265  1.00  0.00     0.280 HD
HETATM   23  C   UNL     1     -12.574   4.414 -31.940  1.00  0.00     0.254 C 
HETATM   24  C   UNL     1     -13.579   3.675 -31.029  1.00  0.00     0.150 C 
HETATM   25  N   UNL     1     -14.564   2.936 -31.842  1.00  0.00    -0.378 N 
HETATM   26  C   UNL     1     -13.988   2.005 -32.826  1.00  0.00     0.150 C 
HETATM   27  C   UNL     1     -12.952   2.705 -33.732  1.00  0.00     0.254 C 
BRANCH  25  28
HETATM   28  C   UNL     1     -15.834   3.481 -31.994  1.00  0.00     0.030 A 
HETATM   29  C   UNL     1     -16.086   4.860 -31.973  1.00  0.00     0.029 A 
HETATM   30  C   UNL     1     -17.379   5.375 -32.141  1.00  0.00     0.002 A 
HETATM   31  C   UNL     1     -18.454   4.517 -32.349  1.00  0.00     0.000 A 
HETATM   32  C   UNL     1     -18.234   3.148 -32.393  1.00  0.00     0.002 A 
HETATM   33  C   UNL     1     -16.940   2.643 -32.221  1.00  0.00     0.029 A 
ENDBRANCH  25  28
ENDBRANCH  20  21
ENDBRANCH  19  20
ENDBRANCH  16  19
ENDBRANCH   2  15
BRANCH   1  34
HETATM   34  C   UNL     1      -5.995   0.465 -32.829  1.00  0.00     0.076 A 
HETATM   35  C   UNL     1      -7.322  -0.005 -32.815  1.00  0.00     0.098 A 
HETATM   36  C   UNL     1      -7.675  -1.172 -33.514  1.00  0.00     0.075 A 
HETATM   37  C   UNL     1      -6.702  -1.913 -34.183  1.00  0.00     0.070 A 
HETATM   38  C   UNL     1      -5.373  -1.507 -34.120  1.00  0.00     0.039 A 
HETATM   39  C   UNL     1      -5.022  -0.332 -33.452  1.00  0.00     0.035 A 
BRANCH  35  40
HETATM   40  O   UNL     1      -8.260   0.731 -32.125  1.00  0.00    -0.354 OA
HETATM   41  C   UNL     1      -9.605   0.325 -32.400  1.00  0.00     0.210 C 
ENDBRANCH  35  40
BRANCH  37  42
HETATM   42  O   UNL     1      -6.921  -3.048 -34.913  1.00  0.00    -0.356 OA
HETATM   43  C   UNL     1      -5.873  -4.010 -34.936  1.00  0.00     0.210 C 
ENDBRANCH  37  42
ENDBRANCH   1  34
TORSDOF 9
ENDMDL
