MODEL 1
REMARK VINA RESULT:     -10.1      0.000      0.000
REMARK  6 active torsions:
REMARK  status: ('A' for Active; 'I' for Inactive)
REMARK    1  A    between atoms: C_2  and  O_3 
REMARK    2  A    between atoms: C_2  and  C_4 
REMARK    3  A    between atoms: C_6  and  N_7 
REMARK       I    between atoms: N_7  and  C_8 
REMARK    4  A    between atoms: C_8  and  C_9 
REMARK    5  A    between atoms: C_12  and  C_13 
REMARK    6  A    between atoms: C_18  and  C_19 
ROOT
HETATM    1  C   UNL     1      -8.793   1.351 -32.724  1.00  0.00     0.096 C 
HETATM    2  C   UNL     1      -7.598   0.704 -32.979  1.00  0.00     0.138 C 
HETATM    3  N   UNL     1      -6.607   1.589 -32.620  1.00  0.00    -0.240 N 
HETATM    4  C   UNL     1      -5.183   1.327 -32.746  1.00  0.00     0.221 C 
HETATM    5  C   UNL     1      -4.926  -0.175 -32.969  1.00  0.00     0.066 C 
HETATM    6  C   UNL     1      -5.928  -0.742 -33.980  1.00  0.00     0.118 C 
HETATM    7  N   UNL     1      -7.293  -0.524 -33.484  1.00  0.00    -0.365 N 
HETATM    8  N   UNL     1      -7.069   2.815 -32.332  1.00  0.00    -0.181 NA
HETATM    9  C   UNL     1      -8.396   2.660 -32.360  1.00  0.00     0.160 C 
HETATM   10  H   UNL     1      -7.980  -0.970 -34.099  1.00  0.00     0.161 HD
ENDROOT
BRANCH   1  11
HETATM   11  C   UNL     1     -10.158   0.859 -32.832  1.00  0.00     0.261 C 
HETATM   12  N   UNL     1     -11.080   1.856 -33.094  1.00  0.00    -0.323 N 
HETATM   13  H   UNL     1     -10.687   2.774 -33.269  1.00  0.00     0.169 HD
HETATM   14  O   UNL     1     -10.396  -0.338 -32.728  1.00  0.00    -0.267 OA
BRANCH  12  15
HETATM   15  C   UNL     1     -12.474   1.728 -33.248  1.00  0.00     0.035 A 
HETATM   16  C   UNL     1     -13.408   2.548 -32.609  1.00  0.00     0.039 A 
HETATM   17  C   UNL     1     -14.788   2.360 -32.799  1.00  0.00    -0.028 A 
HETATM   18  C   UNL     1     -15.223   1.324 -33.638  1.00  0.00     0.010 A 
HETATM   19  C   UNL     1     -14.299   0.510 -34.288  1.00  0.00     0.003 A 
HETATM   20  C   UNL     1     -12.932   0.714 -34.097  1.00  0.00     0.029 A 
BRANCH  17  21
HETATM   21  C   UNL     1     -15.776   3.248 -32.071  1.00  0.00     0.147 C 
HETATM   22  C   UNL     1     -17.180   2.663 -32.075  1.00  0.00     0.044 C 
BRANCH  21  23
HETATM   23  O   UNL     1     -15.814   4.543 -32.669  1.00  0.00    -0.391 OA
HETATM   24  H   UNL     1     -16.684   4.922 -32.458  1.00  0.00     0.210 HD
ENDBRANCH  21  23
ENDBRANCH  17  21
ENDBRANCH  12  15
ENDBRANCH   1  11
BRANCH   4  25
HETATM   25  C   UNL     1      -4.416   1.797 -31.529  1.00  0.00     0.409 C 
HETATM   26  F   UNL     1      -4.075   3.100 -31.573  1.00  0.00    -0.169 F 
HETATM   27  F   UNL     1      -5.088   1.571 -30.377  1.00  0.00    -0.169 F 
HETATM   28  F   UNL     1      -3.247   1.105 -31.437  1.00  0.00    -0.169 F 
ENDBRANCH   4  25
BRANCH   6  29
HETATM   29  C   UNL     1      -5.712  -2.222 -34.226  1.00  0.00    -0.035 A 
HETATM   30  C   UNL     1      -6.752  -3.046 -34.687  1.00  0.00     0.009 A 
HETATM   31  C   UNL     1      -6.540  -4.410 -34.898  1.00  0.00     0.001 A 
HETATM   32  C   UNL     1      -5.287  -4.966 -34.653  1.00  0.00     0.000 A 
HETATM   33  C   UNL     1      -4.244  -4.161 -34.201  1.00  0.00     0.001 A 
HETATM   34  C   UNL     1      -4.454  -2.796 -33.989  1.00  0.00     0.009 A 
ENDBRANCH   6  29
TORSDOF 6
ENDMDL
MODEL 2
REMARK VINA RESULT:      -9.9      1.865      2.499
REMARK  6 active torsions:
REMARK  status: ('A' for Active; 'I' for Inactive)
REMARK    1  A    between atoms: C_2  and  O_3 
REMARK    2  A    between atoms: C_2  and  C_4 
REMARK    3  A    between atoms: C_6  and  N_7 
REMARK       I    between atoms: N_7  and  C_8 
REMARK    4  A    between atoms: C_8  and  C_9 
REMARK    5  A    between atoms: C_12  and  C_13 
REMARK    6  A    between atoms: C_18  and  C_19 
ROOT
HETATM    1  C   UNL     1      -7.022   1.645 -33.716  1.00  0.00     0.096 C 
HETATM    2  C   UNL     1      -6.021   0.705 -33.554  1.00  0.00     0.138 C 
HETATM    3  N   UNL     1      -5.012   1.344 -32.869  1.00  0.00    -0.240 N 
HETATM    4  C   UNL     1      -3.746   0.730 -32.504  1.00  0.00     0.221 C 
HETATM    5  C   UNL     1      -3.827  -0.802 -32.641  1.00  0.00     0.066 C 
HETATM    6  C   UNL     1      -4.548  -1.182 -33.939  1.00  0.00     0.118 C 
HETATM    7  N   UNL     1      -5.894  -0.596 -33.937  1.00  0.00    -0.365 N 
HETATM    8  N   UNL     1      -5.209   2.665 -32.744  1.00  0.00    -0.181 NA
HETATM    9  C   UNL     1      -6.444   2.841 -33.225  1.00  0.00     0.160 C 
HETATM   10  H   UNL     1      -6.428  -0.906 -34.753  1.00  0.00     0.161 HD
ENDROOT
BRANCH   1  11
HETATM   11  C   UNL     1      -8.351   1.498 -34.288  1.00  0.00     0.261 C 
HETATM   12  N   UNL     1      -9.208   2.531 -33.955  1.00  0.00    -0.323 N 
HETATM   13  H   UNL     1      -8.784   3.295 -33.440  1.00  0.00     0.169 HD
HETATM   14  O   UNL     1      -8.611   0.549 -35.017  1.00  0.00    -0.267 OA
BRANCH  12  15
HETATM   15  C   UNL     1     -10.556   2.693 -34.329  1.00  0.00     0.035 A 
HETATM   16  C   UNL     1     -11.591   1.857 -33.900  1.00  0.00     0.039 A 
HETATM   17  C   UNL     1     -12.915   2.070 -34.320  1.00  0.00    -0.028 A 
HETATM   18  C   UNL     1     -13.189   3.136 -35.189  1.00  0.00     0.010 A 
HETATM   19  C   UNL     1     -12.166   3.981 -35.610  1.00  0.00     0.003 A 
HETATM   20  C   UNL     1     -10.857   3.763 -35.179  1.00  0.00     0.029 A 
BRANCH  17  21
HETATM   21  C   UNL     1     -14.010   1.131 -33.860  1.00  0.00     0.147 C 
HETATM   22  C   UNL     1     -13.500  -0.290 -33.666  1.00  0.00     0.044 C 
BRANCH  21  23
HETATM   23  O   UNL     1     -15.080   1.112 -34.805  1.00  0.00    -0.391 OA
HETATM   24  H   UNL     1     -15.886   0.891 -34.309  1.00  0.00     0.210 HD
ENDBRANCH  21  23
ENDBRANCH  17  21
ENDBRANCH  12  15
ENDBRANCH   1  11
BRANCH   4  25
HETATM   25  C   UNL     1      -3.333   1.090 -31.093  1.00  0.00     0.409 C 
HETATM   26  F   UNL     1      -2.832   2.337 -30.977  1.00  0.00    -0.169 F 
HETATM   27  F   UNL     1      -4.347   0.955 -30.209  1.00  0.00    -0.169 F 
HETATM   28  F   UNL     1      -2.346   0.249 -30.682  1.00  0.00    -0.169 F 
ENDBRANCH   4  25
BRANCH   6  29
HETATM   29  C   UNL     1      -4.652  -2.684 -34.111  1.00  0.00    -0.035 A 
HETATM   30  C   UNL     1      -3.717  -3.555 -33.527  1.00  0.00     0.009 A 
HETATM   31  C   UNL     1      -3.820  -4.936 -33.705  1.00  0.00     0.001 A 
HETATM   32  C   UNL     1      -4.860  -5.464 -34.465  1.00  0.00     0.000 A 
HETATM   33  C   UNL     1      -5.799  -4.615 -35.046  1.00  0.00     0.001 A 
HETATM   34  C   UNL     1      -5.697  -3.233 -34.871  1.00  0.00     0.009 A 
ENDBRANCH   6  29
TORSDOF 6
ENDMDL
MODEL 3
REMARK VINA RESULT:      -9.9      4.288      8.353
REMARK  6 active torsions:
REMARK  status: ('A' for Active; 'I' for Inactive)
REMARK    1  A    between atoms: C_2  and  O_3 
REMARK    2  A    between atoms: C_2  and  C_4 
REMARK    3  A    between atoms: C_6  and  N_7 
REMARK       I    between atoms: N_7  and  C_8 
REMARK    4  A    between atoms: C_8  and  C_9 
REMARK    5  A    between atoms: C_12  and  C_13 
REMARK    6  A    between atoms: C_18  and  C_19 
ROOT
HETATM    1  C   UNL     1      -7.197   3.683 -33.091  1.00  0.00     0.096 C 
HETATM    2  C   UNL     1      -7.461   2.326 -33.106  1.00  0.00     0.138 C 
HETATM    3  N   UNL     1      -8.803   2.201 -32.825  1.00  0.00    -0.240 N 
HETATM    4  C   UNL     1      -9.508   0.935 -32.714  1.00  0.00     0.221 C 
HETATM    5  C   UNL     1      -8.667  -0.208 -33.315  1.00  0.00     0.066 C 
HETATM    6  C   UNL     1      -7.203  -0.075 -32.881  1.00  0.00     0.118 C 
HETATM    7  N   UNL     1      -6.684   1.227 -33.318  1.00  0.00    -0.365 N 
HETATM    8  N   UNL     1      -9.376   3.354 -32.448  1.00  0.00    -0.181 NA
HETATM    9  C   UNL     1      -8.412   4.258 -32.645  1.00  0.00     0.160 C 
HETATM   10  H   UNL     1      -5.684   1.306 -33.116  1.00  0.00     0.161 HD
ENDROOT
BRANCH   1  11
HETATM   11  C   UNL     1      -5.968   4.394 -33.407  1.00  0.00     0.261 C 
HETATM   12  N   UNL     1      -4.877   3.950 -32.683  1.00  0.00    -0.323 N 
HETATM   13  H   UNL     1      -5.045   3.136 -32.101  1.00  0.00     0.169 HD
HETATM   14  O   UNL     1      -5.959   5.265 -34.268  1.00  0.00    -0.267 OA
BRANCH  12  15
HETATM   15  C   UNL     1      -3.552   4.423 -32.736  1.00  0.00     0.035 A 
HETATM   16  C   UNL     1      -2.782   4.716 -31.607  1.00  0.00     0.039 A 
HETATM   17  C   UNL     1      -1.466   5.195 -31.731  1.00  0.00    -0.028 A 
HETATM   18  C   UNL     1      -0.931   5.386 -33.013  1.00  0.00     0.010 A 
HETATM   19  C   UNL     1      -1.686   5.084 -34.143  1.00  0.00     0.003 A 
HETATM   20  C   UNL     1      -2.988   4.602 -34.005  1.00  0.00     0.029 A 
BRANCH  17  21
HETATM   21  C   UNL     1      -0.666   5.528 -30.489  1.00  0.00     0.147 C 
HETATM   22  C   UNL     1       0.410   6.568 -30.764  1.00  0.00     0.044 C 
BRANCH  21  23
HETATM   23  O   UNL     1      -0.050   4.353 -29.964  1.00  0.00    -0.391 OA
HETATM   24  H   UNL     1       0.232   4.567 -29.058  1.00  0.00     0.210 HD
ENDBRANCH  21  23
ENDBRANCH  17  21
ENDBRANCH  12  15
ENDBRANCH   1  11
BRANCH   4  25
HETATM   25  C   UNL     1     -10.858   0.982 -33.397  1.00  0.00     0.409 C 
HETATM   26  F   UNL     1     -11.685   1.922 -32.899  1.00  0.00    -0.169 F 
HETATM   27  F   UNL     1     -10.753   1.171 -34.733  1.00  0.00    -0.169 F 
HETATM   28  F   UNL     1     -11.495  -0.209 -33.224  1.00  0.00    -0.169 F 
ENDBRANCH   4  25
BRANCH   6  29
HETATM   29  C   UNL     1      -6.339  -1.180 -33.454  1.00  0.00    -0.035 A 
HETATM   30  C   UNL     1      -6.860  -2.124 -34.355  1.00  0.00     0.009 A 
HETATM   31  C   UNL     1      -6.054  -3.143 -34.865  1.00  0.00     0.001 A 
HETATM   32  C   UNL     1      -4.717  -3.230 -34.485  1.00  0.00     0.000 A 
HETATM   33  C   UNL     1      -4.183  -2.298 -33.598  1.00  0.00     0.001 A 
HETATM   34  C   UNL     1      -4.989  -1.279 -33.085  1.00  0.00     0.009 A 
ENDBRANCH   6  29
TORSDOF 6
ENDMDL
MODEL 4
REMARK VINA RESULT:      -9.1      4.267      8.406
REMARK  6 active torsions:
REMARK  status: ('A' for Active; 'I' for Inactive)
REMARK    1  A    between atoms: C_2  and  O_3 
REMARK    2  A    between atoms: C_2  and  C_4 
REMARK    3  A    between atoms: C_6  and  N_7 
REMARK       I    between atoms: N_7  and  C_8 
REMARK    4  A    between atoms: C_8  and  C_9 
REMARK    5  A    between atoms: C_12  and  C_13 
REMARK    6  A    between atoms: C_18  and  C_19 
ROOT
HETATM    1  C   UNL     1      -7.401   2.037 -34.146  1.00  0.00     0.096 C 
HETATM    2  C   UNL     1      -6.812   3.267 -33.916  1.00  0.00     0.138 C 
HETATM    3  N   UNL     1      -7.835   4.110 -33.545  1.00  0.00    -0.240 N 
HETATM    4  C   UNL     1      -7.668   5.520 -33.231  1.00  0.00     0.221 C 
HETATM    5  C   UNL     1      -6.181   5.852 -33.001  1.00  0.00     0.066 C 
HETATM    6  C   UNL     1      -5.313   5.168 -34.063  1.00  0.00     0.118 C 
HETATM    7  N   UNL     1      -5.529   3.717 -34.005  1.00  0.00    -0.365 N 
HETATM    8  N   UNL     1      -9.052   3.568 -33.699  1.00  0.00    -0.181 NA
HETATM    9  C   UNL     1      -8.787   2.301 -34.028  1.00  0.00     0.160 C 
HETATM   10  H   UNL     1      -4.897   3.229 -34.645  1.00  0.00     0.161 HD
ENDROOT
BRANCH   1  11
HETATM   11  C   UNL     1      -6.788   0.761 -34.476  1.00  0.00     0.261 C 
HETATM   12  N   UNL     1      -6.042   0.228 -33.441  1.00  0.00    -0.323 N 
HETATM   13  H   UNL     1      -6.090   0.737 -32.566  1.00  0.00     0.169 HD
HETATM   14  O   UNL     1      -6.983   0.242 -35.569  1.00  0.00    -0.267 OA
BRANCH  12  15
HETATM   15  C   UNL     1      -5.315  -0.979 -33.429  1.00  0.00     0.035 A 
HETATM   16  C   UNL     1      -5.619  -2.082 -34.231  1.00  0.00     0.039 A 
HETATM   17  C   UNL     1      -4.857  -3.261 -34.162  1.00  0.00    -0.028 A 
HETATM   18  C   UNL     1      -3.782  -3.323 -33.264  1.00  0.00     0.010 A 
HETATM   19  C   UNL     1      -3.464  -2.224 -32.470  1.00  0.00     0.003 A 
HETATM   20  C   UNL     1      -4.224  -1.057 -32.555  1.00  0.00     0.029 A 
BRANCH  17  21
HETATM   21  C   UNL     1      -5.228  -4.448 -35.026  1.00  0.00     0.147 C 
HETATM   22  C   UNL     1      -6.732  -4.553 -35.236  1.00  0.00     0.044 C 
BRANCH  21  23
HETATM   23  O   UNL     1      -4.760  -5.659 -34.434  1.00  0.00    -0.391 OA
HETATM   24  H   UNL     1      -4.776  -6.336 -35.133  1.00  0.00     0.210 HD
ENDBRANCH  21  23
ENDBRANCH  17  21
ENDBRANCH  12  15
ENDBRANCH   1  11
BRANCH   4  25
HETATM   25  C   UNL     1      -8.471   5.923 -32.013  1.00  0.00     0.409 C 
HETATM   26  F   UNL     1      -9.753   6.235 -32.288  1.00  0.00    -0.169 F 
HETATM   27  F   UNL     1      -8.461   4.972 -31.052  1.00  0.00    -0.169 F 
HETATM   28  F   UNL     1      -7.922   7.039 -31.459  1.00  0.00    -0.169 F 
ENDBRANCH   4  25
BRANCH   6  29
HETATM   29  C   UNL     1      -3.840   5.466 -33.870  1.00  0.00    -0.035 A 
HETATM   30  C   UNL     1      -2.913   5.277 -34.909  1.00  0.00     0.009 A 
HETATM   31  C   UNL     1      -1.557   5.545 -34.713  1.00  0.00     0.001 A 
HETATM   32  C   UNL     1      -1.111   6.008 -33.477  1.00  0.00     0.000 A 
HETATM   33  C   UNL     1      -2.018   6.206 -32.438  1.00  0.00     0.001 A 
HETATM   34  C   UNL     1      -3.375   5.938 -32.633  1.00  0.00     0.009 A 
ENDBRANCH   6  29
TORSDOF 6
ENDMDL
MODEL 5
REMARK VINA RESULT:      -9.0      4.966      9.164
REMARK  6 active torsions:
REMARK  status: ('A' for Active; 'I' for Inactive)
REMARK    1  A    between atoms: C_2  and  O_3 
REMARK    2  A    between atoms: C_2  and  C_4 
REMARK    3  A    between atoms: C_6  and  N_7 
REMARK       I    between atoms: N_7  and  C_8 
REMARK    4  A    between atoms: C_8  and  C_9 
REMARK    5  A    between atoms: C_12  and  C_13 
REMARK    6  A    between atoms: C_18  and  C_19 
ROOT
HETATM    1  C   UNL     1      -5.129   3.591 -31.605  1.00  0.00     0.096 C 
HETATM    2  C   UNL     1      -5.751   2.455 -32.089  1.00  0.00     0.138 C 
HETATM    3  N   UNL     1      -7.088   2.771 -32.186  1.00  0.00    -0.240 N 
HETATM    4  C   UNL     1      -8.121   1.851 -32.633  1.00  0.00     0.221 C 
HETATM    5  C   UNL     1      -7.494   0.629 -33.331  1.00  0.00     0.066 C 
HETATM    6  C   UNL     1      -6.278   0.132 -32.542  1.00  0.00     0.118 C 
HETATM    7  N   UNL     1      -5.295   1.217 -32.430  1.00  0.00    -0.365 N 
HETATM    8  N   UNL     1      -7.396   3.951 -31.629  1.00  0.00    -0.181 NA
HETATM    9  C   UNL     1      -6.205   4.464 -31.310  1.00  0.00     0.160 C 
HETATM   10  H   UNL     1      -4.437   0.886 -31.982  1.00  0.00     0.161 HD
ENDROOT
BRANCH   1  11
HETATM   11  C   UNL     1      -3.716   3.857 -31.391  1.00  0.00     0.261 C 
HETATM   12  N   UNL     1      -3.438   5.193 -31.165  1.00  0.00    -0.323 N 
HETATM   13  H   UNL     1      -4.249   5.796 -31.085  1.00  0.00     0.169 HD
HETATM   14  O   UNL     1      -2.905   2.939 -31.386  1.00  0.00    -0.267 OA
BRANCH  12  15
HETATM   15  C   UNL     1      -2.184   5.790 -30.934  1.00  0.00     0.035 A 
HETATM   16  C   UNL     1      -1.778   6.301 -29.698  1.00  0.00     0.039 A 
HETATM   17  C   UNL     1      -0.514   6.894 -29.538  1.00  0.00    -0.028 A 
HETATM   18  C   UNL     1       0.343   6.976 -30.644  1.00  0.00     0.010 A 
HETATM   19  C   UNL     1      -0.047   6.457 -31.877  1.00  0.00     0.003 A 
HETATM   20  C   UNL     1      -1.303   5.864 -32.019  1.00  0.00     0.029 A 
BRANCH  17  21
HETATM   21  C   UNL     1      -0.115   7.463 -28.192  1.00  0.00     0.147 C 
HETATM   22  C   UNL     1       1.235   8.163 -28.246  1.00  0.00     0.044 C 
BRANCH  21  23
HETATM   23  O   UNL     1      -0.059   6.428 -27.211  1.00  0.00    -0.391 OA
HETATM   24  H   UNL     1       0.568   6.723 -26.529  1.00  0.00     0.210 HD
ENDBRANCH  21  23
ENDBRANCH  17  21
ENDBRANCH  12  15
ENDBRANCH   1  11
BRANCH   4  25
HETATM   25  C   UNL     1      -9.102   2.521 -33.571  1.00  0.00     0.409 C 
HETATM   26  F   UNL     1      -8.561   3.518 -34.299  1.00  0.00    -0.169 F 
HETATM   27  F   UNL     1      -9.685   1.643 -34.418  1.00  0.00    -0.169 F 
HETATM   28  F   UNL     1     -10.107   3.086 -32.847  1.00  0.00    -0.169 F 
ENDBRANCH   4  25
BRANCH   6  29
HETATM   29  C   UNL     1      -5.628  -1.070 -33.197  1.00  0.00    -0.035 A 
HETATM   30  C   UNL     1      -4.398  -1.575 -32.744  1.00  0.00     0.009 A 
HETATM   31  C   UNL     1      -3.806  -2.676 -33.365  1.00  0.00     0.001 A 
HETATM   32  C   UNL     1      -4.437  -3.288 -34.446  1.00  0.00     0.000 A 
HETATM   33  C   UNL     1      -5.660  -2.803 -34.905  1.00  0.00     0.001 A 
HETATM   34  C   UNL     1      -6.253  -1.701 -34.284  1.00  0.00     0.009 A 
ENDBRANCH   6  29
TORSDOF 6
ENDMDL
MODEL 6
REMARK VINA RESULT:      -8.9      5.665      9.339
REMARK  6 active torsions:
REMARK  status: ('A' for Active; 'I' for Inactive)
REMARK    1  A    between atoms: C_2  and  O_3 
REMARK    2  A    between atoms: C_2  and  C_4 
REMARK    3  A    between atoms: C_6  and  N_7 
REMARK       I    between atoms: N_7  and  C_8 
REMARK    4  A    between atoms: C_8  and  C_9 
REMARK    5  A    between atoms: C_12  and  C_13 
REMARK    6  A    between atoms: C_18  and  C_19 
ROOT
HETATM    1  C   UNL     1      -4.862   2.573 -32.657  1.00  0.00     0.096 C 
HETATM    2  C   UNL     1      -4.451   3.867 -32.396  1.00  0.00     0.138 C 
HETATM    3  N   UNL     1      -5.530   4.671 -32.690  1.00  0.00    -0.240 N 
HETATM    4  C   UNL     1      -5.530   6.120 -32.582  1.00  0.00     0.221 C 
HETATM    5  C   UNL     1      -4.325   6.603 -31.753  1.00  0.00     0.066 C 
HETATM    6  C   UNL     1      -3.060   5.839 -32.159  1.00  0.00     0.118 C 
HETATM    7  N   UNL     1      -3.276   4.401 -31.959  1.00  0.00    -0.365 N 
HETATM    8  N   UNL     1      -6.532   4.014 -33.292  1.00  0.00    -0.181 NA
HETATM    9  C   UNL     1      -6.143   2.737 -33.239  1.00  0.00     0.160 C 
HETATM   10  H   UNL     1      -2.418   3.875 -32.140  1.00  0.00     0.161 HD
ENDROOT
BRANCH   1  11
HETATM   11  C   UNL     1      -4.165   1.315 -32.441  1.00  0.00     0.261 C 
HETATM   12  N   UNL     1      -4.792   0.233 -33.032  1.00  0.00    -0.323 N 
HETATM   13  H   UNL     1      -5.594   0.460 -33.610  1.00  0.00     0.169 HD
HETATM   14  O   UNL     1      -3.109   1.289 -31.820  1.00  0.00    -0.267 OA
BRANCH  12  15
HETATM   15  C   UNL     1      -4.393  -1.117 -33.010  1.00  0.00     0.035 A 
HETATM   16  C   UNL     1      -4.852  -2.081 -33.912  1.00  0.00     0.039 A 
HETATM   17  C   UNL     1      -4.420  -3.417 -33.828  1.00  0.00    -0.028 A 
HETATM   18  C   UNL     1      -3.521  -3.777 -32.815  1.00  0.00     0.010 A 
HETATM   19  C   UNL     1      -3.049  -2.820 -31.919  1.00  0.00     0.003 A 
HETATM   20  C   UNL     1      -3.480  -1.497 -32.019  1.00  0.00     0.029 A 
BRANCH  17  21
HETATM   21  C   UNL     1      -4.956  -4.443 -34.804  1.00  0.00     0.147 C 
HETATM   22  C   UNL     1      -6.471  -4.376 -34.928  1.00  0.00     0.044 C 
BRANCH  21  23
HETATM   23  O   UNL     1      -4.584  -5.759 -34.396  1.00  0.00    -0.391 OA
HETATM   24  H   UNL     1      -4.928  -5.879 -33.495  1.00  0.00     0.210 HD
ENDBRANCH  21  23
ENDBRANCH  17  21
ENDBRANCH  12  15
ENDBRANCH   1  11
BRANCH   4  25
HETATM   25  C   UNL     1      -6.811   6.636 -31.962  1.00  0.00     0.409 C 
HETATM   26  F   UNL     1      -7.292   5.850 -30.978  1.00  0.00    -0.169 F 
HETATM   27  F   UNL     1      -6.678   7.892 -31.477  1.00  0.00    -0.169 F 
HETATM   28  F   UNL     1      -7.785   6.689 -32.911  1.00  0.00    -0.169 F 
ENDBRANCH   4  25
BRANCH   6  29
HETATM   29  C   UNL     1      -1.849   6.282 -31.363  1.00  0.00    -0.035 A 
HETATM   30  C   UNL     1      -0.565   6.296 -31.932  1.00  0.00     0.009 A 
HETATM   31  C   UNL     1       0.543   6.695 -31.182  1.00  0.00     0.001 A 
HETATM   32  C   UNL     1       0.381   7.089 -29.856  1.00  0.00     0.000 A 
HETATM   33  C   UNL     1      -0.887   7.087 -29.279  1.00  0.00     0.001 A 
HETATM   34  C   UNL     1      -1.996   6.686 -30.027  1.00  0.00     0.009 A 
ENDBRANCH   6  29
TORSDOF 6
ENDMDL
MODEL 7
REMARK VINA RESULT:      -8.9      4.371      8.216
REMARK  6 active torsions:
REMARK  status: ('A' for Active; 'I' for Inactive)
REMARK    1  A    between atoms: C_2  and  O_3 
REMARK    2  A    between atoms: C_2  and  C_4 
REMARK    3  A    between atoms: C_6  and  N_7 
REMARK       I    between atoms: N_7  and  C_8 
REMARK    4  A    between atoms: C_8  and  C_9 
REMARK    5  A    between atoms: C_12  and  C_13 
REMARK    6  A    between atoms: C_18  and  C_19 
ROOT
HETATM    1  C   UNL     1      -7.232   3.135 -30.946  1.00  0.00     0.096 C 
HETATM    2  C   UNL     1      -7.546   2.035 -31.723  1.00  0.00     0.138 C 
HETATM    3  N   UNL     1      -8.889   2.148 -32.009  1.00  0.00    -0.240 N 
HETATM    4  C   UNL     1      -9.648   1.185 -32.788  1.00  0.00     0.221 C 
HETATM    5  C   UNL     1      -8.703   0.242 -33.557  1.00  0.00     0.066 C 
HETATM    6  C   UNL     1      -7.548  -0.204 -32.655  1.00  0.00     0.118 C 
HETATM    7  N   UNL     1      -6.818   0.979 -32.181  1.00  0.00    -0.365 N 
HETATM    8  N   UNL     1      -9.497   3.128 -31.324  1.00  0.00    -0.181 NA
HETATM    9  C   UNL     1      -8.486   3.749 -30.709  1.00  0.00     0.160 C 
HETATM   10  H   UNL     1      -5.989   0.706 -31.646  1.00  0.00     0.161 HD
ENDROOT
BRANCH   1  11
HETATM   11  C   UNL     1      -5.944   3.574 -30.434  1.00  0.00     0.261 C 
HETATM   12  N   UNL     1      -5.648   4.887 -30.748  1.00  0.00    -0.323 N 
HETATM   13  H   UNL     1      -6.393   5.401 -31.207  1.00  0.00     0.169 HD
HETATM   14  O   UNL     1      -5.251   2.816 -29.765  1.00  0.00    -0.267 OA
BRANCH  12  15
HETATM   15  C   UNL     1      -4.489   5.617 -30.419  1.00  0.00     0.035 A 
HETATM   16  C   UNL     1      -3.288   5.536 -31.129  1.00  0.00     0.039 A 
HETATM   17  C   UNL     1      -2.164   6.286 -30.740  1.00  0.00    -0.028 A 
HETATM   18  C   UNL     1      -2.260   7.119 -29.616  1.00  0.00     0.010 A 
HETATM   19  C   UNL     1      -3.457   7.216 -28.911  1.00  0.00     0.003 A 
HETATM   20  C   UNL     1      -4.566   6.471 -29.313  1.00  0.00     0.029 A 
BRANCH  17  21
HETATM   21  C   UNL     1      -0.869   6.156 -31.514  1.00  0.00     0.147 C 
HETATM   22  C   UNL     1      -0.916   6.907 -32.836  1.00  0.00     0.044 C 
BRANCH  21  23
HETATM   23  O   UNL     1      -0.580   4.783 -31.773  1.00  0.00    -0.391 OA
HETATM   24  H   UNL     1      -1.392   4.391 -32.137  1.00  0.00     0.210 HD
ENDBRANCH  21  23
ENDBRANCH  17  21
ENDBRANCH  12  15
ENDBRANCH   1  11
BRANCH   4  25
HETATM   25  C   UNL     1     -10.587   1.865 -33.761  1.00  0.00     0.409 C 
HETATM   26  F   UNL     1     -11.720   2.322 -33.192  1.00  0.00    -0.169 F 
HETATM   27  F   UNL     1      -9.995   2.889 -34.416  1.00  0.00    -0.169 F 
HETATM   28  F   UNL     1     -10.978   0.972 -34.712  1.00  0.00    -0.169 F 
ENDBRANCH   4  25
BRANCH   6  29
HETATM   29  C   UNL     1      -6.590  -1.131 -33.375  1.00  0.00    -0.035 A 
HETATM   30  C   UNL     1      -7.054  -2.113 -34.266  1.00  0.00     0.009 A 
HETATM   31  C   UNL     1      -6.160  -2.968 -34.914  1.00  0.00     0.001 A 
HETATM   32  C   UNL     1      -4.792  -2.851 -34.682  1.00  0.00     0.000 A 
HETATM   33  C   UNL     1      -4.315  -1.878 -33.805  1.00  0.00     0.001 A 
HETATM   34  C   UNL     1      -5.208  -1.023 -33.156  1.00  0.00     0.009 A 
ENDBRANCH   6  29
TORSDOF 6
ENDMDL
MODEL 8
REMARK VINA RESULT:      -8.7      5.244      8.945
REMARK  6 active torsions:
REMARK  status: ('A' for Active; 'I' for Inactive)
REMARK    1  A    between atoms: C_2  and  O_3 
REMARK    2  A    between atoms: C_2  and  C_4 
REMARK    3  A    between atoms: C_6  and  N_7 
REMARK       I    between atoms: N_7  and  C_8 
REMARK    4  A    between atoms: C_8  and  C_9 
REMARK    5  A    between atoms: C_12  and  C_13 
REMARK    6  A    between atoms: C_18  and  C_19 
ROOT
HETATM    1  C   UNL     1      -5.706   2.773 -31.563  1.00  0.00     0.096 C 
HETATM    2  C   UNL     1      -5.103   3.928 -31.099  1.00  0.00     0.138 C 
HETATM    3  N   UNL     1      -6.107   4.666 -30.512  1.00  0.00    -0.240 N 
HETATM    4  C   UNL     1      -5.923   5.975 -29.909  1.00  0.00     0.221 C 
HETATM    5  C   UNL     1      -4.427   6.259 -29.675  1.00  0.00     0.066 C 
HETATM    6  C   UNL     1      -3.607   5.825 -30.895  1.00  0.00     0.118 C 
HETATM    7  N   UNL     1      -3.824   4.394 -31.142  1.00  0.00    -0.365 N 
HETATM    8  N   UNL     1      -7.332   4.162 -30.728  1.00  0.00    -0.181 NA
HETATM    9  C   UNL     1      -7.085   2.997 -31.334  1.00  0.00     0.160 C 
HETATM   10  H   UNL     1      -3.221   4.060 -31.898  1.00  0.00     0.161 HD
ENDROOT
BRANCH   1  11
HETATM   11  C   UNL     1      -5.111   1.601 -32.186  1.00  0.00     0.261 C 
HETATM   12  N   UNL     1      -6.045   0.681 -32.625  1.00  0.00    -0.323 N 
HETATM   13  H   UNL     1      -7.012   0.974 -32.544  1.00  0.00     0.169 HD
HETATM   14  O   UNL     1      -3.896   1.516 -32.314  1.00  0.00    -0.267 OA
BRANCH  12  15
HETATM   15  C   UNL     1      -5.812  -0.556 -33.256  1.00  0.00     0.035 A 
HETATM   16  C   UNL     1      -4.776  -1.427 -32.909  1.00  0.00     0.039 A 
HETATM   17  C   UNL     1      -4.593  -2.644 -33.589  1.00  0.00    -0.028 A 
HETATM   18  C   UNL     1      -5.466  -2.975 -34.634  1.00  0.00     0.010 A 
HETATM   19  C   UNL     1      -6.510  -2.119 -34.979  1.00  0.00     0.003 A 
HETATM   20  C   UNL     1      -6.683  -0.918 -34.291  1.00  0.00     0.029 A 
BRANCH  17  21
HETATM   21  C   UNL     1      -3.445  -3.554 -33.206  1.00  0.00     0.147 C 
HETATM   22  C   UNL     1      -3.774  -5.020 -33.443  1.00  0.00     0.044 C 
BRANCH  21  23
HETATM   23  O   UNL     1      -3.103  -3.374 -31.833  1.00  0.00    -0.391 OA
HETATM   24  H   UNL     1      -3.446  -2.502 -31.572  1.00  0.00     0.210 HD
ENDBRANCH  21  23
ENDBRANCH  17  21
ENDBRANCH  12  15
ENDBRANCH   1  11
BRANCH   4  25
HETATM   25  C   UNL     1      -6.673   6.102 -28.601  1.00  0.00     0.409 C 
HETATM   26  F   UNL     1      -7.962   6.465 -28.748  1.00  0.00    -0.169 F 
HETATM   27  F   UNL     1      -6.631   4.963 -27.871  1.00  0.00    -0.169 F 
HETATM   28  F   UNL     1      -6.094   7.070 -27.839  1.00  0.00    -0.169 F 
ENDBRANCH   4  25
BRANCH   6  29
HETATM   29  C   UNL     1      -2.126   6.084 -30.704  1.00  0.00    -0.035 A 
HETATM   30  C   UNL     1      -1.665   7.171 -29.942  1.00  0.00     0.009 A 
HETATM   31  C   UNL     1      -0.298   7.404 -29.785  1.00  0.00     0.001 A 
HETATM   32  C   UNL     1       0.627   6.552 -30.385  1.00  0.00     0.000 A 
HETATM   33  C   UNL     1       0.186   5.466 -31.139  1.00  0.00     0.001 A 
HETATM   34  C   UNL     1      -1.182   5.233 -31.298  1.00  0.00     0.009 A 
ENDBRANCH   6  29
TORSDOF 6
ENDMDL
MODEL 9
REMARK VINA RESULT:      -8.5      4.495      9.593
REMARK  6 active torsions:
REMARK  status: ('A' for Active; 'I' for Inactive)
REMARK    1  A    between atoms: C_2  and  O_3 
REMARK    2  A    between atoms: C_2  and  C_4 
REMARK    3  A    between atoms: C_6  and  N_7 
REMARK       I    between atoms: N_7  and  C_8 
REMARK    4  A    between atoms: C_8  and  C_9 
REMARK    5  A    between atoms: C_12  and  C_13 
REMARK    6  A    between atoms: C_18  and  C_19 
ROOT
HETATM    1  C   UNL     1     -10.737   1.321 -33.732  1.00  0.00     0.096 C 
HETATM    2  C   UNL     1     -11.469   2.493 -33.795  1.00  0.00     0.138 C 
HETATM    3  N   UNL     1     -12.760   2.147 -33.461  1.00  0.00    -0.240 N 
HETATM    4  C   UNL     1     -13.877   3.075 -33.424  1.00  0.00     0.221 C 
HETATM    5  C   UNL     1     -13.374   4.531 -33.433  1.00  0.00     0.066 C 
HETATM    6  C   UNL     1     -12.241   4.696 -34.451  1.00  0.00     0.118 C 
HETATM    7  N   UNL     1     -11.146   3.777 -34.111  1.00  0.00    -0.365 N 
HETATM    8  N   UNL     1     -12.948   0.822 -33.373  1.00  0.00    -0.181 NA
HETATM    9  C   UNL     1     -11.715   0.324 -33.501  1.00  0.00     0.160 C 
HETATM   10  H   UNL     1     -10.341   3.928 -34.725  1.00  0.00     0.161 HD
ENDROOT
BRANCH   1  11
HETATM   11  C   UNL     1      -9.308   1.109 -33.900  1.00  0.00     0.261 C 
HETATM   12  N   UNL     1      -8.872  -0.103 -33.397  1.00  0.00    -0.323 N 
HETATM   13  H   UNL     1      -9.603  -0.722 -33.064  1.00  0.00     0.169 HD
HETATM   14  O   UNL     1      -8.619   1.944 -34.474  1.00  0.00    -0.267 OA
BRANCH  12  15
HETATM   15  C   UNL     1      -7.560  -0.615 -33.386  1.00  0.00     0.035 A 
HETATM   16  C   UNL     1      -7.118  -1.647 -34.219  1.00  0.00     0.039 A 
HETATM   17  C   UNL     1      -5.795  -2.118 -34.150  1.00  0.00    -0.028 A 
HETATM   18  C   UNL     1      -4.917  -1.541 -33.222  1.00  0.00     0.010 A 
HETATM   19  C   UNL     1      -5.344  -0.503 -32.398  1.00  0.00     0.003 A 
HETATM   20  C   UNL     1      -6.658  -0.040 -32.483  1.00  0.00     0.029 A 
BRANCH  17  21
HETATM   21  C   UNL     1      -5.355  -3.257 -35.047  1.00  0.00     0.147 C 
HETATM   22  C   UNL     1      -6.420  -4.337 -35.163  1.00  0.00     0.044 C 
BRANCH  21  23
HETATM   23  O   UNL     1      -4.153  -3.844 -34.550  1.00  0.00    -0.391 OA
HETATM   24  H   UNL     1      -3.953  -4.600 -35.128  1.00  0.00     0.210 HD
ENDBRANCH  21  23
ENDBRANCH  17  21
ENDBRANCH  12  15
ENDBRANCH   1  11
BRANCH   4  25
HETATM   25  C   UNL     1     -14.754   2.851 -32.212  1.00  0.00     0.409 C 
HETATM   26  F   UNL     1     -15.446   1.694 -32.250  1.00  0.00    -0.169 F 
HETATM   27  F   UNL     1     -14.054   2.891 -31.055  1.00  0.00    -0.169 F 
HETATM   28  F   UNL     1     -15.684   3.842 -32.135  1.00  0.00    -0.169 F 
ENDBRANCH   4  25
BRANCH   6  29
HETATM   29  C   UNL     1     -11.713   6.116 -34.488  1.00  0.00    -0.035 A 
HETATM   30  C   UNL     1     -10.885   6.616 -33.469  1.00  0.00     0.009 A 
HETATM   31  C   UNL     1     -10.417   7.930 -33.511  1.00  0.00     0.001 A 
HETATM   32  C   UNL     1     -10.766   8.760 -34.574  1.00  0.00     0.000 A 
HETATM   33  C   UNL     1     -11.581   8.278 -35.596  1.00  0.00     0.001 A 
HETATM   34  C   UNL     1     -12.052   6.964 -35.554  1.00  0.00     0.009 A 
ENDBRANCH   6  29
TORSDOF 6
ENDMDL
MODEL 10
REMARK VINA RESULT:      -8.4      4.662      9.864
REMARK  6 active torsions:
REMARK  status: ('A' for Active; 'I' for Inactive)
REMARK    1  A    between atoms: C_2  and  O_3 
REMARK    2  A    between atoms: C_2  and  C_4 
REMARK    3  A    between atoms: C_6  and  N_7 
REMARK       I    between atoms: N_7  and  C_8 
REMARK    4  A    between atoms: C_8  and  C_9 
REMARK    5  A    between atoms: C_12  and  C_13 
REMARK    6  A    between atoms: C_18  and  C_19 
ROOT
HETATM    1  C   UNL     1      -6.361   2.828 -33.410  1.00  0.00     0.096 C 
HETATM    2  C   UNL     1      -7.704   2.824 -33.743  1.00  0.00     0.138 C 
HETATM    3  N   UNL     1      -8.113   1.513 -33.635  1.00  0.00    -0.240 N 
HETATM    4  C   UNL     1      -9.459   1.045 -33.920  1.00  0.00     0.221 C 
HETATM    5  C   UNL     1     -10.443   2.229 -33.987  1.00  0.00     0.066 C 
HETATM    6  C   UNL     1      -9.824   3.390 -34.773  1.00  0.00     0.118 C 
HETATM    7  N   UNL     1      -8.571   3.801 -34.127  1.00  0.00    -0.365 N 
HETATM    8  N   UNL     1      -7.101   0.655 -33.443  1.00  0.00    -0.181 NA
HETATM    9  C   UNL     1      -6.045   1.455 -33.270  1.00  0.00     0.160 C 
HETATM   10  H   UNL     1      -8.182   4.631 -34.582  1.00  0.00     0.161 HD
ENDROOT
BRANCH   1  11
HETATM   11  C   UNL     1      -5.442   3.946 -33.269  1.00  0.00     0.261 C 
HETATM   12  N   UNL     1      -4.123   3.557 -33.133  1.00  0.00    -0.323 N 
HETATM   13  H   UNL     1      -3.952   2.563 -33.240  1.00  0.00     0.169 HD
HETATM   14  O   UNL     1      -5.856   5.098 -33.313  1.00  0.00    -0.267 OA
BRANCH  12  15
HETATM   15  C   UNL     1      -2.990   4.377 -32.967  1.00  0.00     0.035 A 
HETATM   16  C   UNL     1      -2.351   4.587 -31.742  1.00  0.00     0.039 A 
HETATM   17  C   UNL     1      -1.228   5.428 -31.645  1.00  0.00    -0.028 A 
HETATM   18  C   UNL     1      -0.757   6.066 -32.800  1.00  0.00     0.010 A 
HETATM   19  C   UNL     1      -1.379   5.853 -34.027  1.00  0.00     0.003 A 
HETATM   20  C   UNL     1      -2.488   5.009 -34.110  1.00  0.00     0.029 A 
BRANCH  17  21
HETATM   21  C   UNL     1      -0.574   5.656 -30.298  1.00  0.00     0.147 C 
HETATM   22  C   UNL     1       0.441   6.788 -30.341  1.00  0.00     0.044 C 
BRANCH  21  23
HETATM   23  O   UNL     1       0.079   4.467 -29.854  1.00  0.00    -0.391 OA
HETATM   24  H   UNL     1       0.575   4.704 -29.052  1.00  0.00     0.210 HD
ENDBRANCH  21  23
ENDBRANCH  17  21
ENDBRANCH  12  15
ENDBRANCH   1  11
BRANCH   4  25
HETATM   25  C   UNL     1      -9.938   0.048 -32.887  1.00  0.00     0.409 C 
HETATM   26  F   UNL     1      -9.673   0.414 -31.617  1.00  0.00    -0.169 F 
HETATM   27  F   UNL     1     -11.263  -0.204 -32.990  1.00  0.00    -0.169 F 
HETATM   28  F   UNL     1      -9.302  -1.140 -33.076  1.00  0.00    -0.169 F 
ENDBRANCH   4  25
BRANCH   6  29
HETATM   29  C   UNL     1     -10.760   4.579 -34.860  1.00  0.00    -0.035 A 
HETATM   30  C   UNL     1     -12.147   4.433 -34.690  1.00  0.00     0.009 A 
HETATM   31  C   UNL     1     -12.997   5.536 -34.784  1.00  0.00     0.001 A 
HETATM   32  C   UNL     1     -12.472   6.800 -35.046  1.00  0.00     0.000 A 
HETATM   33  C   UNL     1     -11.098   6.962 -35.212  1.00  0.00     0.001 A 
HETATM   34  C   UNL     1     -10.246   5.860 -35.119  1.00  0.00     0.009 A 
ENDBRANCH   6  29
TORSDOF 6
ENDMDL
