MODEL 1
REMARK VINA RESULT:      -8.4      0.000      0.000
REMARK  4 active torsions:
REMARK  status: ('A' for Active; 'I' for Inactive)
REMARK    1  A    between atoms: C_2  and  C_3 
REMARK    2  A    between atoms: C_7  and  C_8 
REMARK    3  A    between atoms: C_8  and  N_9 
REMARK       I    between atoms: N_9  and  C_10 
REMARK       I    between atoms: C_10  and  N_11 
REMARK    4  A    between atoms: N_11  and  C_12 
ROOT
HETATM    1  N   UNL     1      -6.227   1.387 -32.976  1.00  0.00    -0.333 N 
HETATM    2  C   UNL     1      -6.041   0.017 -32.833  1.00  0.00     0.322 C 
HETATM    3  N   UNL     1      -5.730  -0.634 -34.003  1.00  0.00    -0.307 N 
HETATM    4  O   UNL     1      -6.111  -0.525 -31.731  1.00  0.00    -0.247 OA
HETATM    5  C   UNL     1      -6.639   2.047 -34.209  1.00  0.00     0.155 C 
HETATM    6  H   UNL     1      -5.338  -0.050 -34.730  1.00  0.00     0.170 HD
ENDROOT
BRANCH   1   7
HETATM    7  C   UNL     1      -6.151   2.216 -31.780  1.00  0.00     0.185 C 
BRANCH   7   8
HETATM    8  C   UNL     1      -4.831   2.878 -31.680  1.00  0.00     0.047 A 
HETATM    9  N   UNL     1      -3.717   2.205 -31.260  1.00  0.00    -0.280 N 
HETATM   10  N   UNL     1      -2.600   2.950 -31.287  1.00  0.00    -0.178 NA
HETATM   11  H   UNL     1      -3.664   1.237 -30.950  1.00  0.00     0.189 HD
HETATM   12  C   UNL     1      -3.001   4.144 -31.746  1.00  0.00     0.064 A 
HETATM   13  C   UNL     1      -4.398   4.145 -32.001  1.00  0.00     0.058 A 
BRANCH  12  14
HETATM   14  C   UNL     1      -2.013   5.274 -31.988  1.00  0.00    -0.005 C 
HETATM   15  C   UNL     1      -1.504   5.204 -33.442  1.00  0.00     0.021 C 
HETATM   16  C   UNL     1      -0.795   5.194 -31.043  1.00  0.00     0.021 C 
HETATM   17  C   UNL     1      -2.688   6.643 -31.764  1.00  0.00     0.021 C 
ENDBRANCH  12  14
ENDBRANCH   7   8
ENDBRANCH   1   7
BRANCH   3  18
HETATM   18  C   UNL     1      -5.538  -2.025 -34.190  1.00  0.00     0.064 A 
HETATM   19  C   UNL     1      -4.360  -2.616 -33.696  1.00  0.00     0.099 A 
HETATM   20 CL   UNL     1      -3.177  -1.663 -32.863  1.00  0.00    -0.079 Cl
HETATM   21  C   UNL     1      -4.137  -3.986 -33.858  1.00  0.00     0.143 A 
HETATM   22  F   UNL     1      -3.024  -4.558 -33.376  1.00  0.00    -0.204 F 
HETATM   23  C   UNL     1      -5.061  -4.784 -34.517  1.00  0.00     0.086 A 
HETATM   24  C   UNL     1      -6.213  -4.196 -35.018  1.00  0.00     0.121 A 
HETATM   25  F   UNL     1      -7.104  -4.956 -35.668  1.00  0.00    -0.206 F 
HETATM   26  C   UNL     1      -6.460  -2.833 -34.864  1.00  0.00     0.073 A 
ENDBRANCH   3  18
TORSDOF 4
ENDMDL
MODEL 2
REMARK VINA RESULT:      -8.3      1.516      2.437
REMARK  4 active torsions:
REMARK  status: ('A' for Active; 'I' for Inactive)
REMARK    1  A    between atoms: C_2  and  C_3 
REMARK    2  A    between atoms: C_7  and  C_8 
REMARK    3  A    between atoms: C_8  and  N_9 
REMARK       I    between atoms: N_9  and  C_10 
REMARK       I    between atoms: C_10  and  N_11 
REMARK    4  A    between atoms: N_11  and  C_12 
ROOT
HETATM    1  N   UNL     1      -5.121   1.587 -32.122  1.00  0.00    -0.333 N 
HETATM    2  C   UNL     1      -5.044   0.199 -32.156  1.00  0.00     0.322 C 
HETATM    3  N   UNL     1      -5.014  -0.333 -33.423  1.00  0.00    -0.307 N 
HETATM    4  O   UNL     1      -4.965  -0.460 -31.120  1.00  0.00    -0.247 OA
HETATM    5  C   UNL     1      -5.683   2.415 -33.183  1.00  0.00     0.155 C 
HETATM    6  H   UNL     1      -4.706   0.301 -34.149  1.00  0.00     0.170 HD
ENDROOT
BRANCH   1   7
HETATM    7  C   UNL     1      -4.751   2.263 -30.887  1.00  0.00     0.185 C 
BRANCH   7   8
HETATM    8  C   UNL     1      -3.962   3.484 -31.169  1.00  0.00     0.047 A 
HETATM    9  N   UNL     1      -4.282   4.693 -30.618  1.00  0.00    -0.280 N 
HETATM   10  N   UNL     1      -3.423   5.673 -30.940  1.00  0.00    -0.178 NA
HETATM   11  H   UNL     1      -5.073   4.902 -30.012  1.00  0.00     0.189 HD
HETATM   12  C   UNL     1      -2.510   5.078 -31.722  1.00  0.00     0.064 A 
HETATM   13  C   UNL     1      -2.813   3.702 -31.896  1.00  0.00     0.058 A 
BRANCH  12  14
HETATM   14  C   UNL     1      -1.308   5.838 -32.258  1.00  0.00    -0.005 C 
HETATM   15  C   UNL     1      -0.033   5.353 -31.538  1.00  0.00     0.021 C 
HETATM   16  C   UNL     1      -1.438   7.361 -32.040  1.00  0.00     0.021 C 
HETATM   17  C   UNL     1      -1.144   5.597 -33.773  1.00  0.00     0.021 C 
ENDBRANCH  12  14
ENDBRANCH   7   8
ENDBRANCH   1   7
BRANCH   3  18
HETATM   18  C   UNL     1      -4.993  -1.703 -33.782  1.00  0.00     0.064 A 
HETATM   19  C   UNL     1      -6.087  -2.229 -34.496  1.00  0.00     0.099 A 
HETATM   20 CL   UNL     1      -7.421  -1.216 -34.939  1.00  0.00    -0.079 Cl
HETATM   21  C   UNL     1      -6.102  -3.575 -34.871  1.00  0.00     0.143 A 
HETATM   22  F   UNL     1      -7.133  -4.078 -35.565  1.00  0.00    -0.204 F 
HETATM   23  C   UNL     1      -5.052  -4.418 -34.537  1.00  0.00     0.086 A 
HETATM   24  C   UNL     1      -3.984  -3.902 -33.818  1.00  0.00     0.121 A 
HETATM   25  F   UNL     1      -2.972  -4.711 -33.479  1.00  0.00    -0.206 F 
HETATM   26  C   UNL     1      -3.943  -2.561 -33.438  1.00  0.00     0.073 A 
ENDBRANCH   3  18
TORSDOF 4
ENDMDL
MODEL 3
REMARK VINA RESULT:      -8.1      3.171      5.868
REMARK  4 active torsions:
REMARK  status: ('A' for Active; 'I' for Inactive)
REMARK    1  A    between atoms: C_2  and  C_3 
REMARK    2  A    between atoms: C_7  and  C_8 
REMARK    3  A    between atoms: C_8  and  N_9 
REMARK       I    between atoms: N_9  and  C_10 
REMARK       I    between atoms: C_10  and  N_11 
REMARK    4  A    between atoms: N_11  and  C_12 
ROOT
HETATM    1  N   UNL     1      -6.500   1.597 -33.356  1.00  0.00    -0.333 N 
HETATM    2  C   UNL     1      -6.378   0.424 -34.092  1.00  0.00     0.322 C 
HETATM    3  N   UNL     1      -5.990  -0.667 -33.353  1.00  0.00    -0.307 N 
HETATM    4  O   UNL     1      -6.649   0.394 -35.292  1.00  0.00    -0.247 OA
HETATM    5  C   UNL     1      -5.786   1.880 -32.116  1.00  0.00     0.155 C 
HETATM    6  H   UNL     1      -6.170  -0.601 -32.359  1.00  0.00     0.170 HD
ENDROOT
BRANCH   1   7
HETATM    7  C   UNL     1      -7.281   2.686 -33.927  1.00  0.00     0.185 C 
BRANCH   7   8
HETATM    8  C   UNL     1      -8.724   2.502 -33.651  1.00  0.00     0.047 A 
HETATM    9  N   UNL     1      -9.289   2.892 -32.469  1.00  0.00    -0.280 N 
HETATM   10  N   UNL     1     -10.617   2.699 -32.420  1.00  0.00    -0.178 NA
HETATM   11  H   UNL     1      -8.814   3.301 -31.666  1.00  0.00     0.189 HD
HETATM   12  C   UNL     1     -10.925   2.171 -33.613  1.00  0.00     0.064 A 
HETATM   13  C   UNL     1      -9.764   2.025 -34.417  1.00  0.00     0.058 A 
BRANCH  12  14
HETATM   14  C   UNL     1     -12.363   1.857 -33.994  1.00  0.00    -0.005 C 
HETATM   15  C   UNL     1     -12.545   2.060 -35.512  1.00  0.00     0.021 C 
HETATM   16  C   UNL     1     -13.372   2.767 -33.260  1.00  0.00     0.021 C 
HETATM   17  C   UNL     1     -12.712   0.396 -33.643  1.00  0.00     0.021 C 
ENDBRANCH  12  14
ENDBRANCH   7   8
ENDBRANCH   1   7
BRANCH   3  18
HETATM   18  C   UNL     1      -5.728  -1.977 -33.824  1.00  0.00     0.064 A 
HETATM   19  C   UNL     1      -4.494  -2.574 -33.502  1.00  0.00     0.099 A 
HETATM   20 CL   UNL     1      -3.329  -1.729 -32.538  1.00  0.00    -0.079 Cl
HETATM   21  C   UNL     1      -4.201  -3.867 -33.945  1.00  0.00     0.143 A 
HETATM   22  F   UNL     1      -3.034  -4.448 -33.629  1.00  0.00    -0.204 F 
HETATM   23  C   UNL     1      -5.108  -4.578 -34.718  1.00  0.00     0.086 A 
HETATM   24  C   UNL     1      -6.315  -3.980 -35.048  1.00  0.00     0.121 A 
HETATM   25  F   UNL     1      -7.192  -4.653 -35.804  1.00  0.00    -0.206 F 
HETATM   26  C   UNL     1      -6.633  -2.694 -34.613  1.00  0.00     0.073 A 
ENDBRANCH   3  18
TORSDOF 4
ENDMDL
MODEL 4
REMARK VINA RESULT:      -7.8      1.723      2.139
REMARK  4 active torsions:
REMARK  status: ('A' for Active; 'I' for Inactive)
REMARK    1  A    between atoms: C_2  and  C_3 
REMARK    2  A    between atoms: C_7  and  C_8 
REMARK    3  A    between atoms: C_8  and  N_9 
REMARK       I    between atoms: N_9  and  C_10 
REMARK       I    between atoms: C_10  and  N_11 
REMARK    4  A    between atoms: N_11  and  C_12 
ROOT
HETATM    1  N   UNL     1      -6.523   1.682 -32.762  1.00  0.00    -0.333 N 
HETATM    2  C   UNL     1      -6.273   0.629 -33.634  1.00  0.00     0.322 C 
HETATM    3  N   UNL     1      -6.232  -0.605 -33.029  1.00  0.00    -0.307 N 
HETATM    4  O   UNL     1      -6.151   0.817 -34.844  1.00  0.00    -0.247 OA
HETATM    5  C   UNL     1      -6.217   1.674 -31.337  1.00  0.00     0.155 C 
HETATM    6  H   UNL     1      -6.710  -0.665 -32.139  1.00  0.00     0.170 HD
ENDROOT
BRANCH   1   7
HETATM    7  C   UNL     1      -6.989   2.942 -33.327  1.00  0.00     0.185 C 
BRANCH   7   8
HETATM    8  C   UNL     1      -5.876   3.910 -33.449  1.00  0.00     0.047 A 
HETATM    9  N   UNL     1      -6.086   5.260 -33.407  1.00  0.00    -0.280 N 
HETATM   10  N   UNL     1      -4.955   5.980 -33.475  1.00  0.00    -0.178 NA
HETATM   11  H   UNL     1      -6.980   5.741 -33.326  1.00  0.00     0.189 HD
HETATM   12  C   UNL     1      -3.978   5.067 -33.559  1.00  0.00     0.064 A 
HETATM   13  C   UNL     1      -4.512   3.751 -33.551  1.00  0.00     0.058 A 
BRANCH  12  14
HETATM   14  C   UNL     1      -2.512   5.473 -33.593  1.00  0.00    -0.005 C 
HETATM   15  C   UNL     1      -1.761   4.772 -32.443  1.00  0.00     0.021 C 
HETATM   16  C   UNL     1      -2.328   6.997 -33.435  1.00  0.00     0.021 C 
HETATM   17  C   UNL     1      -1.866   5.062 -34.932  1.00  0.00     0.021 C 
ENDBRANCH  12  14
ENDBRANCH   7   8
ENDBRANCH   1   7
BRANCH   3  18
HETATM   18  C   UNL     1      -5.944  -1.852 -33.636  1.00  0.00     0.064 A 
HETATM   19  C   UNL     1      -4.669  -2.417 -33.443  1.00  0.00     0.099 A 
HETATM   20 CL   UNL     1      -3.483  -1.611 -32.471  1.00  0.00    -0.079 Cl
HETATM   21  C   UNL     1      -4.350  -3.649 -34.022  1.00  0.00     0.143 A 
HETATM   22  F   UNL     1      -3.143  -4.201 -33.829  1.00  0.00    -0.204 F 
HETATM   23  C   UNL     1      -5.273  -4.328 -34.805  1.00  0.00     0.086 A 
HETATM   24  C   UNL     1      -6.522  -3.760 -35.008  1.00  0.00     0.121 A 
HETATM   25  F   UNL     1      -7.414  -4.401 -35.773  1.00  0.00    -0.206 F 
HETATM   26  C   UNL     1      -6.866  -2.536 -34.436  1.00  0.00     0.073 A 
ENDBRANCH   3  18
TORSDOF 4
ENDMDL
MODEL 5
REMARK VINA RESULT:      -7.6      1.870      2.833
REMARK  4 active torsions:
REMARK  status: ('A' for Active; 'I' for Inactive)
REMARK    1  A    between atoms: C_2  and  C_3 
REMARK    2  A    between atoms: C_7  and  C_8 
REMARK    3  A    between atoms: C_8  and  N_9 
REMARK       I    between atoms: N_9  and  C_10 
REMARK       I    between atoms: C_10  and  N_11 
REMARK    4  A    between atoms: N_11  and  C_12 
ROOT
HETATM    1  N   UNL     1      -6.218   3.130 -32.476  1.00  0.00    -0.333 N 
HETATM    2  C   UNL     1      -5.909   1.783 -32.325  1.00  0.00     0.322 C 
HETATM    3  N   UNL     1      -5.730   1.110 -33.509  1.00  0.00    -0.307 N 
HETATM    4  O   UNL     1      -5.770   1.282 -31.210  1.00  0.00    -0.247 OA
HETATM    5  C   UNL     1      -6.859   3.711 -33.650  1.00  0.00     0.155 C 
HETATM    6  H   UNL     1      -5.499   1.691 -34.305  1.00  0.00     0.170 HD
ENDROOT
BRANCH   1   7
HETATM    7  C   UNL     1      -6.024   4.010 -31.331  1.00  0.00     0.185 C 
BRANCH   7   8
HETATM    8  C   UNL     1      -4.736   4.733 -31.432  1.00  0.00     0.047 A 
HETATM    9  N   UNL     1      -4.207   5.416 -30.373  1.00  0.00    -0.280 N 
HETATM   10  N   UNL     1      -3.008   5.961 -30.632  1.00  0.00    -0.178 NA
HETATM   11  H   UNL     1      -4.621   5.537 -29.451  1.00  0.00     0.189 HD
HETATM   12  C   UNL     1      -2.747   5.614 -31.901  1.00  0.00     0.064 A 
HETATM   13  C   UNL     1      -3.809   4.845 -32.444  1.00  0.00     0.058 A 
BRANCH  12  14
HETATM   14  C   UNL     1      -1.433   5.986 -32.571  1.00  0.00    -0.005 C 
HETATM   15  C   UNL     1      -1.360   7.518 -32.735  1.00  0.00     0.021 C 
HETATM   16  C   UNL     1      -1.291   5.342 -33.968  1.00  0.00     0.021 C 
HETATM   17  C   UNL     1      -0.236   5.519 -31.719  1.00  0.00     0.021 C 
ENDBRANCH  12  14
ENDBRANCH   7   8
ENDBRANCH   1   7
BRANCH   3  18
HETATM   18  C   UNL     1      -5.466  -0.271 -33.684  1.00  0.00     0.064 A 
HETATM   19  C   UNL     1      -6.348  -1.031 -34.475  1.00  0.00     0.099 A 
HETATM   20 CL   UNL     1      -7.719  -0.290 -35.230  1.00  0.00    -0.079 Cl
HETATM   21  C   UNL     1      -6.117  -2.395 -34.674  1.00  0.00     0.143 A 
HETATM   22  F   UNL     1      -6.945  -3.123 -35.439  1.00  0.00    -0.204 F 
HETATM   23  C   UNL     1      -5.029  -3.026 -34.088  1.00  0.00     0.086 A 
HETATM   24  C   UNL     1      -4.171  -2.278 -33.295  1.00  0.00     0.121 A 
HETATM   25  F   UNL     1      -3.126  -2.881 -32.714  1.00  0.00    -0.206 F 
HETATM   26  C   UNL     1      -4.377  -0.915 -33.086  1.00  0.00     0.073 A 
ENDBRANCH   3  18
TORSDOF 4
ENDMDL
MODEL 6
REMARK VINA RESULT:      -7.5     14.548     16.364
REMARK  4 active torsions:
REMARK  status: ('A' for Active; 'I' for Inactive)
REMARK    1  A    between atoms: C_2  and  C_3 
REMARK    2  A    between atoms: C_7  and  C_8 
REMARK    3  A    between atoms: C_8  and  N_9 
REMARK       I    between atoms: N_9  and  C_10 
REMARK       I    between atoms: C_10  and  N_11 
REMARK    4  A    between atoms: N_11  and  C_12 
ROOT
HETATM    1  N   UNL     1      -4.428 -12.499 -37.738  1.00  0.00    -0.333 N 
HETATM    2  C   UNL     1      -5.468 -12.669 -38.645  1.00  0.00     0.322 C 
HETATM    3  N   UNL     1      -6.703 -12.826 -38.063  1.00  0.00    -0.307 N 
HETATM    4  O   UNL     1      -5.268 -12.630 -39.858  1.00  0.00    -0.247 OA
HETATM    5  C   UNL     1      -4.435 -12.985 -36.363  1.00  0.00     0.155 C 
HETATM    6  H   UNL     1      -6.783 -12.467 -37.120  1.00  0.00     0.170 HD
ENDROOT
BRANCH   1   7
HETATM    7  C   UNL     1      -3.181 -11.926 -38.226  1.00  0.00     0.185 C 
BRANCH   7   8
HETATM    8  C   UNL     1      -2.196 -12.988 -38.535  1.00  0.00     0.047 A 
HETATM    9  N   UNL     1      -2.086 -13.527 -39.786  1.00  0.00    -0.280 N 
HETATM   10  N   UNL     1      -1.102 -14.435 -39.892  1.00  0.00    -0.178 NA
HETATM   11  H   UNL     1      -2.653 -13.308 -40.603  1.00  0.00     0.189 HD
HETATM   12  C   UNL     1      -0.551 -14.481 -38.671  1.00  0.00     0.064 A 
HETATM   13  C   UNL     1      -1.212 -13.591 -37.784  1.00  0.00     0.058 A 
BRANCH  12  14
HETATM   14  C   UNL     1       0.657 -15.356 -38.377  1.00  0.00    -0.005 C 
HETATM   15  C   UNL     1       1.946 -14.554 -38.646  1.00  0.00     0.021 C 
HETATM   16  C   UNL     1       0.684 -16.625 -39.257  1.00  0.00     0.021 C 
HETATM   17  C   UNL     1       0.654 -15.811 -36.903  1.00  0.00     0.021 C 
ENDBRANCH  12  14
ENDBRANCH   7   8
ENDBRANCH   1   7
BRANCH   3  18
HETATM   18  C   UNL     1      -7.937 -13.072 -38.713  1.00  0.00     0.064 A 
HETATM   19  C   UNL     1      -8.437 -14.388 -38.732  1.00  0.00     0.099 A 
HETATM   20 CL   UNL     1      -7.569 -15.675 -37.963  1.00  0.00    -0.079 Cl
HETATM   21  C   UNL     1      -9.653 -14.670 -39.361  1.00  0.00     0.143 A 
HETATM   22  F   UNL     1     -10.144 -15.918 -39.369  1.00  0.00    -0.204 F 
HETATM   23  C   UNL     1     -10.380 -13.667 -39.987  1.00  0.00     0.086 A 
HETATM   24  C   UNL     1      -9.876 -12.375 -39.981  1.00  0.00     0.121 A 
HETATM   25  F   UNL     1     -10.563 -11.403 -40.595  1.00  0.00    -0.206 F 
HETATM   26  C   UNL     1      -8.668 -12.068 -39.356  1.00  0.00     0.073 A 
ENDBRANCH   3  18
TORSDOF 4
ENDMDL
MODEL 7
REMARK VINA RESULT:      -7.4      2.921      4.601
REMARK  4 active torsions:
REMARK  status: ('A' for Active; 'I' for Inactive)
REMARK    1  A    between atoms: C_2  and  C_3 
REMARK    2  A    between atoms: C_7  and  C_8 
REMARK    3  A    between atoms: C_8  and  N_9 
REMARK       I    between atoms: N_9  and  C_10 
REMARK       I    between atoms: C_10  and  N_11 
REMARK    4  A    between atoms: N_11  and  C_12 
ROOT
HETATM    1  N   UNL     1      -6.023   1.799 -32.548  1.00  0.00    -0.333 N 
HETATM    2  C   UNL     1      -6.031   0.409 -32.525  1.00  0.00     0.322 C 
HETATM    3  N   UNL     1      -5.426  -0.176 -33.611  1.00  0.00    -0.307 N 
HETATM    4  O   UNL     1      -6.505  -0.210 -31.573  1.00  0.00    -0.247 OA
HETATM    5  C   UNL     1      -5.947   2.611 -33.757  1.00  0.00     0.155 C 
HETATM    6  H   UNL     1      -4.765   0.411 -34.104  1.00  0.00     0.170 HD
ENDROOT
BRANCH   1   7
HETATM    7  C   UNL     1      -6.253   2.506 -31.295  1.00  0.00     0.185 C 
BRANCH   7   8
HETATM    8  C   UNL     1      -7.661   2.951 -31.190  1.00  0.00     0.047 A 
HETATM    9  N   UNL     1      -8.611   2.195 -30.561  1.00  0.00    -0.280 N 
HETATM   10  N   UNL     1      -9.817   2.783 -30.513  1.00  0.00    -0.178 NA
HETATM   11  H   UNL     1      -8.487   1.275 -30.143  1.00  0.00     0.189 HD
HETATM   12  C   UNL     1      -9.642   3.962 -31.126  1.00  0.00     0.064 A 
HETATM   13  C   UNL     1      -8.302   4.107 -31.572  1.00  0.00     0.058 A 
BRANCH  12  14
HETATM   14  C   UNL     1     -10.770   4.977 -31.232  1.00  0.00    -0.005 C 
HETATM   15  C   UNL     1     -10.957   5.381 -32.708  1.00  0.00     0.021 C 
HETATM   16  C   UNL     1     -10.482   6.254 -30.413  1.00  0.00     0.021 C 
HETATM   17  C   UNL     1     -12.092   4.377 -30.710  1.00  0.00     0.021 C 
ENDBRANCH  12  14
ENDBRANCH   7   8
ENDBRANCH   1   7
BRANCH   3  18
HETATM   18  C   UNL     1      -5.325  -1.559 -33.900  1.00  0.00     0.064 A 
HETATM   19  C   UNL     1      -4.229  -2.276 -33.386  1.00  0.00     0.099 A 
HETATM   20 CL   UNL     1      -3.037  -1.486 -32.407  1.00  0.00    -0.079 Cl
HETATM   21  C   UNL     1      -4.097  -3.643 -33.645  1.00  0.00     0.143 A 
HETATM   22  F   UNL     1      -3.063  -4.336 -33.145  1.00  0.00    -0.204 F 
HETATM   23  C   UNL     1      -5.031  -4.313 -34.423  1.00  0.00     0.086 A 
HETATM   24  C   UNL     1      -6.101  -3.600 -34.943  1.00  0.00     0.121 A 
HETATM   25  F   UNL     1      -7.000  -4.235 -35.706  1.00  0.00    -0.206 F 
HETATM   26  C   UNL     1      -6.257  -2.237 -34.693  1.00  0.00     0.073 A 
ENDBRANCH   3  18
TORSDOF 4
ENDMDL
MODEL 8
REMARK VINA RESULT:      -7.4      3.455      5.274
REMARK  4 active torsions:
REMARK  status: ('A' for Active; 'I' for Inactive)
REMARK    1  A    between atoms: C_2  and  C_3 
REMARK    2  A    between atoms: C_7  and  C_8 
REMARK    3  A    between atoms: C_8  and  N_9 
REMARK       I    between atoms: N_9  and  C_10 
REMARK       I    between atoms: C_10  and  N_11 
REMARK    4  A    between atoms: N_11  and  C_12 
ROOT
HETATM    1  N   UNL     1      -3.638   5.196 -31.188  1.00  0.00    -0.333 N 
HETATM    2  C   UNL     1      -3.412   3.922 -31.694  1.00  0.00     0.322 C 
HETATM    3  N   UNL     1      -4.526   3.117 -31.714  1.00  0.00    -0.307 N 
HETATM    4  O   UNL     1      -2.307   3.592 -32.123  1.00  0.00    -0.247 OA
HETATM    5  C   UNL     1      -4.699   5.543 -30.249  1.00  0.00     0.155 C 
HETATM    6  H   UNL     1      -5.412   3.608 -31.700  1.00  0.00     0.170 HD
ENDROOT
BRANCH   1   7
HETATM    7  C   UNL     1      -2.666   6.237 -31.494  1.00  0.00     0.185 C 
BRANCH   7   8
HETATM    8  C   UNL     1      -1.742   6.449 -30.356  1.00  0.00     0.047 A 
HETATM    9  N   UNL     1      -0.790   5.529 -30.019  1.00  0.00    -0.280 N 
HETATM   10  N   UNL     1      -0.009   5.916 -28.998  1.00  0.00    -0.178 NA
HETATM   11  H   UNL     1      -0.628   4.623 -30.456  1.00  0.00     0.189 HD
HETATM   12  C   UNL     1      -0.465   7.132 -28.666  1.00  0.00     0.064 A 
HETATM   13  C   UNL     1      -1.559   7.505 -29.492  1.00  0.00     0.058 A 
BRANCH  12  14
HETATM   14  C   UNL     1       0.198   7.960 -27.577  1.00  0.00    -0.005 C 
HETATM   15  C   UNL     1      -0.740   9.114 -27.169  1.00  0.00     0.021 C 
HETATM   16  C   UNL     1       1.540   8.567 -28.043  1.00  0.00     0.021 C 
HETATM   17  C   UNL     1       0.487   7.092 -26.334  1.00  0.00     0.021 C 
ENDBRANCH  12  14
ENDBRANCH   7   8
ENDBRANCH   1   7
BRANCH   3  18
HETATM   18  C   UNL     1      -4.604   1.762 -32.116  1.00  0.00     0.064 A 
HETATM   19  C   UNL     1      -5.462   1.422 -33.179  1.00  0.00     0.099 A 
HETATM   20 CL   UNL     1      -6.392   2.640 -33.987  1.00  0.00    -0.079 Cl
HETATM   21  C   UNL     1      -5.562   0.095 -33.607  1.00  0.00     0.143 A 
HETATM   22  F   UNL     1      -6.366  -0.233 -34.629  1.00  0.00    -0.204 F 
HETATM   23  C   UNL     1      -4.832  -0.909 -32.987  1.00  0.00     0.086 A 
HETATM   24  C   UNL     1      -4.001  -0.574 -31.929  1.00  0.00     0.121 A 
HETATM   25  F   UNL     1      -3.303  -1.539 -31.316  1.00  0.00    -0.206 F 
HETATM   26  C   UNL     1      -3.880   0.743 -31.488  1.00  0.00     0.073 A 
ENDBRANCH   3  18
TORSDOF 4
ENDMDL
MODEL 9
REMARK VINA RESULT:      -7.1      3.346      5.059
REMARK  4 active torsions:
REMARK  status: ('A' for Active; 'I' for Inactive)
REMARK    1  A    between atoms: C_2  and  C_3 
REMARK    2  A    between atoms: C_7  and  C_8 
REMARK    3  A    between atoms: C_8  and  N_9 
REMARK       I    between atoms: N_9  and  C_10 
REMARK       I    between atoms: C_10  and  N_11 
REMARK    4  A    between atoms: N_11  and  C_12 
ROOT
HETATM    1  N   UNL     1      -3.221   5.131 -32.361  1.00  0.00    -0.333 N 
HETATM    2  C   UNL     1      -3.413   3.765 -32.184  1.00  0.00     0.322 C 
HETATM    3  N   UNL     1      -4.676   3.328 -32.503  1.00  0.00    -0.307 N 
HETATM    4  O   UNL     1      -2.494   3.034 -31.818  1.00  0.00    -0.247 OA
HETATM    5  C   UNL     1      -4.280   6.133 -32.315  1.00  0.00     0.155 C 
HETATM    6  H   UNL     1      -5.195   3.929 -33.131  1.00  0.00     0.170 HD
ENDROOT
BRANCH   1   7
HETATM    7  C   UNL     1      -1.854   5.624 -32.453  1.00  0.00     0.185 C 
BRANCH   7   8
HETATM    8  C   UNL     1      -1.338   6.005 -31.118  1.00  0.00     0.047 A 
HETATM    9  N   UNL     1      -0.628   5.131 -30.343  1.00  0.00    -0.280 N 
HETATM   10  N   UNL     1      -0.194   5.668 -29.191  1.00  0.00    -0.178 NA
HETATM   11  H   UNL     1      -0.408   4.160 -30.555  1.00  0.00     0.189 HD
HETATM   12  C   UNL     1      -0.632   6.935 -29.223  1.00  0.00     0.064 A 
HETATM   13  C   UNL     1      -1.361   7.188 -30.415  1.00  0.00     0.058 A 
BRANCH  12  14
HETATM   14  C   UNL     1      -0.294   7.920 -28.115  1.00  0.00    -0.005 C 
HETATM   15  C   UNL     1      -0.664   7.301 -26.752  1.00  0.00     0.021 C 
HETATM   16  C   UNL     1      -1.061   9.251 -28.267  1.00  0.00     0.021 C 
HETATM   17  C   UNL     1       1.213   8.247 -28.119  1.00  0.00     0.021 C 
ENDBRANCH  12  14
ENDBRANCH   7   8
ENDBRANCH   1   7
BRANCH   3  18
HETATM   18  C   UNL     1      -5.191   2.014 -32.377  1.00  0.00     0.064 A 
HETATM   19  C   UNL     1      -5.623   1.579 -31.110  1.00  0.00     0.099 A 
HETATM   20 CL   UNL     1      -5.543   2.634 -29.738  1.00  0.00    -0.079 Cl
HETATM   21  C   UNL     1      -6.141   0.291 -30.947  1.00  0.00     0.143 A 
HETATM   22  F   UNL     1      -6.570  -0.125 -29.746  1.00  0.00    -0.204 F 
HETATM   23  C   UNL     1      -6.224  -0.584 -32.021  1.00  0.00     0.086 A 
HETATM   24  C   UNL     1      -5.781  -0.158 -33.264  1.00  0.00     0.121 A 
HETATM   25  F   UNL     1      -5.844  -1.000 -34.304  1.00  0.00    -0.206 F 
HETATM   26  C   UNL     1      -5.266   1.124 -33.453  1.00  0.00     0.073 A 
ENDBRANCH   3  18
TORSDOF 4
ENDMDL
MODEL 10
REMARK VINA RESULT:      -7.1      4.367      8.294
REMARK  4 active torsions:
REMARK  status: ('A' for Active; 'I' for Inactive)
REMARK    1  A    between atoms: C_2  and  C_3 
REMARK    2  A    between atoms: C_7  and  C_8 
REMARK    3  A    between atoms: C_8  and  N_9 
REMARK       I    between atoms: N_9  and  C_10 
REMARK       I    between atoms: C_10  and  N_11 
REMARK    4  A    between atoms: N_11  and  C_12 
ROOT
HETATM    1  N   UNL     1      -6.728   4.595 -30.742  1.00  0.00    -0.333 N 
HETATM    2  C   UNL     1      -5.859   5.266 -31.595  1.00  0.00     0.322 C 
HETATM    3  N   UNL     1      -4.594   5.441 -31.088  1.00  0.00    -0.307 N 
HETATM    4  O   UNL     1      -6.215   5.616 -32.720  1.00  0.00    -0.247 OA
HETATM    5  C   UNL     1      -6.606   4.562 -29.289  1.00  0.00     0.155 C 
HETATM    6  H   UNL     1      -4.332   4.798 -30.352  1.00  0.00     0.170 HD
ENDROOT
BRANCH   1   7
HETATM    7  C   UNL     1      -7.929   4.002 -31.314  1.00  0.00     0.185 C 
BRANCH   7   8
HETATM    8  C   UNL     1      -7.658   2.634 -31.810  1.00  0.00     0.047 A 
HETATM    9  N   UNL     1      -8.105   1.525 -31.147  1.00  0.00    -0.280 N 
HETATM   10  N   UNL     1      -7.814   0.373 -31.773  1.00  0.00    -0.178 NA
HETATM   11  H   UNL     1      -8.617   1.499 -30.267  1.00  0.00     0.189 HD
HETATM   12  C   UNL     1      -7.162   0.748 -32.883  1.00  0.00     0.064 A 
HETATM   13  C   UNL     1      -7.037   2.161 -32.944  1.00  0.00     0.058 A 
BRANCH  12  14
HETATM   14  C   UNL     1      -6.704  -0.269 -33.916  1.00  0.00    -0.005 C 
HETATM   15  C   UNL     1      -7.001   0.271 -35.330  1.00  0.00     0.021 C 
HETATM   16  C   UNL     1      -7.424  -1.626 -33.755  1.00  0.00     0.021 C 
HETATM   17  C   UNL     1      -5.189  -0.528 -33.791  1.00  0.00     0.021 C 
ENDBRANCH  12  14
ENDBRANCH   7   8
ENDBRANCH   1   7
BRANCH   3  18
HETATM   18  C   UNL     1      -3.513   6.129 -31.690  1.00  0.00     0.064 A 
HETATM   19  C   UNL     1      -2.682   5.428 -32.585  1.00  0.00     0.099 A 
HETATM   20 CL   UNL     1      -2.987   3.763 -32.953  1.00  0.00    -0.079 Cl
HETATM   21  C   UNL     1      -1.607   6.074 -33.202  1.00  0.00     0.143 A 
HETATM   22  F   UNL     1      -0.822   5.417 -34.068  1.00  0.00    -0.204 F 
HETATM   23  C   UNL     1      -1.331   7.408 -32.936  1.00  0.00     0.086 A 
HETATM   24  C   UNL     1      -2.140   8.091 -32.040  1.00  0.00     0.121 A 
HETATM   25  F   UNL     1      -1.873   9.375 -31.766  1.00  0.00    -0.206 F 
HETATM   26  C   UNL     1      -3.221   7.470 -31.417  1.00  0.00     0.073 A 
ENDBRANCH   3  18
TORSDOF 4
ENDMDL
