MODEL 1
REMARK VINA RESULT:     -11.0      0.000      0.000
REMARK  6 active torsions:
REMARK  status: ('A' for Active; 'I' for Inactive)
REMARK    1  A    between atoms: C_8  and  N_9 
REMARK       I    between atoms: N_9  and  C_10 
REMARK    2  A    between atoms: C_10  and  C_12 
REMARK    3  A    between atoms: C_16  and  C_17 
REMARK    4  A    between atoms: C_17  and  N_18 
REMARK       I    between atoms: N_18  and  C_19 
REMARK    5  A    between atoms: C_19  and  C_21 
REMARK    6  A    between atoms: C_25  and  C_31 
REMARK       I    between atoms: C_31  and  N_33 
ROOT
HETATM    1  C   UNL     1      -2.123   6.793 -32.887  1.00  0.00     0.032 A 
HETATM    2  C   UNL     1      -1.267   6.466 -33.946  1.00  0.00     0.017 A 
HETATM    3  C   UNL     1      -1.721   5.641 -34.977  1.00  0.00     0.002 A 
HETATM    4  C   UNL     1      -3.024   5.137 -34.953  1.00  0.00     0.009 A 
HETATM    5  C   UNL     1      -3.892   5.455 -33.899  1.00  0.00    -0.040 A 
HETATM    6  C   UNL     1      -3.426   6.277 -32.863  1.00  0.00     0.026 A 
ENDROOT
BRANCH   5   7
HETATM    7  C   UNL     1      -5.286   4.886 -33.854  1.00  0.00     0.161 C 
BRANCH   7   8
HETATM    8  N   UNL     1      -5.259   3.446 -33.933  1.00  0.00    -0.351 N 
HETATM    9  C   UNL     1      -5.583   2.644 -32.863  1.00  0.00     0.268 C 
HETATM   10  O   UNL     1      -5.906   3.123 -31.779  1.00  0.00    -0.266 OA
HETATM   11  H   UNL     1      -5.122   3.032 -34.841  1.00  0.00     0.163 HD
BRANCH   9  12
HETATM   12  C   UNL     1      -5.497   1.211 -33.115  1.00  0.00     0.103 A 
HETATM   13  C   UNL     1      -6.346   0.384 -33.839  1.00  0.00     0.049 A 
HETATM   14  C   UNL     1      -5.812  -0.930 -33.856  1.00  0.00    -0.006 A 
HETATM   15  C   UNL     1      -6.228  -2.137 -34.453  1.00  0.00     0.030 A 
HETATM   16  C   UNL     1      -4.629  -0.905 -33.120  1.00  0.00     0.045 A 
HETATM   17  C   UNL     1      -5.450  -3.296 -34.306  1.00  0.00     0.032 A 
HETATM   18  C   UNL     1      -4.260  -3.244 -33.576  1.00  0.00     0.019 A 
HETATM   19  C   UNL     1      -3.836  -2.054 -32.967  1.00  0.00     0.031 A 
HETATM   20  N   UNL     1      -4.470   0.391 -32.660  1.00  0.00    -0.346 N 
HETATM   21  C   UNL     1      -3.371   0.842 -31.827  1.00  0.00     0.156 C 
BRANCH  17  22
HETATM   22  C   UNL     1      -5.925  -4.538 -34.979  1.00  0.00     0.249 C 
HETATM   23  O   UNL     1      -5.236  -5.551 -35.023  1.00  0.00    -0.268 OA
HETATM   24  N   UNL     1      -7.154  -4.519 -35.579  1.00  0.00    -0.366 N 
HETATM   25  H   UNL     1      -7.679  -3.678 -35.756  1.00  0.00     0.159 HD
HETATM   26  H   UNL     1      -7.410  -5.352 -36.095  1.00  0.00     0.159 HD
ENDBRANCH  17  22
ENDBRANCH   9  12
ENDBRANCH   7   8
ENDBRANCH   5   7
BRANCH   1  27
HETATM   27  C   UNL     1      -1.687   7.645 -31.744  1.00  0.00     0.256 C 
HETATM   28  N   UNL     1      -1.068   6.970 -30.707  1.00  0.00    -0.323 N 
HETATM   29  H   UNL     1      -0.884   5.986 -30.841  1.00  0.00     0.169 HD
HETATM   30  O   UNL     1      -1.875   8.853 -31.829  1.00  0.00    -0.267 OA
BRANCH  28  31
HETATM   31  C   UNL     1      -0.568   7.524 -29.507  1.00  0.00     0.035 A 
HETATM   32  C   UNL     1       0.786   7.738 -29.254  1.00  0.00     0.030 A 
HETATM   33  C   UNL     1       1.204   8.286 -28.038  1.00  0.00     0.010 A 
HETATM   34  C   UNL     1       0.271   8.641 -27.058  1.00  0.00    -0.048 A 
HETATM   35  C   UNL     1       0.734   9.184 -25.731  1.00  0.00     0.069 C 
HETATM   36  C   UNL     1      -1.095   8.422 -27.293  1.00  0.00    -0.022 A 
HETATM   37  C   UNL     1      -0.396   9.860 -24.945  1.00  0.00     0.277 C 
HETATM   38  N   UNL     1      -1.588   9.000 -24.909  1.00  0.00     0.088 N 
HETATM   39  C   UNL     1      -2.604   9.556 -24.017  1.00  0.00     0.310 C 
HETATM   40  C   UNL     1      -2.133   8.838 -26.269  1.00  0.00     0.311 C 
HETATM   41  C   UNL     1      -1.503   7.877 -28.523  1.00  0.00     0.039 A 
ENDBRANCH  28  31
ENDBRANCH   1  27
TORSDOF 6
ENDMDL
MODEL 2
REMARK VINA RESULT:     -10.9      1.020      1.613
REMARK  6 active torsions:
REMARK  status: ('A' for Active; 'I' for Inactive)
REMARK    1  A    between atoms: C_8  and  N_9 
REMARK       I    between atoms: N_9  and  C_10 
REMARK    2  A    between atoms: C_10  and  C_12 
REMARK    3  A    between atoms: C_16  and  C_17 
REMARK    4  A    between atoms: C_17  and  N_18 
REMARK       I    between atoms: N_18  and  C_19 
REMARK    5  A    between atoms: C_19  and  C_21 
REMARK    6  A    between atoms: C_25  and  C_31 
REMARK       I    between atoms: C_31  and  N_33 
ROOT
HETATM    1  C   UNL     1      -2.239   7.123 -32.849  1.00  0.00     0.032 A 
HETATM    2  C   UNL     1      -1.257   6.657 -33.731  1.00  0.00     0.017 A 
HETATM    3  C   UNL     1      -1.576   5.673 -34.669  1.00  0.00     0.002 A 
HETATM    4  C   UNL     1      -2.869   5.148 -34.726  1.00  0.00     0.009 A 
HETATM    5  C   UNL     1      -3.863   5.604 -33.850  1.00  0.00    -0.040 A 
HETATM    6  C   UNL     1      -3.534   6.586 -32.904  1.00  0.00     0.026 A 
ENDROOT
BRANCH   5   7
HETATM    7  C   UNL     1      -5.249   5.017 -33.888  1.00  0.00     0.161 C 
BRANCH   7   8
HETATM    8  N   UNL     1      -5.198   3.576 -33.948  1.00  0.00    -0.351 N 
HETATM    9  C   UNL     1      -5.892   2.778 -33.069  1.00  0.00     0.268 C 
HETATM   10  O   UNL     1      -6.588   3.260 -32.178  1.00  0.00    -0.266 OA
HETATM   11  H   UNL     1      -4.740   3.159 -34.742  1.00  0.00     0.163 HD
BRANCH   9  12
HETATM   12  C   UNL     1      -5.724   1.344 -33.269  1.00  0.00     0.103 A 
HETATM   13  C   UNL     1      -6.540   0.438 -33.932  1.00  0.00     0.049 A 
HETATM   14  C   UNL     1      -5.925  -0.841 -33.918  1.00  0.00    -0.006 A 
HETATM   15  C   UNL     1      -6.282  -2.094 -34.454  1.00  0.00     0.030 A 
HETATM   16  C   UNL     1      -4.723  -0.712 -33.224  1.00  0.00     0.045 A 
HETATM   17  C   UNL     1      -5.427  -3.195 -34.290  1.00  0.00     0.032 A 
HETATM   18  C   UNL     1      -4.220  -3.040 -33.603  1.00  0.00     0.019 A 
HETATM   19  C   UNL     1      -3.854  -1.803 -33.054  1.00  0.00     0.031 A 
HETATM   20  N   UNL     1      -4.633   0.608 -32.818  1.00  0.00    -0.346 N 
HETATM   21  C   UNL     1      -3.539   1.159 -32.040  1.00  0.00     0.156 C 
BRANCH  17  22
HETATM   22  C   UNL     1      -5.844  -4.490 -34.900  1.00  0.00     0.249 C 
HETATM   23  O   UNL     1      -5.148  -5.496 -34.812  1.00  0.00    -0.268 OA
HETATM   24  N   UNL     1      -7.023  -4.531 -35.590  1.00  0.00    -0.366 N 
HETATM   25  H   UNL     1      -7.537  -3.711 -35.872  1.00  0.00     0.159 HD
HETATM   26  H   UNL     1      -7.234  -5.404 -36.058  1.00  0.00     0.159 HD
ENDBRANCH  17  22
ENDBRANCH   9  12
ENDBRANCH   7   8
ENDBRANCH   5   7
BRANCH   1  27
HETATM   27  C   UNL     1      -1.952   8.150 -31.807  1.00  0.00     0.256 C 
HETATM   28  N   UNL     1      -1.711   7.653 -30.539  1.00  0.00    -0.323 N 
HETATM   29  H   UNL     1      -1.663   6.650 -30.437  1.00  0.00     0.169 HD
HETATM   30  O   UNL     1      -1.917   9.324 -32.158  1.00  0.00    -0.267 OA
BRANCH  28  31
HETATM   31  C   UNL     1      -1.425   8.398 -29.372  1.00  0.00     0.035 A 
HETATM   32  C   UNL     1      -2.217   9.446 -28.905  1.00  0.00     0.030 A 
HETATM   33  C   UNL     1      -1.864  10.140 -27.743  1.00  0.00     0.010 A 
HETATM   34  C   UNL     1      -0.718   9.788 -27.024  1.00  0.00    -0.048 A 
HETATM   35  C   UNL     1      -0.319  10.574 -25.802  1.00  0.00     0.069 C 
HETATM   36  C   UNL     1       0.095   8.742 -27.486  1.00  0.00    -0.022 A 
HETATM   37  C   UNL     1       0.715   9.839 -24.940  1.00  0.00     0.277 C 
HETATM   38  N   UNL     1       1.818   9.336 -25.772  1.00  0.00     0.088 N 
HETATM   39  C   UNL     1       2.889   8.792 -24.940  1.00  0.00     0.310 C 
HETATM   40  C   UNL     1       1.319   8.309 -26.703  1.00  0.00     0.311 C 
HETATM   41  C   UNL     1      -0.275   8.047 -28.651  1.00  0.00     0.039 A 
ENDBRANCH  28  31
ENDBRANCH   1  27
TORSDOF 6
ENDMDL
MODEL 3
REMARK VINA RESULT:     -10.4      1.963      2.824
REMARK  6 active torsions:
REMARK  status: ('A' for Active; 'I' for Inactive)
REMARK    1  A    between atoms: C_8  and  N_9 
REMARK       I    between atoms: N_9  and  C_10 
REMARK    2  A    between atoms: C_10  and  C_12 
REMARK    3  A    between atoms: C_16  and  C_17 
REMARK    4  A    between atoms: C_17  and  N_18 
REMARK       I    between atoms: N_18  and  C_19 
REMARK    5  A    between atoms: C_19  and  C_21 
REMARK    6  A    between atoms: C_25  and  C_31 
REMARK       I    between atoms: C_31  and  N_33 
ROOT
HETATM    1  C   UNL     1      -1.719   6.327 -30.506  1.00  0.00     0.032 A 
HETATM    2  C   UNL     1      -0.593   5.790 -31.141  1.00  0.00     0.017 A 
HETATM    3  C   UNL     1      -0.748   5.022 -32.297  1.00  0.00     0.002 A 
HETATM    4  C   UNL     1      -2.022   4.782 -32.817  1.00  0.00     0.009 A 
HETATM    5  C   UNL     1      -3.158   5.312 -32.192  1.00  0.00    -0.040 A 
HETATM    6  C   UNL     1      -2.997   6.076 -31.027  1.00  0.00     0.026 A 
ENDROOT
BRANCH   5   7
HETATM    7  C   UNL     1      -4.535   5.028 -32.732  1.00  0.00     0.161 C 
BRANCH   7   8
HETATM    8  N   UNL     1      -4.662   3.644 -33.122  1.00  0.00    -0.351 N 
HETATM    9  C   UNL     1      -5.229   2.698 -32.301  1.00  0.00     0.268 C 
HETATM   10  O   UNL     1      -5.652   2.988 -31.184  1.00  0.00    -0.266 OA
HETATM   11  H   UNL     1      -4.440   3.407 -34.075  1.00  0.00     0.163 HD
BRANCH   9  12
HETATM   12  C   UNL     1      -5.272   1.348 -32.849  1.00  0.00     0.103 A 
HETATM   13  C   UNL     1      -4.363   0.307 -32.719  1.00  0.00     0.049 A 
HETATM   14  C   UNL     1      -4.871  -0.841 -33.381  1.00  0.00    -0.006 A 
HETATM   15  C   UNL     1      -4.394  -2.157 -33.541  1.00  0.00     0.030 A 
HETATM   16  C   UNL     1      -6.101  -0.488 -33.933  1.00  0.00     0.045 A 
HETATM   17  C   UNL     1      -5.161  -3.099 -34.247  1.00  0.00     0.032 A 
HETATM   18  C   UNL     1      -6.397  -2.727 -34.780  1.00  0.00     0.019 A 
HETATM   19  C   UNL     1      -6.882  -1.418 -34.639  1.00  0.00     0.031 A 
HETATM   20  N   UNL     1      -6.312   0.844 -33.623  1.00  0.00    -0.346 N 
HETATM   21  C   UNL     1      -7.472   1.613 -34.035  1.00  0.00     0.156 C 
BRANCH  17  22
HETATM   22  C   UNL     1      -4.619  -4.483 -34.364  1.00  0.00     0.249 C 
HETATM   23  O   UNL     1      -5.241  -5.371 -34.935  1.00  0.00    -0.268 OA
HETATM   24  N   UNL     1      -3.407  -4.754 -33.792  1.00  0.00    -0.366 N 
HETATM   25  H   UNL     1      -2.942  -4.138 -33.143  1.00  0.00     0.159 HD
HETATM   26  H   UNL     1      -3.109  -5.721 -33.820  1.00  0.00     0.159 HD
ENDBRANCH  17  22
ENDBRANCH   9  12
ENDBRANCH   7   8
ENDBRANCH   5   7
BRANCH   1  27
HETATM   27  C   UNL     1      -1.620   7.131 -29.254  1.00  0.00     0.256 C 
HETATM   28  N   UNL     1      -0.460   7.872 -29.119  1.00  0.00    -0.323 N 
HETATM   29  H   UNL     1       0.177   7.880 -29.901  1.00  0.00     0.169 HD
HETATM   30  O   UNL     1      -2.570   7.100 -28.480  1.00  0.00    -0.267 OA
BRANCH  28  31
HETATM   31  C   UNL     1      -0.105   8.709 -28.036  1.00  0.00     0.035 A 
HETATM   32  C   UNL     1      -0.795   9.871 -27.693  1.00  0.00     0.030 A 
HETATM   33  C   UNL     1      -0.378  10.651 -26.610  1.00  0.00     0.010 A 
HETATM   34  C   UNL     1       0.730  10.275 -25.846  1.00  0.00    -0.048 A 
HETATM   35  C   UNL     1       1.202  11.148 -24.712  1.00  0.00     0.069 C 
HETATM   36  C   UNL     1       1.442   9.113 -26.185  1.00  0.00    -0.022 A 
HETATM   37  C   UNL     1       2.164  10.417 -23.767  1.00  0.00     0.277 C 
HETATM   38  N   UNL     1       3.215   9.727 -24.529  1.00  0.00     0.088 N 
HETATM   39  C   UNL     1       4.231   9.179 -23.633  1.00  0.00     0.310 C 
HETATM   40  C   UNL     1       2.621   8.656 -25.348  1.00  0.00     0.311 C 
HETATM   41  C   UNL     1       1.008   8.333 -27.271  1.00  0.00     0.039 A 
ENDBRANCH  28  31
ENDBRANCH   1  27
TORSDOF 6
ENDMDL
MODEL 4
REMARK VINA RESULT:     -10.4      2.624     12.507
REMARK  6 active torsions:
REMARK  status: ('A' for Active; 'I' for Inactive)
REMARK    1  A    between atoms: C_8  and  N_9 
REMARK       I    between atoms: N_9  and  C_10 
REMARK    2  A    between atoms: C_10  and  C_12 
REMARK    3  A    between atoms: C_16  and  C_17 
REMARK    4  A    between atoms: C_17  and  N_18 
REMARK       I    between atoms: N_18  and  C_19 
REMARK    5  A    between atoms: C_19  and  C_21 
REMARK    6  A    between atoms: C_25  and  C_31 
REMARK       I    between atoms: C_31  and  N_33 
ROOT
HETATM    1  C   UNL     1      -5.788   3.398 -30.882  1.00  0.00     0.032 A 
HETATM    2  C   UNL     1      -6.561   4.254 -30.089  1.00  0.00     0.017 A 
HETATM    3  C   UNL     1      -6.048   5.495 -29.703  1.00  0.00     0.002 A 
HETATM    4  C   UNL     1      -4.766   5.880 -30.100  1.00  0.00     0.009 A 
HETATM    5  C   UNL     1      -3.980   5.033 -30.894  1.00  0.00    -0.040 A 
HETATM    6  C   UNL     1      -4.498   3.786 -31.271  1.00  0.00     0.026 A 
ENDROOT
BRANCH   5   7
HETATM    7  C   UNL     1      -2.585   5.433 -31.296  1.00  0.00     0.161 C 
BRANCH   7   8
HETATM    8  N   UNL     1      -1.895   6.071 -30.201  1.00  0.00    -0.351 N 
HETATM    9  C   UNL     1      -0.968   7.069 -30.397  1.00  0.00     0.268 C 
HETATM   10  O   UNL     1      -0.677   7.461 -31.525  1.00  0.00    -0.266 OA
HETATM   11  H   UNL     1      -2.206   5.858 -29.267  1.00  0.00     0.163 HD
BRANCH   9  12
HETATM   12  C   UNL     1      -0.362   7.599 -29.182  1.00  0.00     0.103 A 
HETATM   13  C   UNL     1       0.690   7.103 -28.425  1.00  0.00     0.049 A 
HETATM   14  C   UNL     1       0.965   8.004 -27.363  1.00  0.00    -0.006 A 
HETATM   15  C   UNL     1       1.923   8.020 -26.330  1.00  0.00     0.030 A 
HETATM   16  C   UNL     1       0.056   9.055 -27.469  1.00  0.00     0.045 A 
HETATM   17  C   UNL     1       1.959   9.093 -25.425  1.00  0.00     0.032 A 
HETATM   18  C   UNL     1       1.048  10.143 -25.558  1.00  0.00     0.019 A 
HETATM   19  C   UNL     1       0.081  10.138 -26.574  1.00  0.00     0.031 A 
HETATM   20  N   UNL     1      -0.752   8.779 -28.557  1.00  0.00    -0.346 N 
HETATM   21  C   UNL     1      -1.852   9.615 -29.001  1.00  0.00     0.156 C 
BRANCH  17  22
HETATM   22  C   UNL     1       3.010   9.070 -24.368  1.00  0.00     0.249 C 
HETATM   23  O   UNL     1       2.835   8.496 -23.299  1.00  0.00    -0.268 OA
HETATM   24  N   UNL     1       4.183   9.732 -24.606  1.00  0.00    -0.366 N 
HETATM   25  H   UNL     1       4.315  10.384 -25.364  1.00  0.00     0.159 HD
HETATM   26  H   UNL     1       4.839   9.764 -23.837  1.00  0.00     0.159 HD
ENDBRANCH  17  22
ENDBRANCH   9  12
ENDBRANCH   7   8
ENDBRANCH   5   7
BRANCH   1  27
HETATM   27  C   UNL     1      -6.269   2.051 -31.302  1.00  0.00     0.256 C 
HETATM   28  N   UNL     1      -5.744   1.582 -32.493  1.00  0.00    -0.323 N 
HETATM   29  H   UNL     1      -5.025   2.138 -32.932  1.00  0.00     0.169 HD
HETATM   30  O   UNL     1      -7.045   1.464 -30.557  1.00  0.00    -0.267 OA
BRANCH  28  31
HETATM   31  C   UNL     1      -6.031   0.350 -33.125  1.00  0.00     0.035 A 
HETATM   32  C   UNL     1      -7.233   0.072 -33.775  1.00  0.00     0.030 A 
HETATM   33  C   UNL     1      -7.446  -1.173 -34.373  1.00  0.00     0.010 A 
HETATM   34  C   UNL     1      -6.454  -2.158 -34.340  1.00  0.00    -0.048 A 
HETATM   35  C   UNL     1      -6.711  -3.515 -34.943  1.00  0.00     0.069 C 
HETATM   36  C   UNL     1      -5.242  -1.897 -33.681  1.00  0.00    -0.022 A 
HETATM   37  C   UNL     1      -5.422  -4.319 -35.154  1.00  0.00     0.277 C 
HETATM   38  N   UNL     1      -4.595  -4.301 -33.939  1.00  0.00     0.088 N 
HETATM   39  C   UNL     1      -3.456  -5.207 -34.071  1.00  0.00     0.310 C 
HETATM   40  C   UNL     1      -4.131  -2.929 -33.667  1.00  0.00     0.311 C 
HETATM   41  C   UNL     1      -5.038  -0.638 -33.090  1.00  0.00     0.039 A 
ENDBRANCH  28  31
ENDBRANCH   1  27
TORSDOF 6
ENDMDL
MODEL 5
REMARK VINA RESULT:     -10.1      3.490     12.831
REMARK  6 active torsions:
REMARK  status: ('A' for Active; 'I' for Inactive)
REMARK    1  A    between atoms: C_8  and  N_9 
REMARK       I    between atoms: N_9  and  C_10 
REMARK    2  A    between atoms: C_10  and  C_12 
REMARK    3  A    between atoms: C_16  and  C_17 
REMARK    4  A    between atoms: C_17  and  N_18 
REMARK       I    between atoms: N_18  and  C_19 
REMARK    5  A    between atoms: C_19  and  C_21 
REMARK    6  A    between atoms: C_25  and  C_31 
REMARK       I    between atoms: C_31  and  N_33 
ROOT
HETATM    1  C   UNL     1      -1.491   5.337 -31.371  1.00  0.00     0.032 A 
HETATM    2  C   UNL     1      -0.116   5.205 -31.596  1.00  0.00     0.017 A 
HETATM    3  C   UNL     1       0.777   6.074 -30.966  1.00  0.00     0.002 A 
HETATM    4  C   UNL     1       0.303   7.078 -30.119  1.00  0.00     0.009 A 
HETATM    5  C   UNL     1      -1.071   7.223 -29.885  1.00  0.00    -0.040 A 
HETATM    6  C   UNL     1      -1.963   6.352 -30.527  1.00  0.00     0.026 A 
ENDROOT
BRANCH   5   7
HETATM    7  C   UNL     1      -1.587   8.326 -28.998  1.00  0.00     0.161 C 
BRANCH   7   8
HETATM    8  N   UNL     1      -0.619   8.670 -27.985  1.00  0.00    -0.351 N 
HETATM    9  C   UNL     1      -0.534   7.996 -26.789  1.00  0.00     0.268 C 
HETATM   10  O   UNL     1      -1.292   7.066 -26.522  1.00  0.00    -0.266 OA
HETATM   11  H   UNL     1       0.092   9.340 -28.229  1.00  0.00     0.163 HD
BRANCH   9  12
HETATM   12  C   UNL     1       0.497   8.478 -25.878  1.00  0.00     0.103 A 
HETATM   13  C   UNL     1       1.858   8.205 -25.853  1.00  0.00     0.049 A 
HETATM   14  C   UNL     1       2.465   8.960 -24.817  1.00  0.00    -0.006 A 
HETATM   15  C   UNL     1       3.794   9.095 -24.368  1.00  0.00     0.030 A 
HETATM   16  C   UNL     1       1.456   9.693 -24.195  1.00  0.00     0.045 A 
HETATM   17  C   UNL     1       4.090   9.966 -23.307  1.00  0.00     0.032 A 
HETATM   18  C   UNL     1       3.065  10.702 -22.707  1.00  0.00     0.019 A 
HETATM   19  C   UNL     1       1.736  10.572 -23.135  1.00  0.00     0.031 A 
HETATM   20  N   UNL     1       0.272   9.368 -24.834  1.00  0.00    -0.346 N 
HETATM   21  C   UNL     1      -1.031   9.896 -24.474  1.00  0.00     0.156 C 
BRANCH  17  22
HETATM   22  C   UNL     1       5.516  10.088 -22.890  1.00  0.00     0.249 C 
HETATM   23  O   UNL     1       5.916   9.634 -21.824  1.00  0.00    -0.268 OA
HETATM   24  N   UNL     1       6.379  10.748 -23.721  1.00  0.00    -0.366 N 
HETATM   25  H   UNL     1       6.085  11.313 -24.501  1.00  0.00     0.159 HD
HETATM   26  H   UNL     1       7.319  10.882 -23.369  1.00  0.00     0.159 HD
ENDBRANCH  17  22
ENDBRANCH   9  12
ENDBRANCH   7   8
ENDBRANCH   5   7
BRANCH   1  27
HETATM   27  C   UNL     1      -2.495   4.458 -32.036  1.00  0.00     0.256 C 
HETATM   28  N   UNL     1      -3.074   3.501 -31.221  1.00  0.00    -0.323 N 
HETATM   29  H   UNL     1      -2.840   3.528 -30.239  1.00  0.00     0.169 HD
HETATM   30  O   UNL     1      -2.749   4.673 -33.215  1.00  0.00    -0.267 OA
BRANCH  28  31
HETATM   31  C   UNL     1      -4.040   2.538 -31.590  1.00  0.00     0.035 A 
HETATM   32  C   UNL     1      -5.400   2.653 -31.306  1.00  0.00     0.030 A 
HETATM   33  C   UNL     1      -6.296   1.655 -31.699  1.00  0.00     0.010 A 
HETATM   34  C   UNL     1      -5.846   0.528 -32.394  1.00  0.00    -0.048 A 
HETATM   35  C   UNL     1      -6.810  -0.567 -32.770  1.00  0.00     0.069 C 
HETATM   36  C   UNL     1      -4.478   0.392 -32.680  1.00  0.00    -0.022 A 
HETATM   37  C   UNL     1      -6.240  -1.515 -33.832  1.00  0.00     0.277 C 
HETATM   38  N   UNL     1      -4.884  -1.949 -33.463  1.00  0.00     0.088 N 
HETATM   39  C   UNL     1      -4.405  -2.986 -34.374  1.00  0.00     0.310 C 
HETATM   40  C   UNL     1      -3.967  -0.796 -33.471  1.00  0.00     0.311 C 
HETATM   41  C   UNL     1      -3.589   1.407 -32.285  1.00  0.00     0.039 A 
ENDBRANCH  28  31
ENDBRANCH   1  27
TORSDOF 6
ENDMDL
MODEL 6
REMARK VINA RESULT:      -9.9      3.019      4.952
REMARK  6 active torsions:
REMARK  status: ('A' for Active; 'I' for Inactive)
REMARK    1  A    between atoms: C_8  and  N_9 
REMARK       I    between atoms: N_9  and  C_10 
REMARK    2  A    between atoms: C_10  and  C_12 
REMARK    3  A    between atoms: C_16  and  C_17 
REMARK    4  A    between atoms: C_17  and  N_18 
REMARK       I    between atoms: N_18  and  C_19 
REMARK    5  A    between atoms: C_19  and  C_21 
REMARK    6  A    between atoms: C_25  and  C_31 
REMARK       I    between atoms: C_31  and  N_33 
ROOT
HETATM    1  C   UNL     1      -7.797   5.113 -30.339  1.00  0.00     0.032 A 
HETATM    2  C   UNL     1      -8.554   6.189 -29.861  1.00  0.00     0.017 A 
HETATM    3  C   UNL     1      -9.927   6.237 -30.110  1.00  0.00     0.002 A 
HETATM    4  C   UNL     1     -10.546   5.220 -30.839  1.00  0.00     0.009 A 
HETATM    5  C   UNL     1      -9.802   4.136 -31.325  1.00  0.00    -0.040 A 
HETATM    6  C   UNL     1      -8.422   4.098 -31.079  1.00  0.00     0.026 A 
ENDROOT
BRANCH   5   7
HETATM    7  C   UNL     1     -10.461   3.055 -32.139  1.00  0.00     0.161 C 
BRANCH   7   8
HETATM    8  N   UNL     1      -9.545   1.971 -32.398  1.00  0.00    -0.351 N 
HETATM    9  C   UNL     1      -8.910   1.817 -33.608  1.00  0.00     0.268 C 
HETATM   10  O   UNL     1      -9.100   2.599 -34.536  1.00  0.00    -0.266 OA
HETATM   11  H   UNL     1      -9.275   1.393 -31.618  1.00  0.00     0.163 HD
BRANCH   9  12
HETATM   12  C   UNL     1      -8.021   0.665 -33.699  1.00  0.00     0.103 A 
HETATM   13  C   UNL     1      -8.301  -0.646 -34.063  1.00  0.00     0.049 A 
HETATM   14  C   UNL     1      -7.096  -1.395 -34.065  1.00  0.00    -0.006 A 
HETATM   15  C   UNL     1      -6.790  -2.735 -34.378  1.00  0.00     0.030 A 
HETATM   16  C   UNL     1      -6.072  -0.531 -33.684  1.00  0.00     0.045 A 
HETATM   17  C   UNL     1      -5.461  -3.184 -34.309  1.00  0.00     0.032 A 
HETATM   18  C   UNL     1      -4.448  -2.296 -33.938  1.00  0.00     0.019 A 
HETATM   19  C   UNL     1      -4.737  -0.962 -33.614  1.00  0.00     0.031 A 
HETATM   20  N   UNL     1      -6.655   0.701 -33.443  1.00  0.00    -0.346 N 
HETATM   21  C   UNL     1      -5.937   1.880 -32.997  1.00  0.00     0.156 C 
BRANCH  17  22
HETATM   22  C   UNL     1      -5.191  -4.603 -34.674  1.00  0.00     0.249 C 
HETATM   23  O   UNL     1      -5.961  -5.243 -35.382  1.00  0.00    -0.268 OA
HETATM   24  N   UNL     1      -4.064  -5.197 -34.178  1.00  0.00    -0.366 N 
HETATM   25  H   UNL     1      -3.502  -4.804 -33.439  1.00  0.00     0.159 HD
HETATM   26  H   UNL     1      -3.955  -6.183 -34.380  1.00  0.00     0.159 HD
ENDBRANCH  17  22
ENDBRANCH   9  12
ENDBRANCH   7   8
ENDBRANCH   5   7
BRANCH   1  27
HETATM   27  C   UNL     1      -6.324   5.019 -30.131  1.00  0.00     0.256 C 
HETATM   28  N   UNL     1      -5.550   5.337 -31.232  1.00  0.00    -0.323 N 
HETATM   29  H   UNL     1      -6.031   5.686 -32.049  1.00  0.00     0.169 HD
HETATM   30  O   UNL     1      -5.924   4.710 -29.014  1.00  0.00    -0.267 OA
BRANCH  28  31
HETATM   31  C   UNL     1      -4.139   5.324 -31.316  1.00  0.00     0.035 A 
HETATM   32  C   UNL     1      -3.420   4.510 -32.190  1.00  0.00     0.030 A 
HETATM   33  C   UNL     1      -2.023   4.548 -32.210  1.00  0.00     0.010 A 
HETATM   34  C   UNL     1      -1.322   5.412 -31.363  1.00  0.00    -0.048 A 
HETATM   35  C   UNL     1       0.185   5.411 -31.356  1.00  0.00     0.069 C 
HETATM   36  C   UNL     1      -2.031   6.231 -30.470  1.00  0.00    -0.022 A 
HETATM   37  C   UNL     1       0.772   6.650 -30.669  1.00  0.00     0.277 C 
HETATM   38  N   UNL     1       0.122   6.879 -29.371  1.00  0.00     0.088 N 
HETATM   39  C   UNL     1       0.794   7.947 -28.634  1.00  0.00     0.310 C 
HETATM   40  C   UNL     1      -1.300   7.209 -29.571  1.00  0.00     0.311 C 
HETATM   41  C   UNL     1      -3.436   6.188 -30.465  1.00  0.00     0.039 A 
ENDBRANCH  28  31
ENDBRANCH   1  27
TORSDOF 6
ENDMDL
MODEL 7
REMARK VINA RESULT:      -9.7      3.491     12.672
REMARK  6 active torsions:
REMARK  status: ('A' for Active; 'I' for Inactive)
REMARK    1  A    between atoms: C_8  and  N_9 
REMARK       I    between atoms: N_9  and  C_10 
REMARK    2  A    between atoms: C_10  and  C_12 
REMARK    3  A    between atoms: C_16  and  C_17 
REMARK    4  A    between atoms: C_17  and  N_18 
REMARK       I    between atoms: N_18  and  C_19 
REMARK    5  A    between atoms: C_19  and  C_21 
REMARK    6  A    between atoms: C_25  and  C_31 
REMARK       I    between atoms: C_31  and  N_33 
ROOT
HETATM    1  C   UNL     1      -1.408   5.194 -31.441  1.00  0.00     0.032 A 
HETATM    2  C   UNL     1      -0.026   5.218 -31.666  1.00  0.00     0.017 A 
HETATM    3  C   UNL     1       0.768   6.160 -31.009  1.00  0.00     0.002 A 
HETATM    4  C   UNL     1       0.188   7.082 -30.135  1.00  0.00     0.009 A 
HETATM    5  C   UNL     1      -1.194   7.071 -29.900  1.00  0.00    -0.040 A 
HETATM    6  C   UNL     1      -1.987   6.127 -30.569  1.00  0.00     0.026 A 
ENDROOT
BRANCH   5   7
HETATM    7  C   UNL     1      -1.825   8.084 -28.982  1.00  0.00     0.161 C 
BRANCH   7   8
HETATM    8  N   UNL     1      -0.894   8.514 -27.968  1.00  0.00    -0.351 N 
HETATM    9  C   UNL     1      -0.746   7.845 -26.775  1.00  0.00     0.268 C 
HETATM   10  O   UNL     1      -1.412   6.847 -26.512  1.00  0.00    -0.266 OA
HETATM   11  H   UNL     1      -0.250   9.250 -28.208  1.00  0.00     0.163 HD
BRANCH   9  12
HETATM   12  C   UNL     1       0.235   8.419 -25.861  1.00  0.00     0.103 A 
HETATM   13  C   UNL     1       1.611   8.245 -25.813  1.00  0.00     0.049 A 
HETATM   14  C   UNL     1       2.148   9.062 -24.785  1.00  0.00    -0.006 A 
HETATM   15  C   UNL     1       3.457   9.302 -24.322  1.00  0.00     0.030 A 
HETATM   16  C   UNL     1       1.081   9.732 -24.191  1.00  0.00     0.045 A 
HETATM   17  C   UNL     1       3.675  10.212 -23.276  1.00  0.00     0.032 A 
HETATM   18  C   UNL     1       2.591  10.883 -22.704  1.00  0.00     0.019 A 
HETATM   19  C   UNL     1       1.281  10.650 -23.146  1.00  0.00     0.031 A 
HETATM   20  N   UNL     1      -0.068   9.310 -24.838  1.00  0.00    -0.346 N 
HETATM   21  C   UNL     1      -1.411   9.750 -24.506  1.00  0.00     0.156 C 
BRANCH  17  22
HETATM   22  C   UNL     1       5.082  10.445 -22.843  1.00  0.00     0.249 C 
HETATM   23  O   UNL     1       5.367  10.673 -21.673  1.00  0.00    -0.268 OA
HETATM   24  N   UNL     1       6.064  10.424 -23.795  1.00  0.00    -0.366 N 
HETATM   25  H   UNL     1       5.884  10.446 -24.786  1.00  0.00     0.159 HD
HETATM   26  H   UNL     1       6.995  10.666 -23.479  1.00  0.00     0.159 HD
ENDBRANCH  17  22
ENDBRANCH   9  12
ENDBRANCH   7   8
ENDBRANCH   5   7
BRANCH   1  27
HETATM   27  C   UNL     1      -2.311   4.231 -32.133  1.00  0.00     0.256 C 
HETATM   28  N   UNL     1      -2.917   3.296 -31.313  1.00  0.00    -0.323 N 
HETATM   29  H   UNL     1      -2.771   3.390 -30.318  1.00  0.00     0.169 HD
HETATM   30  O   UNL     1      -2.471   4.365 -33.341  1.00  0.00    -0.267 OA
BRANCH  28  31
HETATM   31  C   UNL     1      -3.806   2.268 -31.703  1.00  0.00     0.035 A 
HETATM   32  C   UNL     1      -3.503   0.909 -31.629  1.00  0.00     0.030 A 
HETATM   33  C   UNL     1      -4.433  -0.050 -32.040  1.00  0.00     0.010 A 
HETATM   34  C   UNL     1      -5.688   0.336 -32.521  1.00  0.00    -0.048 A 
HETATM   35  C   UNL     1      -6.665  -0.702 -33.009  1.00  0.00     0.069 C 
HETATM   36  C   UNL     1      -6.005   1.700 -32.612  1.00  0.00    -0.022 A 
HETATM   37  C   UNL     1      -8.092  -0.154 -33.139  1.00  0.00     0.277 C 
HETATM   38  N   UNL     1      -8.091   1.123 -33.867  1.00  0.00     0.088 N 
HETATM   39  C   UNL     1      -9.456   1.562 -34.148  1.00  0.00     0.310 C 
HETATM   40  C   UNL     1      -7.373   2.147 -33.088  1.00  0.00     0.311 C 
HETATM   41  C   UNL     1      -5.063   2.654 -32.188  1.00  0.00     0.039 A 
ENDBRANCH  28  31
ENDBRANCH   1  27
TORSDOF 6
ENDMDL
MODEL 8
REMARK VINA RESULT:      -9.5      2.107      3.279
REMARK  6 active torsions:
REMARK  status: ('A' for Active; 'I' for Inactive)
REMARK    1  A    between atoms: C_8  and  N_9 
REMARK       I    between atoms: N_9  and  C_10 
REMARK    2  A    between atoms: C_10  and  C_12 
REMARK    3  A    between atoms: C_16  and  C_17 
REMARK    4  A    between atoms: C_17  and  N_18 
REMARK       I    between atoms: N_18  and  C_19 
REMARK    5  A    between atoms: C_19  and  C_21 
REMARK    6  A    between atoms: C_25  and  C_31 
REMARK       I    between atoms: C_31  and  N_33 
ROOT
HETATM    1  C   UNL     1      -4.193   6.829 -29.804  1.00  0.00     0.032 A 
HETATM    2  C   UNL     1      -5.566   6.714 -30.054  1.00  0.00     0.017 A 
HETATM    3  C   UNL     1      -6.022   5.832 -31.036  1.00  0.00     0.002 A 
HETATM    4  C   UNL     1      -5.113   5.070 -31.774  1.00  0.00     0.009 A 
HETATM    5  C   UNL     1      -3.736   5.175 -31.536  1.00  0.00    -0.040 A 
HETATM    6  C   UNL     1      -3.284   6.068 -30.554  1.00  0.00     0.026 A 
ENDROOT
BRANCH   5   7
HETATM    7  C   UNL     1      -2.752   4.379 -32.353  1.00  0.00     0.161 C 
BRANCH   7   8
HETATM    8  N   UNL     1      -3.339   3.141 -32.805  1.00  0.00    -0.351 N 
HETATM    9  C   UNL     1      -3.360   2.008 -32.026  1.00  0.00     0.268 C 
HETATM   10  O   UNL     1      -2.869   1.996 -30.900  1.00  0.00    -0.266 OA
HETATM   11  H   UNL     1      -3.858   3.160 -33.668  1.00  0.00     0.163 HD
BRANCH   9  12
HETATM   12  C   UNL     1      -3.988   0.845 -32.640  1.00  0.00     0.103 A 
HETATM   13  C   UNL     1      -3.430  -0.369 -33.019  1.00  0.00     0.049 A 
HETATM   14  C   UNL     1      -4.453  -1.217 -33.516  1.00  0.00    -0.006 A 
HETATM   15  C   UNL     1      -4.465  -2.540 -34.000  1.00  0.00     0.030 A 
HETATM   16  C   UNL     1      -5.648  -0.503 -33.451  1.00  0.00     0.045 A 
HETATM   17  C   UNL     1      -5.674  -3.128 -34.405  1.00  0.00     0.032 A 
HETATM   18  C   UNL     1      -6.862  -2.398 -34.318  1.00  0.00     0.019 A 
HETATM   19  C   UNL     1      -6.868  -1.076 -33.849  1.00  0.00     0.031 A 
HETATM   20  N   UNL     1      -5.341   0.748 -32.944  1.00  0.00    -0.346 N 
HETATM   21  C   UNL     1      -6.304   1.814 -32.740  1.00  0.00     0.156 C 
BRANCH  17  22
HETATM   22  C   UNL     1      -5.631  -4.538 -34.884  1.00  0.00     0.249 C 
HETATM   23  O   UNL     1      -6.467  -4.978 -35.666  1.00  0.00    -0.268 OA
HETATM   24  N   UNL     1      -4.640  -5.353 -34.410  1.00  0.00    -0.366 N 
HETATM   25  H   UNL     1      -4.052  -5.123 -33.625  1.00  0.00     0.159 HD
HETATM   26  H   UNL     1      -4.690  -6.324 -34.694  1.00  0.00     0.159 HD
ENDBRANCH  17  22
ENDBRANCH   9  12
ENDBRANCH   7   8
ENDBRANCH   5   7
BRANCH   1  27
HETATM   27  C   UNL     1      -3.644   7.772 -28.788  1.00  0.00     0.256 C 
HETATM   28  N   UNL     1      -3.372   7.215 -27.552  1.00  0.00    -0.323 N 
HETATM   29  H   UNL     1      -3.482   6.216 -27.461  1.00  0.00     0.169 HD
HETATM   30  O   UNL     1      -3.447   8.931 -29.134  1.00  0.00    -0.267 OA
BRANCH  28  31
HETATM   31  C   UNL     1      -2.858   7.877 -26.413  1.00  0.00     0.035 A 
HETATM   32  C   UNL     1      -3.603   8.137 -25.263  1.00  0.00     0.030 A 
HETATM   33  C   UNL     1      -3.026   8.803 -24.178  1.00  0.00     0.010 A 
HETATM   34  C   UNL     1      -1.689   9.210 -24.222  1.00  0.00    -0.048 A 
HETATM   35  C   UNL     1      -1.089   9.971 -23.068  1.00  0.00     0.069 C 
HETATM   36  C   UNL     1      -0.928   8.965 -25.376  1.00  0.00    -0.022 A 
HETATM   37  C   UNL     1       0.443  10.002 -23.115  1.00  0.00     0.277 C 
HETATM   38  N   UNL     1       0.913  10.387 -24.454  1.00  0.00     0.088 N 
HETATM   39  C   UNL     1       2.360  10.590 -24.459  1.00  0.00     0.310 C 
HETATM   40  C   UNL     1       0.536   9.354 -25.435  1.00  0.00     0.311 C 
HETATM   41  C   UNL     1      -1.518   8.288 -26.457  1.00  0.00     0.039 A 
ENDBRANCH  28  31
ENDBRANCH   1  27
TORSDOF 6
ENDMDL
MODEL 9
REMARK VINA RESULT:      -9.4      2.657     12.297
REMARK  6 active torsions:
REMARK  status: ('A' for Active; 'I' for Inactive)
REMARK    1  A    between atoms: C_8  and  N_9 
REMARK       I    between atoms: N_9  and  C_10 
REMARK    2  A    between atoms: C_10  and  C_12 
REMARK    3  A    between atoms: C_16  and  C_17 
REMARK    4  A    between atoms: C_17  and  N_18 
REMARK       I    between atoms: N_18  and  C_19 
REMARK    5  A    between atoms: C_19  and  C_21 
REMARK    6  A    between atoms: C_25  and  C_31 
REMARK       I    between atoms: C_31  and  N_33 
ROOT
HETATM    1  C   UNL     1      -5.498   4.231 -32.049  1.00  0.00     0.032 A 
HETATM    2  C   UNL     1      -4.859   4.903 -33.097  1.00  0.00     0.017 A 
HETATM    3  C   UNL     1      -4.388   6.203 -32.905  1.00  0.00     0.002 A 
HETATM    4  C   UNL     1      -4.559   6.838 -31.672  1.00  0.00     0.009 A 
HETATM    5  C   UNL     1      -5.198   6.179 -30.613  1.00  0.00    -0.040 A 
HETATM    6  C   UNL     1      -5.676   4.876 -30.816  1.00  0.00     0.026 A 
ENDROOT
BRANCH   5   7
HETATM    7  C   UNL     1      -5.412   6.873 -29.294  1.00  0.00     0.161 C 
BRANCH   7   8
HETATM    8  N   UNL     1      -4.167   7.372 -28.765  1.00  0.00    -0.351 N 
HETATM    9  C   UNL     1      -3.700   7.015 -27.521  1.00  0.00     0.268 C 
HETATM   10  O   UNL     1      -4.332   6.253 -26.794  1.00  0.00    -0.266 OA
HETATM   11  H   UNL     1      -3.572   7.894 -29.387  1.00  0.00     0.163 HD
BRANCH   9  12
HETATM   12  C   UNL     1      -2.427   7.616 -27.141  1.00  0.00     0.103 A 
HETATM   13  C   UNL     1      -2.141   8.526 -26.133  1.00  0.00     0.049 A 
HETATM   14  C   UNL     1      -0.743   8.769 -26.108  1.00  0.00    -0.006 A 
HETATM   15  C   UNL     1       0.088   9.562 -25.292  1.00  0.00     0.030 A 
HETATM   16  C   UNL     1      -0.174   8.005 -27.125  1.00  0.00     0.045 A 
HETATM   17  C   UNL     1       1.476   9.572 -25.505  1.00  0.00     0.032 A 
HETATM   18  C   UNL     1       2.027   8.787 -26.521  1.00  0.00     0.019 A 
HETATM   19  C   UNL     1       1.213   8.000 -27.349  1.00  0.00     0.031 A 
HETATM   20  N   UNL     1      -1.210   7.336 -27.752  1.00  0.00    -0.346 N 
HETATM   21  C   UNL     1      -1.050   6.448 -28.889  1.00  0.00     0.156 C 
BRANCH  17  22
HETATM   22  C   UNL     1       2.309  10.410 -24.596  1.00  0.00     0.249 C 
HETATM   23  O   UNL     1       1.832  11.349 -23.970  1.00  0.00    -0.268 OA
HETATM   24  N   UNL     1       3.642  10.123 -24.491  1.00  0.00    -0.366 N 
HETATM   25  H   UNL     1       4.134   9.507 -25.119  1.00  0.00     0.159 HD
HETATM   26  H   UNL     1       4.191  10.761 -23.929  1.00  0.00     0.159 HD
ENDBRANCH  17  22
ENDBRANCH   9  12
ENDBRANCH   7   8
ENDBRANCH   5   7
BRANCH   1  27
HETATM   27  C   UNL     1      -6.047   2.853 -32.202  1.00  0.00     0.256 C 
HETATM   28  N   UNL     1      -5.563   2.142 -33.285  1.00  0.00    -0.323 N 
HETATM   29  H   UNL     1      -4.826   2.570 -33.826  1.00  0.00     0.169 HD
HETATM   30  O   UNL     1      -6.837   2.456 -31.353  1.00  0.00    -0.267 OA
BRANCH  28  31
HETATM   31  C   UNL     1      -5.916   0.828 -33.669  1.00  0.00     0.035 A 
HETATM   32  C   UNL     1      -7.173   0.472 -34.157  1.00  0.00     0.030 A 
HETATM   33  C   UNL     1      -7.450  -0.851 -34.511  1.00  0.00     0.010 A 
HETATM   34  C   UNL     1      -6.467  -1.840 -34.394  1.00  0.00    -0.048 A 
HETATM   35  C   UNL     1      -6.789  -3.273 -34.731  1.00  0.00     0.069 C 
HETATM   36  C   UNL     1      -5.200  -1.500 -33.895  1.00  0.00    -0.022 A 
HETATM   37  C   UNL     1      -5.532  -4.132 -34.909  1.00  0.00     0.277 C 
HETATM   38  N   UNL     1      -4.601  -3.927 -33.790  1.00  0.00     0.088 N 
HETATM   39  C   UNL     1      -3.487  -4.870 -33.862  1.00  0.00     0.310 C 
HETATM   40  C   UNL     1      -4.102  -2.541 -33.799  1.00  0.00     0.311 C 
HETATM   41  C   UNL     1      -4.933  -0.164 -33.549  1.00  0.00     0.039 A 
ENDBRANCH  28  31
ENDBRANCH   1  27
TORSDOF 6
ENDMDL
MODEL 10
REMARK VINA RESULT:      -9.3      4.054      7.012
REMARK  6 active torsions:
REMARK  status: ('A' for Active; 'I' for Inactive)
REMARK    1  A    between atoms: C_8  and  N_9 
REMARK       I    between atoms: N_9  and  C_10 
REMARK    2  A    between atoms: C_10  and  C_12 
REMARK    3  A    between atoms: C_16  and  C_17 
REMARK    4  A    between atoms: C_17  and  N_18 
REMARK       I    between atoms: N_18  and  C_19 
REMARK    5  A    between atoms: C_19  and  C_21 
REMARK    6  A    between atoms: C_25  and  C_31 
REMARK       I    between atoms: C_31  and  N_33 
ROOT
HETATM    1  C   UNL     1      -3.950   0.520 -32.149  1.00  0.00     0.032 A 
HETATM    2  C   UNL     1      -3.001  -0.450 -31.804  1.00  0.00     0.017 A 
HETATM    3  C   UNL     1      -3.137  -1.755 -32.281  1.00  0.00     0.002 A 
HETATM    4  C   UNL     1      -4.220  -2.098 -33.095  1.00  0.00     0.009 A 
HETATM    5  C   UNL     1      -5.178  -1.138 -33.448  1.00  0.00    -0.040 A 
HETATM    6  C   UNL     1      -5.040   0.169 -32.958  1.00  0.00     0.026 A 
ENDROOT
BRANCH   5   7
HETATM    7  C   UNL     1      -6.363  -1.513 -34.298  1.00  0.00     0.161 C 
BRANCH   7   8
HETATM    8  N   UNL     1      -7.513  -0.708 -33.965  1.00  0.00    -0.351 N 
HETATM    9  C   UNL     1      -7.889   0.383 -34.713  1.00  0.00     0.268 C 
HETATM   10  O   UNL     1      -7.252   0.731 -35.705  1.00  0.00    -0.266 OA
HETATM   11  H   UNL     1      -8.122  -1.044 -33.236  1.00  0.00     0.163 HD
BRANCH   9  12
HETATM   12  C   UNL     1      -9.072   1.087 -34.232  1.00  0.00     0.103 A 
HETATM   13  C   UNL     1     -10.415   0.762 -34.368  1.00  0.00     0.049 A 
HETATM   14  C   UNL     1     -11.198   1.720 -33.673  1.00  0.00    -0.006 A 
HETATM   15  C   UNL     1     -12.582   1.865 -33.455  1.00  0.00     0.030 A 
HETATM   16  C   UNL     1     -10.318   2.647 -33.118  1.00  0.00     0.045 A 
HETATM   17  C   UNL     1     -13.062   2.933 -32.679  1.00  0.00     0.032 A 
HETATM   18  C   UNL     1     -12.161   3.842 -32.121  1.00  0.00     0.019 A 
HETATM   19  C   UNL     1     -10.780   3.719 -32.336  1.00  0.00     0.031 A 
HETATM   20  N   UNL     1      -9.042   2.261 -33.489  1.00  0.00    -0.346 N 
HETATM   21  C   UNL     1      -7.829   2.977 -33.137  1.00  0.00     0.156 C 
BRANCH  17  22
HETATM   22  C   UNL     1     -14.533   3.022 -32.461  1.00  0.00     0.249 C 
HETATM   23  O   UNL     1     -15.225   2.020 -32.324  1.00  0.00    -0.268 OA
HETATM   24  N   UNL     1     -15.110   4.262 -32.440  1.00  0.00    -0.366 N 
HETATM   25  H   UNL     1     -14.645   5.102 -32.743  1.00  0.00     0.159 HD
HETATM   26  H   UNL     1     -16.120   4.280 -32.371  1.00  0.00     0.159 HD
ENDBRANCH  17  22
ENDBRANCH   9  12
ENDBRANCH   7   8
ENDBRANCH   5   7
BRANCH   1  27
HETATM   27  C   UNL     1      -3.874   1.922 -31.648  1.00  0.00     0.256 C 
HETATM   28  N   UNL     1      -3.147   2.793 -32.439  1.00  0.00    -0.323 N 
HETATM   29  H   UNL     1      -2.803   2.439 -33.320  1.00  0.00     0.169 HD
HETATM   30  O   UNL     1      -4.481   2.194 -30.619  1.00  0.00    -0.267 OA
BRANCH  28  31
HETATM   31  C   UNL     1      -2.907   4.165 -32.199  1.00  0.00     0.035 A 
HETATM   32  C   UNL     1      -3.539   5.197 -32.891  1.00  0.00     0.030 A 
HETATM   33  C   UNL     1      -3.244   6.533 -32.601  1.00  0.00     0.010 A 
HETATM   34  C   UNL     1      -2.319   6.857 -31.604  1.00  0.00    -0.048 A 
HETATM   35  C   UNL     1      -1.971   8.297 -31.332  1.00  0.00     0.069 C 
HETATM   36  C   UNL     1      -1.667   5.830 -30.905  1.00  0.00    -0.022 A 
HETATM   37  C   UNL     1      -1.253   8.487 -29.990  1.00  0.00     0.277 C 
HETATM   38  N   UNL     1      -0.154   7.521 -29.851  1.00  0.00     0.088 N 
HETATM   39  C   UNL     1       0.643   7.809 -28.660  1.00  0.00     0.310 C 
HETATM   40  C   UNL     1      -0.693   6.151 -29.789  1.00  0.00     0.311 C 
HETATM   41  C   UNL     1      -1.978   4.491 -31.201  1.00  0.00     0.039 A 
ENDBRANCH  28  31
ENDBRANCH   1  27
TORSDOF 6
ENDMDL
