MODEL 1
REMARK VINA RESULT:      -9.2      0.000      0.000
REMARK  8 active torsions:
REMARK  status: ('A' for Active; 'I' for Inactive)
REMARK    1  A    between atoms: C_3  and  O_4 
REMARK    2  A    between atoms: C_11  and  C_12 
REMARK    3  A    between atoms: C_12  and  C_13 
REMARK    4  A    between atoms: C_13  and  S_14 
REMARK    5  A    between atoms: S_14  and  C_15 
REMARK    6  A    between atoms: N_16  and  C_17 
REMARK    7  A    between atoms: C_18  and  O_19 
REMARK    8  A    between atoms: C_25  and  N_26 
ROOT
HETATM    1  C   UNL     1      -5.951   4.519 -33.854  1.00  0.00     0.197 A 
HETATM    2  N   UNL     1      -5.222   5.077 -32.817  1.00  0.00    -0.259 N 
HETATM    3  C   UNL     1      -3.963   5.319 -33.388  1.00  0.00     0.211 A 
HETATM    4  N   UNL     1      -3.991   4.941 -34.655  1.00  0.00    -0.116 NA
HETATM    5  N   UNL     1      -5.234   4.466 -34.952  1.00  0.00    -0.121 NA
ENDROOT
BRANCH   1   6
HETATM    6  S   UNL     1      -7.521   3.788 -33.696  1.00  0.00    -0.082 SA
BRANCH   6   7
HETATM    7  C   UNL     1      -7.021   2.172 -33.035  1.00  0.00     0.166 C 
BRANCH   7   8
HETATM    8  C   UNL     1      -6.994   1.091 -34.099  1.00  0.00     0.169 C 
HETATM    9  O   UNL     1      -7.693   1.108 -35.111  1.00  0.00    -0.291 OA
BRANCH   8  10
HETATM   10  C   UNL     1      -6.084  -0.077 -33.876  1.00  0.00     0.011 A 
HETATM   11  C   UNL     1      -4.890   0.037 -33.154  1.00  0.00     0.017 A 
HETATM   12  C   UNL     1      -4.034  -1.058 -32.990  1.00  0.00     0.031 A 
HETATM   13  C   UNL     1      -4.419  -2.273 -33.565  1.00  0.00     0.045 A 
HETATM   14  N   UNL     1      -3.783  -3.491 -33.573  1.00  0.00    -0.336 N 
HETATM   15  C   UNL     1      -5.609  -2.435 -34.271  1.00  0.00     0.002 A 
HETATM   16  C   UNL     1      -4.527  -4.417 -34.247  1.00  0.00     0.147 A 
HETATM   17  H   UNL     1      -2.892  -3.689 -33.143  1.00  0.00     0.168 HD
HETATM   18  C   UNL     1      -5.678  -3.802 -34.700  1.00  0.00     0.001 A 
HETATM   19  C   UNL     1      -6.792  -4.413 -35.472  1.00  0.00     0.054 C 
HETATM   20  C   UNL     1      -6.456  -1.317 -34.424  1.00  0.00     0.029 A 
BRANCH  16  21
HETATM   21  O   UNL     1      -4.066  -5.656 -34.353  1.00  0.00    -0.346 OA
HETATM   22  H   UNL     1      -3.429  -5.793 -33.630  1.00  0.00     0.219 HD
ENDBRANCH  16  21
ENDBRANCH   8  10
ENDBRANCH   7   8
ENDBRANCH   6   7
ENDBRANCH   1   6
BRANCH   2  23
HETATM   23  C   UNL     1      -5.672   5.355 -31.499  1.00  0.00     0.077 A 
HETATM   24  C   UNL     1      -5.380   4.493 -30.430  1.00  0.00     0.095 A 
HETATM   25  C   UNL     1      -5.802   4.852 -29.145  1.00  0.00     0.039 A 
HETATM   26  C   UNL     1      -6.508   6.040 -28.928  1.00  0.00     0.003 A 
HETATM   27  C   UNL     1      -6.811   6.880 -29.994  1.00  0.00     0.002 A 
HETATM   28  C   UNL     1      -6.398   6.540 -31.281  1.00  0.00     0.033 A 
BRANCH  24  29
HETATM   29  O   UNL     1      -4.777   3.301 -30.729  1.00  0.00    -0.354 OA
HETATM   30  C   UNL     1      -5.242   2.140 -30.057  1.00  0.00     0.210 C 
ENDBRANCH  24  29
ENDBRANCH   2  23
BRANCH   3  31
HETATM   31  N   UNL     1      -2.886   5.874 -32.742  1.00  0.00    -0.251 NA
HETATM   32  C   UNL     1      -2.289   7.078 -33.338  1.00  0.00     0.098 C 
HETATM   33  C   UNL     1      -1.373   7.754 -32.317  1.00  0.00     0.015 C 
HETATM   34  C   UNL     1      -0.308   6.789 -31.803  1.00  0.00     0.002 C 
HETATM   35  C   UNL     1      -0.949   5.512 -31.271  1.00  0.00     0.015 C 
HETATM   36  C   UNL     1      -1.879   4.887 -32.310  1.00  0.00     0.098 C 
ENDBRANCH   3  31
TORSDOF 8
ENDMDL
MODEL 2
REMARK VINA RESULT:      -9.2      0.942      1.686
REMARK  8 active torsions:
REMARK  status: ('A' for Active; 'I' for Inactive)
REMARK    1  A    between atoms: C_3  and  O_4 
REMARK    2  A    between atoms: C_11  and  C_12 
REMARK    3  A    between atoms: C_12  and  C_13 
REMARK    4  A    between atoms: C_13  and  S_14 
REMARK    5  A    between atoms: S_14  and  C_15 
REMARK    6  A    between atoms: N_16  and  C_17 
REMARK    7  A    between atoms: C_18  and  O_19 
REMARK    8  A    between atoms: C_25  and  N_26 
ROOT
HETATM    1  C   UNL     1      -5.637   4.646 -33.945  1.00  0.00     0.197 A 
HETATM    2  N   UNL     1      -4.943   5.134 -32.851  1.00  0.00    -0.259 N 
HETATM    3  C   UNL     1      -3.669   5.416 -33.365  1.00  0.00     0.211 A 
HETATM    4  N   UNL     1      -3.656   5.126 -34.655  1.00  0.00    -0.116 NA
HETATM    5  N   UNL     1      -4.887   4.670 -35.022  1.00  0.00    -0.121 NA
ENDROOT
BRANCH   1   6
HETATM    6  S   UNL     1      -7.209   3.902 -33.886  1.00  0.00    -0.082 SA
BRANCH   6   7
HETATM    7  C   UNL     1      -6.743   2.303 -33.162  1.00  0.00     0.166 C 
BRANCH   7   8
HETATM    8  C   UNL     1      -6.894   1.155 -34.142  1.00  0.00     0.169 C 
HETATM    9  O   UNL     1      -7.693   1.153 -35.077  1.00  0.00    -0.291 OA
BRANCH   8  10
HETATM   10  C   UNL     1      -6.037  -0.054 -33.929  1.00  0.00     0.011 A 
HETATM   11  C   UNL     1      -4.831   0.004 -33.219  1.00  0.00     0.017 A 
HETATM   12  C   UNL     1      -4.026  -1.130 -33.064  1.00  0.00     0.031 A 
HETATM   13  C   UNL     1      -4.473  -2.326 -33.634  1.00  0.00     0.045 A 
HETATM   14  N   UNL     1      -3.895  -3.572 -33.648  1.00  0.00    -0.336 N 
HETATM   15  C   UNL     1      -5.677  -2.432 -34.327  1.00  0.00     0.002 A 
HETATM   16  C   UNL     1      -4.689  -4.462 -34.314  1.00  0.00     0.147 A 
HETATM   17  H   UNL     1      -3.009  -3.811 -33.228  1.00  0.00     0.168 HD
HETATM   18  C   UNL     1      -5.815  -3.794 -34.754  1.00  0.00     0.001 A 
HETATM   19  C   UNL     1      -6.964  -4.353 -35.514  1.00  0.00     0.054 C 
HETATM   20  C   UNL     1      -6.473  -1.276 -34.471  1.00  0.00     0.029 A 
BRANCH  16  21
HETATM   21  O   UNL     1      -4.288  -5.721 -34.424  1.00  0.00    -0.346 OA
HETATM   22  H   UNL     1      -4.768  -6.240 -33.755  1.00  0.00     0.219 HD
ENDBRANCH  16  21
ENDBRANCH   8  10
ENDBRANCH   7   8
ENDBRANCH   6   7
ENDBRANCH   1   6
BRANCH   2  23
HETATM   23  C   UNL     1      -5.434   5.320 -31.531  1.00  0.00     0.077 A 
HETATM   24  C   UNL     1      -6.201   6.445 -31.189  1.00  0.00     0.095 A 
HETATM   25  C   UNL     1      -6.705   6.541 -29.886  1.00  0.00     0.039 A 
HETATM   26  C   UNL     1      -6.444   5.543 -28.941  1.00  0.00     0.003 A 
HETATM   27  C   UNL     1      -5.668   4.441 -29.282  1.00  0.00     0.002 A 
HETATM   28  C   UNL     1      -5.158   4.327 -30.573  1.00  0.00     0.033 A 
BRANCH  24  29
HETATM   29  O   UNL     1      -6.330   7.429 -32.130  1.00  0.00    -0.354 OA
HETATM   30  C   UNL     1      -6.974   8.633 -31.742  1.00  0.00     0.210 C 
ENDBRANCH  24  29
ENDBRANCH   2  23
BRANCH   3  31
HETATM   31  N   UNL     1      -2.613   5.928 -32.650  1.00  0.00    -0.251 NA
HETATM   32  C   UNL     1      -2.333   7.364 -32.796  1.00  0.00     0.098 C 
HETATM   33  C   UNL     1      -1.397   7.819 -31.676  1.00  0.00     0.015 C 
HETATM   34  C   UNL     1      -0.114   6.990 -31.654  1.00  0.00     0.002 C 
HETATM   35  C   UNL     1      -0.436   5.501 -31.591  1.00  0.00     0.015 C 
HETATM   36  C   UNL     1      -1.397   5.095 -32.706  1.00  0.00     0.098 C 
ENDBRANCH   3  31
TORSDOF 8
ENDMDL
MODEL 3
REMARK VINA RESULT:      -9.0      2.193      3.857
REMARK  8 active torsions:
REMARK  status: ('A' for Active; 'I' for Inactive)
REMARK    1  A    between atoms: C_3  and  O_4 
REMARK    2  A    between atoms: C_11  and  C_12 
REMARK    3  A    between atoms: C_12  and  C_13 
REMARK    4  A    between atoms: C_13  and  S_14 
REMARK    5  A    between atoms: S_14  and  C_15 
REMARK    6  A    between atoms: N_16  and  C_17 
REMARK    7  A    between atoms: C_18  and  O_19 
REMARK    8  A    between atoms: C_25  and  N_26 
ROOT
HETATM    1  C   UNL     1      -5.214   4.289 -30.678  1.00  0.00     0.197 A 
HETATM    2  N   UNL     1      -4.293   5.221 -31.126  1.00  0.00    -0.259 N 
HETATM    3  C   UNL     1      -4.242   6.163 -30.088  1.00  0.00     0.211 A 
HETATM    4  N   UNL     1      -5.058   5.777 -29.122  1.00  0.00    -0.116 NA
HETATM    5  N   UNL     1      -5.645   4.599 -29.478  1.00  0.00    -0.121 NA
ENDROOT
BRANCH   1   6
HETATM    6  S   UNL     1      -5.881   2.998 -31.635  1.00  0.00    -0.082 SA
BRANCH   6   7
HETATM    7  C   UNL     1      -4.775   1.654 -31.116  1.00  0.00     0.166 C 
BRANCH   7   8
HETATM    8  C   UNL     1      -4.077   0.990 -32.287  1.00  0.00     0.169 C 
HETATM    9  O   UNL     1      -2.927   1.252 -32.638  1.00  0.00    -0.291 OA
BRANCH   8  10
HETATM   10  C   UNL     1      -4.854  -0.018 -33.075  1.00  0.00     0.011 A 
HETATM   11  C   UNL     1      -6.069   0.298 -33.694  1.00  0.00     0.017 A 
HETATM   12  C   UNL     1      -6.800  -0.669 -34.394  1.00  0.00     0.031 A 
HETATM   13  C   UNL     1      -6.267  -1.960 -34.463  1.00  0.00     0.045 A 
HETATM   14  N   UNL     1      -6.761  -3.092 -35.064  1.00  0.00    -0.336 N 
HETATM   15  C   UNL     1      -5.050  -2.310 -33.881  1.00  0.00     0.002 A 
HETATM   16  C   UNL     1      -5.902  -4.140 -34.893  1.00  0.00     0.147 A 
HETATM   17  H   UNL     1      -7.634  -3.155 -35.566  1.00  0.00     0.168 HD
HETATM   18  C   UNL     1      -4.817  -3.697 -34.161  1.00  0.00     0.001 A 
HETATM   19  C   UNL     1      -3.625  -4.479 -33.741  1.00  0.00     0.054 C 
HETATM   20  C   UNL     1      -4.331  -1.319 -33.180  1.00  0.00     0.029 A 
BRANCH  16  21
HETATM   21  O   UNL     1      -6.217  -5.319 -35.413  1.00  0.00    -0.346 OA
HETATM   22  H   UNL     1      -7.167  -5.463 -35.256  1.00  0.00     0.219 HD
ENDBRANCH  16  21
ENDBRANCH   8  10
ENDBRANCH   7   8
ENDBRANCH   6   7
ENDBRANCH   1   6
BRANCH   2  23
HETATM   23  C   UNL     1      -3.564   5.196 -32.345  1.00  0.00     0.077 A 
HETATM   24  C   UNL     1      -2.239   4.732 -32.395  1.00  0.00     0.095 A 
HETATM   25  C   UNL     1      -1.595   4.677 -33.637  1.00  0.00     0.039 A 
HETATM   26  C   UNL     1      -2.251   5.084 -34.803  1.00  0.00     0.003 A 
HETATM   27  C   UNL     1      -3.556   5.561 -34.744  1.00  0.00     0.002 A 
HETATM   28  C   UNL     1      -4.214   5.621 -33.518  1.00  0.00     0.033 A 
BRANCH  24  29
HETATM   29  O   UNL     1      -1.626   4.448 -31.205  1.00  0.00    -0.354 OA
HETATM   30  C   UNL     1      -0.388   5.086 -30.932  1.00  0.00     0.210 C 
ENDBRANCH  24  29
ENDBRANCH   2  23
BRANCH   3  31
HETATM   31  N   UNL     1      -3.457   7.291 -30.069  1.00  0.00    -0.251 NA
HETATM   32  C   UNL     1      -2.481   7.415 -28.977  1.00  0.00     0.098 C 
HETATM   33  C   UNL     1      -1.470   8.510 -29.317  1.00  0.00     0.015 C 
HETATM   34  C   UNL     1      -2.166   9.837 -29.609  1.00  0.00     0.002 C 
HETATM   35  C   UNL     1      -3.233   9.661 -30.683  1.00  0.00     0.015 C 
HETATM   36  C   UNL     1      -4.203   8.538 -30.320  1.00  0.00     0.098 C 
ENDBRANCH   3  31
TORSDOF 8
ENDMDL
MODEL 4
REMARK VINA RESULT:      -8.9      3.137      8.476
REMARK  8 active torsions:
REMARK  status: ('A' for Active; 'I' for Inactive)
REMARK    1  A    between atoms: C_3  and  O_4 
REMARK    2  A    between atoms: C_11  and  C_12 
REMARK    3  A    between atoms: C_12  and  C_13 
REMARK    4  A    between atoms: C_13  and  S_14 
REMARK    5  A    between atoms: S_14  and  C_15 
REMARK    6  A    between atoms: N_16  and  C_17 
REMARK    7  A    between atoms: C_18  and  O_19 
REMARK    8  A    between atoms: C_25  and  N_26 
ROOT
HETATM    1  C   UNL     1      -6.856   3.811 -33.873  1.00  0.00     0.197 A 
HETATM    2  N   UNL     1      -7.673   2.697 -33.967  1.00  0.00    -0.259 N 
HETATM    3  C   UNL     1      -8.953   3.239 -34.157  1.00  0.00     0.211 A 
HETATM    4  N   UNL     1      -8.857   4.557 -34.187  1.00  0.00    -0.116 NA
HETATM    5  N   UNL     1      -7.550   4.913 -34.034  1.00  0.00    -0.121 NA
ENDROOT
BRANCH   1   6
HETATM    6  S   UNL     1      -5.182   3.791 -33.398  1.00  0.00    -0.082 SA
BRANCH   6   7
HETATM    7  C   UNL     1      -4.534   5.008 -34.580  1.00  0.00     0.166 C 
BRANCH   7   8
HETATM    8  C   UNL     1      -3.081   5.355 -34.319  1.00  0.00     0.169 C 
HETATM    9  O   UNL     1      -2.204   5.330 -35.182  1.00  0.00    -0.291 OA
BRANCH   8  10
HETATM   10  C   UNL     1      -2.696   5.715 -32.918  1.00  0.00     0.011 A 
HETATM   11  C   UNL     1      -3.538   6.460 -32.083  1.00  0.00     0.017 A 
HETATM   12  C   UNL     1      -3.143   6.820 -30.789  1.00  0.00     0.031 A 
HETATM   13  C   UNL     1      -1.883   6.400 -30.356  1.00  0.00     0.045 A 
HETATM   14  N   UNL     1      -1.240   6.610 -29.160  1.00  0.00    -0.336 N 
HETATM   15  C   UNL     1      -1.024   5.638 -31.146  1.00  0.00     0.002 A 
HETATM   16  C   UNL     1      -0.016   6.006 -29.159  1.00  0.00     0.147 A 
HETATM   17  H   UNL     1      -1.610   7.135 -28.381  1.00  0.00     0.168 HD
HETATM   18  C   UNL     1       0.161   5.383 -30.380  1.00  0.00     0.001 A 
HETATM   19  C   UNL     1       1.334   4.591 -30.834  1.00  0.00     0.054 C 
HETATM   20  C   UNL     1      -1.442   5.287 -32.447  1.00  0.00     0.029 A 
BRANCH  16  21
HETATM   21  O   UNL     1       0.746   6.102 -28.078  1.00  0.00    -0.346 OA
HETATM   22  H   UNL     1       1.629   5.763 -28.312  1.00  0.00     0.219 HD
ENDBRANCH  16  21
ENDBRANCH   8  10
ENDBRANCH   7   8
ENDBRANCH   6   7
ENDBRANCH   1   6
BRANCH   2  23
HETATM   23  C   UNL     1      -7.281   1.333 -33.907  1.00  0.00     0.077 A 
HETATM   24  C   UNL     1      -7.127   0.670 -32.679  1.00  0.00     0.095 A 
HETATM   25  C   UNL     1      -6.796  -0.690 -32.689  1.00  0.00     0.039 A 
HETATM   26  C   UNL     1      -6.613  -1.375 -33.895  1.00  0.00     0.003 A 
HETATM   27  C   UNL     1      -6.748  -0.707 -35.107  1.00  0.00     0.002 A 
HETATM   28  C   UNL     1      -7.079   0.646 -35.118  1.00  0.00     0.033 A 
BRANCH  24  29
HETATM   29  O   UNL     1      -7.220   1.423 -31.541  1.00  0.00    -0.354 OA
HETATM   30  C   UNL     1      -6.293   1.160 -30.498  1.00  0.00     0.210 C 
ENDBRANCH  24  29
ENDBRANCH   2  23
BRANCH   3  31
HETATM   31  N   UNL     1     -10.112   2.517 -34.307  1.00  0.00    -0.251 NA
HETATM   32  C   UNL     1     -11.232   3.176 -34.995  1.00  0.00     0.098 C 
HETATM   33  C   UNL     1     -12.274   2.130 -35.394  1.00  0.00     0.015 C 
HETATM   34  C   UNL     1     -12.745   1.327 -34.184  1.00  0.00     0.002 C 
HETATM   35  C   UNL     1     -11.558   0.728 -33.438  1.00  0.00     0.015 C 
HETATM   36  C   UNL     1     -10.529   1.800 -33.087  1.00  0.00     0.098 C 
ENDBRANCH   3  31
TORSDOF 8
ENDMDL
MODEL 5
REMARK VINA RESULT:      -8.8      4.313      6.213
REMARK  8 active torsions:
REMARK  status: ('A' for Active; 'I' for Inactive)
REMARK    1  A    between atoms: C_3  and  O_4 
REMARK    2  A    between atoms: C_11  and  C_12 
REMARK    3  A    between atoms: C_12  and  C_13 
REMARK    4  A    between atoms: C_13  and  S_14 
REMARK    5  A    between atoms: S_14  and  C_15 
REMARK    6  A    between atoms: N_16  and  C_17 
REMARK    7  A    between atoms: C_18  and  O_19 
REMARK    8  A    between atoms: C_25  and  N_26 
ROOT
HETATM    1  C   UNL     1      -9.350   1.600 -32.177  1.00  0.00     0.197 A 
HETATM    2  N   UNL     1     -10.213   2.654 -32.426  1.00  0.00    -0.259 N 
HETATM    3  C   UNL     1     -10.045   3.490 -31.311  1.00  0.00     0.211 A 
HETATM    4  N   UNL     1      -9.142   2.954 -30.509  1.00  0.00    -0.116 NA
HETATM    5  N   UNL     1      -8.691   1.791 -31.058  1.00  0.00    -0.121 NA
ENDROOT
BRANCH   1   6
HETATM    6  S   UNL     1      -9.283   0.121 -33.092  1.00  0.00    -0.082 SA
BRANCH   6   7
HETATM    7  C   UNL     1      -8.453   0.742 -34.583  1.00  0.00     0.166 C 
BRANCH   7   8
HETATM    8  C   UNL     1      -6.992   1.070 -34.341  1.00  0.00     0.169 C 
HETATM    9  O   UNL     1      -6.520   2.204 -34.423  1.00  0.00    -0.291 OA
BRANCH   8  10
HETATM   10  C   UNL     1      -6.072  -0.066 -34.016  1.00  0.00     0.011 A 
HETATM   11  C   UNL     1      -4.933   0.103 -33.219  1.00  0.00     0.017 A 
HETATM   12  C   UNL     1      -4.065  -0.964 -32.959  1.00  0.00     0.031 A 
HETATM   13  C   UNL     1      -4.381  -2.206 -33.515  1.00  0.00     0.045 A 
HETATM   14  N   UNL     1      -3.718  -3.407 -33.436  1.00  0.00    -0.336 N 
HETATM   15  C   UNL     1      -5.516  -2.423 -34.293  1.00  0.00     0.002 A 
HETATM   16  C   UNL     1      -4.392  -4.374 -34.126  1.00  0.00     0.147 A 
HETATM   17  H   UNL     1      -2.854  -3.567 -32.941  1.00  0.00     0.168 HD
HETATM   18  C   UNL     1      -5.524  -3.805 -34.676  1.00  0.00     0.001 A 
HETATM   19  C   UNL     1      -6.568  -4.471 -35.500  1.00  0.00     0.054 C 
HETATM   20  C   UNL     1      -6.377  -1.333 -34.543  1.00  0.00     0.029 A 
BRANCH  16  21
HETATM   21  O   UNL     1      -3.897  -5.604 -34.156  1.00  0.00    -0.346 OA
HETATM   22  H   UNL     1      -3.482  -5.730 -35.028  1.00  0.00     0.219 HD
ENDBRANCH  16  21
ENDBRANCH   8  10
ENDBRANCH   7   8
ENDBRANCH   6   7
ENDBRANCH   1   6
BRANCH   2  23
HETATM   23  C   UNL     1     -11.046   2.837 -33.562  1.00  0.00     0.077 A 
HETATM   24  C   UNL     1     -10.655   3.664 -34.628  1.00  0.00     0.095 A 
HETATM   25  C   UNL     1     -11.494   3.758 -35.745  1.00  0.00     0.039 A 
HETATM   26  C   UNL     1     -12.699   3.050 -35.798  1.00  0.00     0.003 A 
HETATM   27  C   UNL     1     -13.089   2.248 -34.730  1.00  0.00     0.002 A 
HETATM   28  C   UNL     1     -12.267   2.142 -33.610  1.00  0.00     0.033 A 
BRANCH  24  29
HETATM   29  O   UNL     1      -9.517   4.405 -34.466  1.00  0.00    -0.354 OA
HETATM   30  C   UNL     1      -9.629   5.817 -34.559  1.00  0.00     0.210 C 
ENDBRANCH  24  29
ENDBRANCH   2  23
BRANCH   3  31
HETATM   31  N   UNL     1     -10.699   4.680 -31.099  1.00  0.00    -0.251 NA
HETATM   32  C   UNL     1      -9.941   5.759 -30.449  1.00  0.00     0.098 C 
HETATM   33  C   UNL     1     -10.680   7.085 -30.630  1.00  0.00     0.015 C 
HETATM   34  C   UNL     1     -12.111   6.999 -30.103  1.00  0.00     0.002 C 
HETATM   35  C   UNL     1     -12.846   5.819 -30.729  1.00  0.00     0.015 C 
HETATM   36  C   UNL     1     -12.059   4.522 -30.552  1.00  0.00     0.098 C 
ENDBRANCH   3  31
TORSDOF 8
ENDMDL
MODEL 6
REMARK VINA RESULT:      -8.7      2.102      4.169
REMARK  8 active torsions:
REMARK  status: ('A' for Active; 'I' for Inactive)
REMARK    1  A    between atoms: C_3  and  O_4 
REMARK    2  A    between atoms: C_11  and  C_12 
REMARK    3  A    between atoms: C_12  and  C_13 
REMARK    4  A    between atoms: C_13  and  S_14 
REMARK    5  A    between atoms: S_14  and  C_15 
REMARK    6  A    between atoms: N_16  and  C_17 
REMARK    7  A    between atoms: C_18  and  O_19 
REMARK    8  A    between atoms: C_25  and  N_26 
ROOT
HETATM    1  C   UNL     1      -4.307   4.038 -30.974  1.00  0.00     0.197 A 
HETATM    2  N   UNL     1      -4.014   5.386 -31.095  1.00  0.00    -0.259 N 
HETATM    3  C   UNL     1      -4.995   6.011 -30.311  1.00  0.00     0.211 A 
HETATM    4  N   UNL     1      -5.768   5.082 -29.776  1.00  0.00    -0.116 NA
HETATM    5  N   UNL     1      -5.327   3.854 -30.168  1.00  0.00    -0.121 NA
ENDROOT
BRANCH   1   6
HETATM    6  S   UNL     1      -3.581   2.765 -31.911  1.00  0.00    -0.082 SA
BRANCH   6   7
HETATM    7  C   UNL     1      -4.881   1.508 -31.745  1.00  0.00     0.166 C 
BRANCH   7   8
HETATM    8  C   UNL     1      -5.711   1.359 -33.005  1.00  0.00     0.169 C 
HETATM    9  O   UNL     1      -6.344   2.278 -33.522  1.00  0.00    -0.291 OA
BRANCH   8  10
HETATM   10  C   UNL     1      -5.783  -0.000 -33.630  1.00  0.00     0.011 A 
HETATM   11  C   UNL     1      -6.697  -0.305 -34.646  1.00  0.00     0.017 A 
HETATM   12  C   UNL     1      -6.775  -1.592 -35.190  1.00  0.00     0.031 A 
HETATM   13  C   UNL     1      -5.899  -2.560 -34.691  1.00  0.00     0.045 A 
HETATM   14  N   UNL     1      -5.760  -3.886 -35.024  1.00  0.00    -0.336 N 
HETATM   15  C   UNL     1      -4.959  -2.293 -33.698  1.00  0.00     0.002 A 
HETATM   16  C   UNL     1      -4.764  -4.464 -34.289  1.00  0.00     0.147 A 
HETATM   17  H   UNL     1      -6.308  -4.377 -35.715  1.00  0.00     0.168 HD
HETATM   18  C   UNL     1      -4.234  -3.505 -33.447  1.00  0.00     0.001 A 
HETATM   19  C   UNL     1      -3.124  -3.666 -32.472  1.00  0.00     0.054 C 
HETATM   20  C   UNL     1      -4.899  -0.989 -33.163  1.00  0.00     0.029 A 
BRANCH  16  21
HETATM   21  O   UNL     1      -4.486  -5.746 -34.481  1.00  0.00    -0.346 OA
HETATM   22  H   UNL     1      -5.085  -6.073 -35.176  1.00  0.00     0.219 HD
ENDBRANCH  16  21
ENDBRANCH   8  10
ENDBRANCH   7   8
ENDBRANCH   6   7
ENDBRANCH   1   6
BRANCH   2  23
HETATM   23  C   UNL     1      -2.947   5.974 -31.827  1.00  0.00     0.077 A 
HETATM   24  C   UNL     1      -3.105   6.355 -33.169  1.00  0.00     0.095 A 
HETATM   25  C   UNL     1      -2.035   6.983 -33.817  1.00  0.00     0.039 A 
HETATM   26  C   UNL     1      -0.830   7.219 -33.148  1.00  0.00     0.003 A 
HETATM   27  C   UNL     1      -0.674   6.821 -31.824  1.00  0.00     0.002 A 
HETATM   28  C   UNL     1      -1.728   6.196 -31.161  1.00  0.00     0.033 A 
BRANCH  24  29
HETATM   29  O   UNL     1      -4.272   6.003 -33.790  1.00  0.00    -0.354 OA
HETATM   30  C   UNL     1      -4.190   5.106 -34.888  1.00  0.00     0.210 C 
ENDBRANCH  24  29
ENDBRANCH   2  23
BRANCH   3  31
HETATM   31  N   UNL     1      -5.119   7.366 -30.116  1.00  0.00    -0.251 NA
HETATM   32  C   UNL     1      -5.415   7.826 -28.752  1.00  0.00     0.098 C 
HETATM   33  C   UNL     1      -5.152   9.329 -28.651  1.00  0.00     0.015 C 
HETATM   34  C   UNL     1      -5.951  10.103 -29.696  1.00  0.00     0.002 C 
HETATM   35  C   UNL     1      -5.693   9.548 -31.092  1.00  0.00     0.015 C 
HETATM   36  C   UNL     1      -5.937   8.041 -31.141  1.00  0.00     0.098 C 
ENDBRANCH   3  31
TORSDOF 8
ENDMDL
MODEL 7
REMARK VINA RESULT:      -8.6      3.273      8.728
REMARK  8 active torsions:
REMARK  status: ('A' for Active; 'I' for Inactive)
REMARK    1  A    between atoms: C_3  and  O_4 
REMARK    2  A    between atoms: C_11  and  C_12 
REMARK    3  A    between atoms: C_12  and  C_13 
REMARK    4  A    between atoms: C_13  and  S_14 
REMARK    5  A    between atoms: S_14  and  C_15 
REMARK    6  A    between atoms: N_16  and  C_17 
REMARK    7  A    between atoms: C_18  and  O_19 
REMARK    8  A    between atoms: C_25  and  N_26 
ROOT
HETATM    1  C   UNL     1      -5.392   4.236 -33.549  1.00  0.00     0.197 A 
HETATM    2  N   UNL     1      -6.248   3.220 -33.158  1.00  0.00    -0.259 N 
HETATM    3  C   UNL     1      -7.513   3.681 -33.553  1.00  0.00     0.211 A 
HETATM    4  N   UNL     1      -7.374   4.857 -34.139  1.00  0.00    -0.116 NA
HETATM    5  N   UNL     1      -6.052   5.192 -34.159  1.00  0.00    -0.121 NA
ENDROOT
BRANCH   1   6
HETATM    6  S   UNL     1      -3.710   4.352 -33.119  1.00  0.00    -0.082 SA
BRANCH   6   7
HETATM    7  C   UNL     1      -3.543   6.161 -33.100  1.00  0.00     0.166 C 
BRANCH   7   8
HETATM    8  C   UNL     1      -2.098   6.612 -33.178  1.00  0.00     0.169 C 
HETATM    9  O   UNL     1      -1.585   7.098 -34.186  1.00  0.00    -0.291 OA
BRANCH   8  10
HETATM   10  C   UNL     1      -1.245   6.420 -31.962  1.00  0.00     0.011 A 
HETATM   11  C   UNL     1      -0.386   5.323 -31.821  1.00  0.00     0.017 A 
HETATM   12  C   UNL     1       0.373   5.141 -30.660  1.00  0.00     0.031 A 
HETATM   13  C   UNL     1       0.252   6.100 -29.650  1.00  0.00     0.045 A 
HETATM   14  N   UNL     1       0.859   6.173 -28.419  1.00  0.00    -0.336 N 
HETATM   15  C   UNL     1      -0.572   7.217 -29.760  1.00  0.00     0.002 A 
HETATM   16  C   UNL     1       0.458   7.294 -27.752  1.00  0.00     0.147 A 
HETATM   17  H   UNL     1       1.513   5.499 -28.048  1.00  0.00     0.168 HD
HETATM   18  C   UNL     1      -0.435   7.980 -28.552  1.00  0.00     0.001 A 
HETATM   19  C   UNL     1      -1.126   9.261 -28.252  1.00  0.00     0.054 C 
HETATM   20  C   UNL     1      -1.329   7.380 -30.939  1.00  0.00     0.029 A 
BRANCH  16  21
HETATM   21  O   UNL     1       0.948   7.531 -26.542  1.00  0.00    -0.346 OA
HETATM   22  H   UNL     1       0.772   6.744 -25.997  1.00  0.00     0.219 HD
ENDBRANCH  16  21
ENDBRANCH   8  10
ENDBRANCH   7   8
ENDBRANCH   6   7
ENDBRANCH   1   6
BRANCH   2  23
HETATM   23  C   UNL     1      -5.901   1.994 -32.528  1.00  0.00     0.077 A 
HETATM   24  C   UNL     1      -5.943   1.853 -31.131  1.00  0.00     0.095 A 
HETATM   25  C   UNL     1      -5.646   0.603 -30.575  1.00  0.00     0.039 A 
HETATM   26  C   UNL     1      -5.305  -0.481 -31.391  1.00  0.00     0.003 A 
HETATM   27  C   UNL     1      -5.247  -0.329 -32.772  1.00  0.00     0.002 A 
HETATM   28  C   UNL     1      -5.541   0.907 -33.344  1.00  0.00     0.033 A 
BRANCH  24  29
HETATM   29  O   UNL     1      -6.182   2.979 -30.392  1.00  0.00    -0.354 OA
HETATM   30  C   UNL     1      -7.470   3.127 -29.813  1.00  0.00     0.210 C 
ENDBRANCH  24  29
ENDBRANCH   2  23
BRANCH   3  31
HETATM   31  N   UNL     1      -8.699   3.010 -33.377  1.00  0.00    -0.251 NA
HETATM   32  C   UNL     1      -8.984   1.893 -34.290  1.00  0.00     0.098 C 
HETATM   33  C   UNL     1     -10.129   1.051 -33.727  1.00  0.00     0.015 C 
HETATM   34  C   UNL     1     -11.369   1.903 -33.469  1.00  0.00     0.002 C 
HETATM   35  C   UNL     1     -11.027   3.101 -32.591  1.00  0.00     0.015 C 
HETATM   36  C   UNL     1      -9.859   3.896 -33.173  1.00  0.00     0.098 C 
ENDBRANCH   3  31
TORSDOF 8
ENDMDL
MODEL 8
REMARK VINA RESULT:      -8.6      1.968      2.772
REMARK  8 active torsions:
REMARK  status: ('A' for Active; 'I' for Inactive)
REMARK    1  A    between atoms: C_3  and  O_4 
REMARK    2  A    between atoms: C_11  and  C_12 
REMARK    3  A    between atoms: C_12  and  C_13 
REMARK    4  A    between atoms: C_13  and  S_14 
REMARK    5  A    between atoms: S_14  and  C_15 
REMARK    6  A    between atoms: N_16  and  C_17 
REMARK    7  A    between atoms: C_18  and  O_19 
REMARK    8  A    between atoms: C_25  and  N_26 
ROOT
HETATM    1  C   UNL     1      -4.679   3.038 -30.916  1.00  0.00     0.197 A 
HETATM    2  N   UNL     1      -4.185   4.332 -30.952  1.00  0.00    -0.259 N 
HETATM    3  C   UNL     1      -2.827   4.161 -31.257  1.00  0.00     0.211 A 
HETATM    4  N   UNL     1      -2.582   2.870 -31.400  1.00  0.00    -0.116 NA
HETATM    5  N   UNL     1      -3.738   2.172 -31.213  1.00  0.00    -0.121 NA
ENDROOT
BRANCH   1   6
HETATM    6  S   UNL     1      -6.261   2.583 -30.355  1.00  0.00    -0.082 SA
BRANCH   6   7
HETATM    7  C   UNL     1      -7.087   2.377 -31.960  1.00  0.00     0.166 C 
BRANCH   7   8
HETATM    8  C   UNL     1      -7.826   1.058 -32.068  1.00  0.00     0.169 C 
HETATM    9  O   UNL     1      -8.888   0.817 -31.495  1.00  0.00    -0.291 OA
BRANCH   8  10
HETATM   10  C   UNL     1      -7.200  -0.020 -32.899  1.00  0.00     0.011 A 
HETATM   11  C   UNL     1      -7.784  -0.478 -34.087  1.00  0.00     0.017 A 
HETATM   12  C   UNL     1      -7.203  -1.513 -34.829  1.00  0.00     0.031 A 
HETATM   13  C   UNL     1      -6.014  -2.066 -34.347  1.00  0.00     0.045 A 
HETATM   14  N   UNL     1      -5.240  -3.082 -34.854  1.00  0.00    -0.336 N 
HETATM   15  C   UNL     1      -5.388  -1.624 -33.183  1.00  0.00     0.002 A 
HETATM   16  C   UNL     1      -4.147  -3.294 -34.062  1.00  0.00     0.147 A 
HETATM   17  H   UNL     1      -5.438  -3.606 -35.693  1.00  0.00     0.168 HD
HETATM   18  C   UNL     1      -4.196  -2.403 -33.007  1.00  0.00     0.001 A 
HETATM   19  C   UNL     1      -3.218  -2.253 -31.898  1.00  0.00     0.054 C 
HETATM   20  C   UNL     1      -5.992  -0.580 -32.451  1.00  0.00     0.029 A 
BRANCH  16  21
HETATM   21  O   UNL     1      -3.282  -4.240 -34.402  1.00  0.00    -0.346 OA
HETATM   22  H   UNL     1      -3.771  -4.915 -34.904  1.00  0.00     0.219 HD
ENDBRANCH  16  21
ENDBRANCH   8  10
ENDBRANCH   7   8
ENDBRANCH   6   7
ENDBRANCH   1   6
BRANCH   2  23
HETATM   23  C   UNL     1      -4.910   5.537 -30.749  1.00  0.00     0.077 A 
HETATM   24  C   UNL     1      -5.444   6.258 -31.829  1.00  0.00     0.095 A 
HETATM   25  C   UNL     1      -6.199   7.407 -31.559  1.00  0.00     0.039 A 
HETATM   26  C   UNL     1      -6.410   7.833 -30.244  1.00  0.00     0.003 A 
HETATM   27  C   UNL     1      -5.861   7.124 -29.181  1.00  0.00     0.002 A 
HETATM   28  C   UNL     1      -5.109   5.978 -29.429  1.00  0.00     0.033 A 
BRANCH  24  29
HETATM   29  O   UNL     1      -5.113   5.843 -33.090  1.00  0.00    -0.354 OA
HETATM   30  C   UNL     1      -6.112   5.179 -33.850  1.00  0.00     0.210 C 
ENDBRANCH  24  29
ENDBRANCH   2  23
BRANCH   3  31
HETATM   31  N   UNL     1      -1.907   5.171 -31.402  1.00  0.00    -0.251 NA
HETATM   32  C   UNL     1      -1.482   5.505 -32.769  1.00  0.00     0.098 C 
HETATM   33  C   UNL     1      -0.768   6.857 -32.767  1.00  0.00     0.015 C 
HETATM   34  C   UNL     1       0.406   6.863 -31.791  1.00  0.00     0.002 C 
HETATM   35  C   UNL     1      -0.046   6.428 -30.401  1.00  0.00     0.015 C 
HETATM   36  C   UNL     1      -0.781   5.090 -30.453  1.00  0.00     0.098 C 
ENDBRANCH   3  31
TORSDOF 8
ENDMDL
MODEL 9
REMARK VINA RESULT:      -8.6      3.019      5.332
REMARK  8 active torsions:
REMARK  status: ('A' for Active; 'I' for Inactive)
REMARK    1  A    between atoms: C_3  and  O_4 
REMARK    2  A    between atoms: C_11  and  C_12 
REMARK    3  A    between atoms: C_12  and  C_13 
REMARK    4  A    between atoms: C_13  and  S_14 
REMARK    5  A    between atoms: S_14  and  C_15 
REMARK    6  A    between atoms: N_16  and  C_17 
REMARK    7  A    between atoms: C_18  and  O_19 
REMARK    8  A    between atoms: C_25  and  N_26 
ROOT
HETATM    1  C   UNL     1      -7.298   2.041 -31.021  1.00  0.00     0.197 A 
HETATM    2  N   UNL     1      -7.912   3.132 -31.615  1.00  0.00    -0.259 N 
HETATM    3  C   UNL     1      -9.024   2.575 -32.264  1.00  0.00     0.211 A 
HETATM    4  N   UNL     1      -9.043   1.273 -32.035  1.00  0.00    -0.116 NA
HETATM    5  N   UNL     1      -7.984   0.944 -31.242  1.00  0.00    -0.121 NA
ENDROOT
BRANCH   1   6
HETATM    6  S   UNL     1      -5.731   2.060 -30.266  1.00  0.00    -0.082 SA
BRANCH   6   7
HETATM    7  C   UNL     1      -4.695   2.139 -31.756  1.00  0.00     0.166 C 
BRANCH   7   8
HETATM    8  C   UNL     1      -3.983   0.831 -32.039  1.00  0.00     0.169 C 
HETATM    9  O   UNL     1      -2.869   0.547 -31.600  1.00  0.00    -0.291 OA
BRANCH   8  10
HETATM   10  C   UNL     1      -4.671  -0.152 -32.935  1.00  0.00     0.011 A 
HETATM   11  C   UNL     1      -5.792   0.195 -33.699  1.00  0.00     0.017 A 
HETATM   12  C   UNL     1      -6.444  -0.749 -34.500  1.00  0.00     0.031 A 
HETATM   13  C   UNL     1      -5.931  -2.049 -34.518  1.00  0.00     0.045 A 
HETATM   14  N   UNL     1      -6.364  -3.164 -35.194  1.00  0.00    -0.336 N 
HETATM   15  C   UNL     1      -4.805  -2.430 -33.792  1.00  0.00     0.002 A 
HETATM   16  C   UNL     1      -5.553  -4.231 -34.930  1.00  0.00     0.147 A 
HETATM   17  H   UNL     1      -7.167  -3.204 -35.804  1.00  0.00     0.168 HD
HETATM   18  C   UNL     1      -4.563  -3.818 -34.060  1.00  0.00     0.001 A 
HETATM   19  C   UNL     1      -3.448  -4.628 -33.502  1.00  0.00     0.054 C 
HETATM   20  C   UNL     1      -4.163  -1.462 -32.991  1.00  0.00     0.029 A 
BRANCH  16  21
HETATM   21  O   UNL     1      -5.820  -5.397 -35.503  1.00  0.00    -0.346 OA
HETATM   22  H   UNL     1      -6.474  -5.853 -34.944  1.00  0.00     0.219 HD
ENDBRANCH  16  21
ENDBRANCH   8  10
ENDBRANCH   7   8
ENDBRANCH   6   7
ENDBRANCH   1   6
BRANCH   2  23
HETATM   23  C   UNL     1      -7.505   4.491 -31.549  1.00  0.00     0.077 A 
HETATM   24  C   UNL     1      -6.869   5.118 -32.632  1.00  0.00     0.095 A 
HETATM   25  C   UNL     1      -6.546   6.476 -32.526  1.00  0.00     0.039 A 
HETATM   26  C   UNL     1      -6.842   7.194 -31.362  1.00  0.00     0.003 A 
HETATM   27  C   UNL     1      -7.455   6.562 -30.286  1.00  0.00     0.002 A 
HETATM   28  C   UNL     1      -7.785   5.212 -30.373  1.00  0.00     0.033 A 
BRANCH  24  29
HETATM   29  O   UNL     1      -6.518   4.332 -33.696  1.00  0.00    -0.354 OA
HETATM   30  C   UNL     1      -5.285   4.610 -34.343  1.00  0.00     0.210 C 
ENDBRANCH  24  29
ENDBRANCH   2  23
BRANCH   3  31
HETATM   31  N   UNL     1      -9.951   3.271 -33.000  1.00  0.00    -0.251 NA
HETATM   32  C   UNL     1     -11.333   3.294 -32.497  1.00  0.00     0.098 C 
HETATM   33  C   UNL     1     -12.120   4.392 -33.213  1.00  0.00     0.015 C 
HETATM   34  C   UNL     1     -12.072   4.211 -34.728  1.00  0.00     0.002 C 
HETATM   35  C   UNL     1     -10.630   4.102 -35.213  1.00  0.00     0.015 C 
HETATM   36  C   UNL     1      -9.872   3.017 -34.451  1.00  0.00     0.098 C 
ENDBRANCH   3  31
TORSDOF 8
ENDMDL
MODEL 10
REMARK VINA RESULT:      -8.5      4.073      6.476
REMARK  8 active torsions:
REMARK  status: ('A' for Active; 'I' for Inactive)
REMARK    1  A    between atoms: C_3  and  O_4 
REMARK    2  A    between atoms: C_11  and  C_12 
REMARK    3  A    between atoms: C_12  and  C_13 
REMARK    4  A    between atoms: C_13  and  S_14 
REMARK    5  A    between atoms: S_14  and  C_15 
REMARK    6  A    between atoms: N_16  and  C_17 
REMARK    7  A    between atoms: C_18  and  O_19 
REMARK    8  A    between atoms: C_25  and  N_26 
ROOT
HETATM    1  C   UNL     1      -7.012   3.699 -30.911  1.00  0.00     0.197 A 
HETATM    2  N   UNL     1      -6.140   3.387 -31.941  1.00  0.00    -0.259 N 
HETATM    3  C   UNL     1      -5.264   4.482 -31.977  1.00  0.00     0.211 A 
HETATM    4  N   UNL     1      -5.607   5.334 -31.027  1.00  0.00    -0.116 NA
HETATM    5  N   UNL     1      -6.679   4.836 -30.347  1.00  0.00    -0.121 NA
ENDROOT
BRANCH   1   6
HETATM    6  S   UNL     1      -8.472   2.831 -30.535  1.00  0.00    -0.082 SA
BRANCH   6   7
HETATM    7  C   UNL     1      -9.636   4.226 -30.508  1.00  0.00     0.166 C 
BRANCH   7   8
HETATM    8  C   UNL     1     -10.036   4.677 -31.899  1.00  0.00     0.169 C 
HETATM    9  O   UNL     1      -9.819   5.803 -32.345  1.00  0.00    -0.291 OA
BRANCH   8  10
HETATM   10  C   UNL     1     -10.769   3.695 -32.761  1.00  0.00     0.011 A 
HETATM   11  C   UNL     1     -10.180   3.111 -33.889  1.00  0.00     0.017 A 
HETATM   12  C   UNL     1     -10.895   2.225 -34.703  1.00  0.00     0.031 A 
HETATM   13  C   UNL     1     -12.214   1.936 -34.344  1.00  0.00     0.045 A 
HETATM   14  N   UNL     1     -13.141   1.124 -34.952  1.00  0.00    -0.336 N 
HETATM   15  C   UNL     1     -12.830   2.477 -33.218  1.00  0.00     0.002 A 
HETATM   16  C   UNL     1     -14.313   1.123 -34.250  1.00  0.00     0.147 A 
HETATM   17  H   UNL     1     -12.990   0.594 -35.798  1.00  0.00     0.168 HD
HETATM   18  C   UNL     1     -14.164   1.954 -33.156  1.00  0.00     0.001 A 
HETATM   19  C   UNL     1     -15.167   2.257 -32.103  1.00  0.00     0.054 C 
HETATM   20  C   UNL     1     -12.091   3.368 -32.411  1.00  0.00     0.029 A 
BRANCH  16  21
HETATM   21  O   UNL     1     -15.324   0.387 -34.691  1.00  0.00    -0.346 OA
HETATM   22  H   UNL     1     -15.818   0.925 -35.335  1.00  0.00     0.219 HD
ENDBRANCH  16  21
ENDBRANCH   8  10
ENDBRANCH   7   8
ENDBRANCH   6   7
ENDBRANCH   1   6
BRANCH   2  23
HETATM   23  C   UNL     1      -6.138   2.214 -32.743  1.00  0.00     0.077 A 
HETATM   24  C   UNL     1      -5.427   1.066 -32.356  1.00  0.00     0.095 A 
HETATM   25  C   UNL     1      -5.512  -0.077 -33.160  1.00  0.00     0.039 A 
HETATM   26  C   UNL     1      -6.280  -0.075 -34.329  1.00  0.00     0.003 A 
HETATM   27  C   UNL     1      -6.966   1.071 -34.716  1.00  0.00     0.002 A 
HETATM   28  C   UNL     1      -6.894   2.218 -33.928  1.00  0.00     0.033 A 
BRANCH  24  29
HETATM   29  O   UNL     1      -4.616   1.167 -31.259  1.00  0.00    -0.354 OA
HETATM   30  C   UNL     1      -3.554   0.233 -31.135  1.00  0.00     0.210 C 
ENDBRANCH  24  29
ENDBRANCH   2  23
BRANCH   3  31
HETATM   31  N   UNL     1      -4.210   4.633 -32.846  1.00  0.00    -0.251 NA
HETATM   32  C   UNL     1      -2.910   5.007 -32.271  1.00  0.00     0.098 C 
HETATM   33  C   UNL     1      -1.807   4.769 -33.302  1.00  0.00     0.015 C 
HETATM   34  C   UNL     1      -2.089   5.521 -34.600  1.00  0.00     0.002 C 
HETATM   35  C   UNL     1      -3.478   5.182 -35.129  1.00  0.00     0.015 C 
HETATM   36  C   UNL     1      -4.545   5.404 -34.058  1.00  0.00     0.098 C 
ENDBRANCH   3  31
TORSDOF 8
ENDMDL
