MODEL 1
REMARK VINA RESULT:      -9.2      0.000      0.000
REMARK  3 active torsions:
REMARK  status: ('A' for Active; 'I' for Inactive)
REMARK    1  A    between atoms: C_7  and  C_8 
REMARK    2  A    between atoms: N_9  and  C_11 
REMARK    3  A    between atoms: C_11  and  C_12 
ROOT
HETATM    1  C   UNL     1      -6.537   0.965 -33.525  1.00  0.00     0.238 C 
HETATM    2  N   UNL     1      -7.689   1.257 -32.575  1.00  0.00    -0.056 N 
HETATM    3  H   UNL     1      -7.837   2.270 -32.641  1.00  0.00     0.281 HD
HETATM    4  C   UNL     1      -7.392   0.984 -31.123  1.00  0.00     0.236 C 
HETATM    5  C   UNL     1      -6.149   1.742 -30.687  1.00  0.00     0.028 C 
HETATM    6  C   UNL     1      -4.949   1.418 -31.563  1.00  0.00     0.004 C 
HETATM    7  C   UNL     1      -5.264   1.666 -33.033  1.00  0.00     0.040 C 
ENDROOT
BRANCH   2   8
HETATM    8  C   UNL     1      -9.009   0.632 -32.984  1.00  0.00     0.294 C 
BRANCH   8   9
HETATM    9  C   UNL     1      -9.891   1.571 -33.706  1.00  0.00     0.061 A 
HETATM   10  N   UNL     1     -11.237   1.364 -33.938  1.00  0.00    -0.305 N 
HETATM   11  C   UNL     1     -11.678   2.442 -34.667  1.00  0.00     0.151 A 
HETATM   12  C   UNL     1     -12.122   0.347 -33.618  1.00  0.00     0.118 A 
HETATM   13  C   UNL     1     -13.052   2.476 -35.092  1.00  0.00     0.167 A 
HETATM   14  N   UNL     1     -10.732   3.323 -34.888  1.00  0.00    -0.239 NA
HETATM   15  N   UNL     1     -13.874   1.502 -34.805  1.00  0.00    -0.268 NA
HETATM   16  C   UNL     1     -13.390   0.445 -34.054  1.00  0.00     0.134 A 
HETATM   17  C   UNL     1      -9.631   2.814 -34.259  1.00  0.00     0.146 A 
ENDBRANCH   8   9
ENDBRANCH   2   8
BRANCH   1  18
HETATM   18  C   UNL     1      -6.333  -0.486 -33.829  1.00  0.00     0.041 A 
HETATM   19  N   UNL     1      -5.168  -1.129 -33.453  1.00  0.00    -0.357 N 
HETATM   20  C   UNL     1      -5.158  -2.425 -33.911  1.00  0.00     0.042 A 
HETATM   21  H   UNL     1      -4.396  -0.720 -32.940  1.00  0.00     0.166 HD
HETATM   22  C   UNL     1      -6.387  -2.655 -34.520  1.00  0.00    -0.008 A 
HETATM   23  C   UNL     1      -4.164  -3.405 -33.819  1.00  0.00     0.030 A 
HETATM   24  C   UNL     1      -6.652  -3.928 -35.058  1.00  0.00     0.014 A 
HETATM   25  C   UNL     1      -7.126  -1.444 -34.438  1.00  0.00     0.040 A 
HETATM   26  C   UNL     1      -5.669  -4.922 -34.977  1.00  0.00     0.001 A 
HETATM   27  C   UNL     1      -4.443  -4.660 -34.369  1.00  0.00     0.002 A 
ENDBRANCH   1  18
TORSDOF 3
ENDMDL
MODEL 2
REMARK VINA RESULT:      -9.0      1.557      6.874
REMARK  3 active torsions:
REMARK  status: ('A' for Active; 'I' for Inactive)
REMARK    1  A    between atoms: C_7  and  C_8 
REMARK    2  A    between atoms: N_9  and  C_11 
REMARK    3  A    between atoms: C_11  and  C_12 
ROOT
HETATM    1  C   UNL     1      -7.809   1.147 -31.905  1.00  0.00     0.238 C 
HETATM    2  N   UNL     1      -6.584   0.908 -32.776  1.00  0.00    -0.056 N 
HETATM    3  H   UNL     1      -5.861   0.570 -32.131  1.00  0.00     0.281 HD
HETATM    4  C   UNL     1      -6.012   2.150 -33.411  1.00  0.00     0.236 C 
HETATM    5  C   UNL     1      -5.705   3.192 -32.348  1.00  0.00     0.028 C 
HETATM    6  C   UNL     1      -6.925   3.521 -31.503  1.00  0.00     0.004 C 
HETATM    7  C   UNL     1      -7.519   2.260 -30.889  1.00  0.00     0.040 C 
ENDROOT
BRANCH   2   8
HETATM    8  C   UNL     1      -6.752  -0.196 -33.802  1.00  0.00     0.294 C 
BRANCH   8   9
HETATM    9  C   UNL     1      -5.675  -1.204 -33.745  1.00  0.00     0.061 A 
HETATM   10  N   UNL     1      -5.790  -2.504 -34.198  1.00  0.00    -0.305 N 
HETATM   11  C   UNL     1      -4.590  -3.118 -33.932  1.00  0.00     0.151 A 
HETATM   12  C   UNL     1      -6.812  -3.228 -34.789  1.00  0.00     0.118 A 
HETATM   13  C   UNL     1      -4.436  -4.509 -34.263  1.00  0.00     0.167 A 
HETATM   14  N   UNL     1      -3.720  -2.308 -33.377  1.00  0.00    -0.239 NA
HETATM   15  N   UNL     1      -5.413  -5.190 -34.800  1.00  0.00    -0.268 NA
HETATM   16  C   UNL     1      -6.597  -4.526 -35.066  1.00  0.00     0.134 A 
HETATM   17  C   UNL     1      -4.368  -1.107 -33.297  1.00  0.00     0.146 A 
ENDBRANCH   8   9
ENDBRANCH   2   8
BRANCH   1  18
HETATM   18  C   UNL     1      -9.081   1.357 -32.665  1.00  0.00     0.041 A 
HETATM   19  N   UNL     1     -10.143   0.483 -32.520  1.00  0.00    -0.357 N 
HETATM   20  C   UNL     1     -11.167   0.814 -33.375  1.00  0.00     0.042 A 
HETATM   21  H   UNL     1     -10.179  -0.319 -31.902  1.00  0.00     0.166 HD
HETATM   22  C   UNL     1     -10.796   1.987 -34.025  1.00  0.00    -0.008 A 
HETATM   23  C   UNL     1     -12.389   0.174 -33.608  1.00  0.00     0.030 A 
HETATM   24  C   UNL     1     -11.688   2.564 -34.948  1.00  0.00     0.014 A 
HETATM   25  C   UNL     1      -9.502   2.333 -33.552  1.00  0.00     0.040 A 
HETATM   26  C   UNL     1     -12.915   1.938 -35.195  1.00  0.00     0.001 A 
HETATM   27  C   UNL     1     -13.256   0.759 -34.536  1.00  0.00     0.002 A 
ENDBRANCH   1  18
TORSDOF 3
ENDMDL
MODEL 3
REMARK VINA RESULT:      -8.9      2.515      5.514
REMARK  3 active torsions:
REMARK  status: ('A' for Active; 'I' for Inactive)
REMARK    1  A    between atoms: C_7  and  C_8 
REMARK    2  A    between atoms: N_9  and  C_11 
REMARK    3  A    between atoms: C_11  and  C_12 
ROOT
HETATM    1  C   UNL     1      -7.528   0.864 -32.449  1.00  0.00     0.238 C 
HETATM    2  N   UNL     1      -7.824   1.965 -33.457  1.00  0.00    -0.056 N 
HETATM    3  H   UNL     1      -8.136   2.764 -32.895  1.00  0.00     0.281 HD
HETATM    4  C   UNL     1      -8.961   1.665 -34.401  1.00  0.00     0.236 C 
HETATM    5  C   UNL     1     -10.218   1.319 -33.619  1.00  0.00     0.028 C 
HETATM    6  C   UNL     1      -9.989   0.167 -32.653  1.00  0.00     0.004 C 
HETATM    7  C   UNL     1      -8.819   0.461 -31.722  1.00  0.00     0.040 C 
ENDROOT
BRANCH   2   8
HETATM    8  C   UNL     1      -6.608   2.460 -34.216  1.00  0.00     0.294 C 
BRANCH   8   9
HETATM    9  C   UNL     1      -6.063   3.720 -33.672  1.00  0.00     0.061 A 
HETATM   10  N   UNL     1      -4.908   3.816 -32.920  1.00  0.00    -0.305 N 
HETATM   11  C   UNL     1      -4.772   5.141 -32.581  1.00  0.00     0.151 A 
HETATM   12  C   UNL     1      -3.973   2.897 -32.474  1.00  0.00     0.118 A 
HETATM   13  C   UNL     1      -3.664   5.534 -31.754  1.00  0.00     0.167 A 
HETATM   14  N   UNL     1      -5.726   5.890 -33.079  1.00  0.00    -0.239 NA
HETATM   15  N   UNL     1      -2.799   4.656 -31.317  1.00  0.00    -0.268 NA
HETATM   16  C   UNL     1      -2.966   3.337 -31.698  1.00  0.00     0.134 A 
HETATM   17  C   UNL     1      -6.508   5.026 -33.794  1.00  0.00     0.146 A 
ENDBRANCH   8   9
ENDBRANCH   2   8
BRANCH   1  18
HETATM   18  C   UNL     1      -6.773  -0.302 -33.004  1.00  0.00     0.041 A 
HETATM   19  N   UNL     1      -7.417  -1.263 -33.763  1.00  0.00    -0.357 N 
HETATM   20  C   UNL     1      -6.555  -2.283 -34.090  1.00  0.00     0.042 A 
HETATM   21  H   UNL     1      -8.394  -1.261 -34.030  1.00  0.00     0.166 HD
HETATM   22  C   UNL     1      -5.299  -1.930 -33.608  1.00  0.00    -0.008 A 
HETATM   23  C   UNL     1      -6.792  -3.475 -34.782  1.00  0.00     0.030 A 
HETATM   24  C   UNL     1      -4.215  -2.798 -33.834  1.00  0.00     0.014 A 
HETATM   25  C   UNL     1      -5.441  -0.675 -32.956  1.00  0.00     0.040 A 
HETATM   26  C   UNL     1      -4.433  -3.997 -34.523  1.00  0.00     0.001 A 
HETATM   27  C   UNL     1      -5.704  -4.329 -34.986  1.00  0.00     0.002 A 
ENDBRANCH   1  18
TORSDOF 3
ENDMDL
MODEL 4
REMARK VINA RESULT:      -8.8      3.344      6.471
REMARK  3 active torsions:
REMARK  status: ('A' for Active; 'I' for Inactive)
REMARK    1  A    between atoms: C_7  and  C_8 
REMARK    2  A    between atoms: N_9  and  C_11 
REMARK    3  A    between atoms: C_11  and  C_12 
ROOT
HETATM    1  C   UNL     1      -6.491   1.708 -31.653  1.00  0.00     0.238 C 
HETATM    2  N   UNL     1      -6.455   2.965 -32.510  1.00  0.00    -0.056 N 
HETATM    3  H   UNL     1      -6.332   3.737 -31.845  1.00  0.00     0.281 HD
HETATM    4  C   UNL     1      -7.738   3.264 -33.244  1.00  0.00     0.236 C 
HETATM    5  C   UNL     1      -8.901   3.328 -32.268  1.00  0.00     0.028 C 
HETATM    6  C   UNL     1      -9.024   2.056 -31.444  1.00  0.00     0.004 C 
HETATM    7  C   UNL     1      -7.716   1.741 -30.729  1.00  0.00     0.040 C 
ENDROOT
BRANCH   2   8
HETATM    8  C   UNL     1      -5.264   3.050 -33.445  1.00  0.00     0.294 C 
BRANCH   8   9
HETATM    9  C   UNL     1      -4.025   3.472 -32.763  1.00  0.00     0.061 A 
HETATM   10  N   UNL     1      -3.260   4.563 -33.126  1.00  0.00    -0.305 N 
HETATM   11  C   UNL     1      -2.184   4.587 -32.272  1.00  0.00     0.151 A 
HETATM   12  C   UNL     1      -3.367   5.523 -34.119  1.00  0.00     0.118 A 
HETATM   13  C   UNL     1      -1.185   5.607 -32.446  1.00  0.00     0.167 A 
HETATM   14  N   UNL     1      -2.221   3.623 -31.385  1.00  0.00    -0.239 NA
HETATM   15  N   UNL     1      -1.282   6.495 -33.400  1.00  0.00    -0.268 NA
HETATM   16  C   UNL     1      -2.391   6.442 -34.225  1.00  0.00     0.134 A 
HETATM   17  C   UNL     1      -3.381   2.951 -31.652  1.00  0.00     0.146 A 
ENDBRANCH   8   9
ENDBRANCH   2   8
BRANCH   1  18
HETATM   18  C   UNL     1      -6.362   0.429 -32.419  1.00  0.00     0.041 A 
HETATM   19  N   UNL     1      -5.174  -0.278 -32.417  1.00  0.00    -0.357 N 
HETATM   20  C   UNL     1      -5.254  -1.365 -33.255  1.00  0.00     0.042 A 
HETATM   21  H   UNL     1      -4.333  -0.037 -31.907  1.00  0.00     0.166 HD
HETATM   22  C   UNL     1      -6.556  -1.415 -33.741  1.00  0.00    -0.008 A 
HETATM   23  C   UNL     1      -4.280  -2.307 -33.604  1.00  0.00     0.030 A 
HETATM   24  C   UNL     1      -6.918  -2.461 -34.611  1.00  0.00     0.014 A 
HETATM   25  C   UNL     1      -7.249  -0.305 -33.189  1.00  0.00     0.040 A 
HETATM   26  C   UNL     1      -5.957  -3.411 -34.973  1.00  0.00     0.001 A 
HETATM   27  C   UNL     1      -4.657  -3.331 -34.477  1.00  0.00     0.002 A 
ENDBRANCH   1  18
TORSDOF 3
ENDMDL
MODEL 5
REMARK VINA RESULT:      -8.7      1.648      2.506
REMARK  3 active torsions:
REMARK  status: ('A' for Active; 'I' for Inactive)
REMARK    1  A    between atoms: C_7  and  C_8 
REMARK    2  A    between atoms: N_9  and  C_11 
REMARK    3  A    between atoms: C_11  and  C_12 
ROOT
HETATM    1  C   UNL     1      -5.979   1.242 -33.074  1.00  0.00     0.238 C 
HETATM    2  N   UNL     1      -6.734   1.393 -31.761  1.00  0.00    -0.056 N 
HETATM    3  H   UNL     1      -7.059   2.366 -31.752  1.00  0.00     0.281 HD
HETATM    4  C   UNL     1      -5.885   1.238 -30.525  1.00  0.00     0.236 C 
HETATM    5  C   UNL     1      -4.710   2.201 -30.568  1.00  0.00     0.028 C 
HETATM    6  C   UNL     1      -3.879   2.031 -31.829  1.00  0.00     0.004 C 
HETATM    7  C   UNL     1      -4.747   2.157 -33.075  1.00  0.00     0.040 C 
ENDROOT
BRANCH   2   8
HETATM    8  C   UNL     1      -7.991   0.550 -31.663  1.00  0.00     0.294 C 
BRANCH   8   9
HETATM    9  C   UNL     1      -9.144   1.152 -32.361  1.00  0.00     0.061 A 
HETATM   10  N   UNL     1      -9.817   2.282 -31.937  1.00  0.00    -0.305 N 
HETATM   11  C   UNL     1     -10.838   2.488 -32.833  1.00  0.00     0.151 A 
HETATM   12  C   UNL     1      -9.671   3.138 -30.859  1.00  0.00     0.118 A 
HETATM   13  C   UNL     1     -11.740   3.586 -32.615  1.00  0.00     0.167 A 
HETATM   14  N   UNL     1     -10.847   1.602 -33.801  1.00  0.00    -0.239 NA
HETATM   15  N   UNL     1     -11.608   4.376 -31.583  1.00  0.00    -0.268 NA
HETATM   16  C   UNL     1     -10.556   4.141 -30.716  1.00  0.00     0.134 A 
HETATM   17  C   UNL     1      -9.774   0.796 -33.542  1.00  0.00     0.146 A 
ENDBRANCH   8   9
ENDBRANCH   2   8
BRANCH   1  18
HETATM   18  C   UNL     1      -5.667  -0.171 -33.454  1.00  0.00     0.041 A 
HETATM   19  N   UNL     1      -6.595  -0.942 -34.128  1.00  0.00    -0.357 N 
HETATM   20  C   UNL     1      -6.134  -2.227 -34.292  1.00  0.00     0.042 A 
HETATM   21  H   UNL     1      -7.510  -0.642 -34.442  1.00  0.00     0.166 HD
HETATM   22  C   UNL     1      -4.836  -2.264 -33.792  1.00  0.00    -0.008 A 
HETATM   23  C   UNL     1      -6.760  -3.344 -34.854  1.00  0.00     0.030 A 
HETATM   24  C   UNL     1      -4.115  -3.471 -33.862  1.00  0.00     0.014 A 
HETATM   25  C   UNL     1      -4.544  -0.966 -33.296  1.00  0.00     0.040 A 
HETATM   26  C   UNL     1      -4.726  -4.600 -34.419  1.00  0.00     0.001 A 
HETATM   27  C   UNL     1      -6.030  -4.535 -34.904  1.00  0.00     0.002 A 
ENDBRANCH   1  18
TORSDOF 3
ENDMDL
MODEL 6
REMARK VINA RESULT:      -8.5      4.488      7.682
REMARK  3 active torsions:
REMARK  status: ('A' for Active; 'I' for Inactive)
REMARK    1  A    between atoms: C_7  and  C_8 
REMARK    2  A    between atoms: N_9  and  C_11 
REMARK    3  A    between atoms: C_11  and  C_12 
ROOT
HETATM    1  C   UNL     1      -5.179   2.786 -32.116  1.00  0.00     0.238 C 
HETATM    2  N   UNL     1      -4.524   3.867 -32.962  1.00  0.00    -0.056 N 
HETATM    3  H   UNL     1      -4.454   4.683 -32.343  1.00  0.00     0.281 HD
HETATM    4  C   UNL     1      -5.341   4.324 -34.144  1.00  0.00     0.236 C 
HETATM    5  C   UNL     1      -6.719   4.777 -33.689  1.00  0.00     0.028 C 
HETATM    6  C   UNL     1      -7.444   3.695 -32.905  1.00  0.00     0.004 C 
HETATM    7  C   UNL     1      -6.602   3.214 -31.730  1.00  0.00     0.040 C 
ENDROOT
BRANCH   2   8
HETATM    8  C   UNL     1      -3.099   3.557 -33.377  1.00  0.00     0.294 C 
BRANCH   8   9
HETATM    9  C   UNL     1      -2.248   4.761 -33.458  1.00  0.00     0.061 A 
HETATM   10  N   UNL     1      -1.547   5.302 -32.398  1.00  0.00    -0.305 N 
HETATM   11  C   UNL     1      -0.918   6.426 -32.877  1.00  0.00     0.151 A 
HETATM   12  C   UNL     1      -1.406   4.955 -31.064  1.00  0.00     0.118 A 
HETATM   13  C   UNL     1      -0.138   7.223 -31.969  1.00  0.00     0.167 A 
HETATM   14  N   UNL     1      -1.139   6.622 -34.155  1.00  0.00    -0.239 NA
HETATM   15  N   UNL     1      -0.029   6.902 -30.707  1.00  0.00    -0.268 NA
HETATM   16  C   UNL     1      -0.665   5.753 -30.273  1.00  0.00     0.134 A 
HETATM   17  C   UNL     1      -1.927   5.572 -34.535  1.00  0.00     0.146 A 
ENDBRANCH   8   9
ENDBRANCH   2   8
BRANCH   1  18
HETATM   18  C   UNL     1      -5.115   1.411 -32.704  1.00  0.00     0.041 A 
HETATM   19  N   UNL     1      -6.069   0.986 -33.611  1.00  0.00    -0.357 N 
HETATM   20  C   UNL     1      -5.867  -0.331 -33.948  1.00  0.00     0.042 A 
HETATM   21  H   UNL     1      -6.840   1.535 -33.971  1.00  0.00     0.166 HD
HETATM   22  C   UNL     1      -4.700  -0.744 -33.314  1.00  0.00    -0.008 A 
HETATM   23  C   UNL     1      -6.619  -1.176 -34.771  1.00  0.00     0.030 A 
HETATM   24  C   UNL     1      -4.245  -2.060 -33.514  1.00  0.00     0.014 A 
HETATM   25  C   UNL     1      -4.222   0.363 -32.562  1.00  0.00     0.040 A 
HETATM   26  C   UNL     1      -4.986  -2.920 -34.333  1.00  0.00     0.001 A 
HETATM   27  C   UNL     1      -6.156  -2.482 -34.949  1.00  0.00     0.002 A 
ENDBRANCH   1  18
TORSDOF 3
ENDMDL
MODEL 7
REMARK VINA RESULT:      -8.4      2.846      7.428
REMARK  3 active torsions:
REMARK  status: ('A' for Active; 'I' for Inactive)
REMARK    1  A    between atoms: C_7  and  C_8 
REMARK    2  A    between atoms: N_9  and  C_11 
REMARK    3  A    between atoms: C_11  and  C_12 
ROOT
HETATM    1  C   UNL     1      -7.036   1.312 -34.529  1.00  0.00     0.238 C 
HETATM    2  N   UNL     1      -6.093   1.201 -33.340  1.00  0.00    -0.056 N 
HETATM    3  H   UNL     1      -5.157   1.115 -33.751  1.00  0.00     0.281 HD
HETATM    4  C   UNL     1      -6.283  -0.037 -32.500  1.00  0.00     0.236 C 
HETATM    5  C   UNL     1      -6.184  -1.282 -33.365  1.00  0.00     0.028 C 
HETATM    6  C   UNL     1      -7.168  -1.249 -34.524  1.00  0.00     0.004 C 
HETATM    7  C   UNL     1      -6.994   0.018 -35.352  1.00  0.00     0.040 C 
ENDROOT
BRANCH   2   8
HETATM    8  C   UNL     1      -6.035   2.442 -32.470  1.00  0.00     0.294 C 
BRANCH   8   9
HETATM    9  C   UNL     1      -4.673   3.000 -32.352  1.00  0.00     0.061 A 
HETATM   10  N   UNL     1      -4.116   3.907 -33.234  1.00  0.00    -0.305 N 
HETATM   11  C   UNL     1      -2.836   4.142 -32.795  1.00  0.00     0.151 A 
HETATM   12  C   UNL     1      -4.572   4.533 -34.382  1.00  0.00     0.118 A 
HETATM   13  C   UNL     1      -1.996   5.027 -33.555  1.00  0.00     0.167 A 
HETATM   14  N   UNL     1      -2.549   3.484 -31.697  1.00  0.00    -0.239 NA
HETATM   15  N   UNL     1      -2.426   5.597 -34.649  1.00  0.00    -0.268 NA
HETATM   16  C   UNL     1      -3.727   5.344 -35.044  1.00  0.00     0.134 A 
HETATM   17  C   UNL     1      -3.696   2.808 -31.390  1.00  0.00     0.146 A 
ENDBRANCH   8   9
ENDBRANCH   2   8
BRANCH   1  18
HETATM   18  C   UNL     1      -8.426   1.748 -34.182  1.00  0.00     0.041 A 
HETATM   19  N   UNL     1      -9.448   0.824 -34.071  1.00  0.00    -0.357 N 
HETATM   20  C   UNL     1     -10.648   1.451 -33.837  1.00  0.00     0.042 A 
HETATM   21  H   UNL     1      -9.363  -0.180 -34.175  1.00  0.00     0.166 HD
HETATM   22  C   UNL     1     -10.382   2.810 -33.703  1.00  0.00    -0.008 A 
HETATM   23  C   UNL     1     -11.936   0.918 -33.723  1.00  0.00     0.030 A 
HETATM   24  C   UNL     1     -11.447   3.688 -33.429  1.00  0.00     0.014 A 
HETATM   25  C   UNL     1      -8.984   2.981 -33.892  1.00  0.00     0.040 A 
HETATM   26  C   UNL     1     -12.743   3.173 -33.313  1.00  0.00     0.001 A 
HETATM   27  C   UNL     1     -12.982   1.808 -33.461  1.00  0.00     0.002 A 
ENDBRANCH   1  18
TORSDOF 3
ENDMDL
MODEL 8
REMARK VINA RESULT:      -8.3      2.948      5.533
REMARK  3 active torsions:
REMARK  status: ('A' for Active; 'I' for Inactive)
REMARK    1  A    between atoms: C_7  and  C_8 
REMARK    2  A    between atoms: N_9  and  C_11 
REMARK    3  A    between atoms: C_11  and  C_12 
ROOT
HETATM    1  C   UNL     1      -7.407   1.174 -32.012  1.00  0.00     0.238 C 
HETATM    2  N   UNL     1      -7.066   2.471 -32.732  1.00  0.00    -0.056 N 
HETATM    3  H   UNL     1      -7.221   3.209 -32.037  1.00  0.00     0.281 HD
HETATM    4  C   UNL     1      -7.973   2.805 -33.889  1.00  0.00     0.236 C 
HETATM    5  C   UNL     1      -9.423   2.825 -33.434  1.00  0.00     0.028 C 
HETATM    6  C   UNL     1      -9.831   1.515 -32.779  1.00  0.00     0.004 C 
HETATM    7  C   UNL     1      -8.894   1.164 -31.630  1.00  0.00     0.040 C 
ENDROOT
BRANCH   2   8
HETATM    8  C   UNL     1      -5.609   2.598 -33.133  1.00  0.00     0.294 C 
BRANCH   8   9
HETATM    9  C   UNL     1      -5.143   3.998 -33.176  1.00  0.00     0.061 A 
HETATM   10  N   UNL     1      -4.986   4.809 -32.068  1.00  0.00    -0.305 N 
HETATM   11  C   UNL     1      -4.577   6.034 -32.535  1.00  0.00     0.151 A 
HETATM   12  C   UNL     1      -5.177   4.624 -30.709  1.00  0.00     0.118 A 
HETATM   13  C   UNL     1      -4.371   7.101 -31.593  1.00  0.00     0.167 A 
HETATM   14  N   UNL     1      -4.434   6.056 -33.839  1.00  0.00    -0.239 NA
HETATM   15  N   UNL     1      -4.576   6.925 -30.315  1.00  0.00    -0.268 NA
HETATM   16  C   UNL     1      -4.971   5.670 -29.888  1.00  0.00     0.134 A 
HETATM   17  C   UNL     1      -4.741   4.786 -34.241  1.00  0.00     0.146 A 
ENDBRANCH   8   9
ENDBRANCH   2   8
BRANCH   1  18
HETATM   18  C   UNL     1      -6.972  -0.068 -32.726  1.00  0.00     0.041 A 
HETATM   19  N   UNL     1      -5.700  -0.578 -32.543  1.00  0.00    -0.357 N 
HETATM   20  C   UNL     1      -5.489  -1.662 -33.361  1.00  0.00     0.042 A 
HETATM   21  H   UNL     1      -4.989  -0.208 -31.924  1.00  0.00     0.166 HD
HETATM   22  C   UNL     1      -6.685  -1.917 -34.024  1.00  0.00    -0.008 A 
HETATM   23  C   UNL     1      -4.340  -2.438 -33.550  1.00  0.00     0.030 A 
HETATM   24  C   UNL     1      -6.751  -3.004 -34.914  1.00  0.00     0.014 A 
HETATM   25  C   UNL     1      -7.614  -0.931 -33.598  1.00  0.00     0.040 A 
HETATM   26  C   UNL     1      -5.611  -3.790 -35.118  1.00  0.00     0.001 A 
HETATM   27  C   UNL     1      -4.424  -3.507 -34.446  1.00  0.00     0.002 A 
ENDBRANCH   1  18
TORSDOF 3
ENDMDL
MODEL 9
REMARK VINA RESULT:      -8.1      5.161      8.960
REMARK  3 active torsions:
REMARK  status: ('A' for Active; 'I' for Inactive)
REMARK    1  A    between atoms: C_7  and  C_8 
REMARK    2  A    between atoms: N_9  and  C_11 
REMARK    3  A    between atoms: C_11  and  C_12 
ROOT
HETATM    1  C   UNL     1      -1.806   4.445 -32.842  1.00  0.00     0.238 C 
HETATM    2  N   UNL     1      -3.165   3.798 -32.622  1.00  0.00    -0.056 N 
HETATM    3  H   UNL     1      -3.211   3.036 -33.307  1.00  0.00     0.281 HD
HETATM    4  C   UNL     1      -4.343   4.689 -32.928  1.00  0.00     0.236 C 
HETATM    5  C   UNL     1      -4.242   5.228 -34.345  1.00  0.00     0.028 C 
HETATM    6  C   UNL     1      -2.928   5.954 -34.586  1.00  0.00     0.004 C 
HETATM    7  C   UNL     1      -1.742   5.061 -34.246  1.00  0.00     0.040 C 
ENDROOT
BRANCH   2   8
HETATM    8  C   UNL     1      -3.329   3.131 -31.269  1.00  0.00     0.294 C 
BRANCH   8   9
HETATM    9  C   UNL     1      -4.499   2.234 -31.207  1.00  0.00     0.061 A 
HETATM   10  N   UNL     1      -4.618   1.047 -31.904  1.00  0.00    -0.305 N 
HETATM   11  C   UNL     1      -5.859   0.539 -31.603  1.00  0.00     0.151 A 
HETATM   12  C   UNL     1      -3.795   0.364 -32.784  1.00  0.00     0.118 A 
HETATM   13  C   UNL     1      -6.276  -0.687 -32.228  1.00  0.00     0.167 A 
HETATM   14  N   UNL     1      -6.519   1.290 -30.754  1.00  0.00    -0.239 NA
HETATM   15  N   UNL     1      -5.502  -1.313 -33.075  1.00  0.00    -0.268 NA
HETATM   16  C   UNL     1      -4.255  -0.774 -33.334  1.00  0.00     0.134 A 
HETATM   17  C   UNL     1      -5.668   2.321 -30.469  1.00  0.00     0.146 A 
ENDBRANCH   8   9
ENDBRANCH   2   8
BRANCH   1  18
HETATM   18  C   UNL     1      -1.384   5.391 -31.761  1.00  0.00     0.041 A 
HETATM   19  N   UNL     1      -0.383   5.045 -30.872  1.00  0.00    -0.357 N 
HETATM   20  C   UNL     1      -0.224   6.020 -29.915  1.00  0.00     0.042 A 
HETATM   21  H   UNL     1       0.156   4.188 -30.879  1.00  0.00     0.166 HD
HETATM   22  C   UNL     1      -1.082   7.064 -30.246  1.00  0.00    -0.008 A 
HETATM   23  C   UNL     1       0.618   6.058 -28.799  1.00  0.00     0.030 A 
HETATM   24  C   UNL     1      -1.099   8.213 -29.434  1.00  0.00     0.014 A 
HETATM   25  C   UNL     1      -1.782   6.672 -31.419  1.00  0.00     0.040 A 
HETATM   26  C   UNL     1      -0.265   8.269 -28.312  1.00  0.00     0.001 A 
HETATM   27  C   UNL     1       0.578   7.204 -28.000  1.00  0.00     0.002 A 
ENDBRANCH   1  18
TORSDOF 3
ENDMDL
MODEL 10
REMARK VINA RESULT:      -8.1     13.744     15.078
REMARK  3 active torsions:
REMARK  status: ('A' for Active; 'I' for Inactive)
REMARK    1  A    between atoms: C_7  and  C_8 
REMARK    2  A    between atoms: N_9  and  C_11 
REMARK    3  A    between atoms: C_11  and  C_12 
ROOT
HETATM    1  C   UNL     1      -6.317 -13.548 -35.340  1.00  0.00     0.238 C 
HETATM    2  N   UNL     1      -7.104 -14.844 -35.461  1.00  0.00    -0.056 N 
HETATM    3  H   UNL     1      -8.071 -14.591 -35.230  1.00  0.00     0.281 HD
HETATM    4  C   UNL     1      -6.715 -15.912 -34.470  1.00  0.00     0.236 C 
HETATM    5  C   UNL     1      -6.809 -15.373 -33.052  1.00  0.00     0.028 C 
HETATM    6  C   UNL     1      -5.972 -14.118 -32.863  1.00  0.00     0.004 C 
HETATM    7  C   UNL     1      -6.345 -13.054 -33.887  1.00  0.00     0.040 C 
ENDROOT
BRANCH   2   8
HETATM    8  C   UNL     1      -7.164 -15.409 -36.868  1.00  0.00     0.294 C 
BRANCH   8   9
HETATM    9  C   UNL     1      -7.593 -14.413 -37.870  1.00  0.00     0.061 A 
HETATM   10  N   UNL     1      -6.891 -14.099 -39.017  1.00  0.00    -0.305 N 
HETATM   11  C   UNL     1      -7.603 -13.111 -39.653  1.00  0.00     0.151 A 
HETATM   12  C   UNL     1      -5.700 -14.545 -39.566  1.00  0.00     0.118 A 
HETATM   13  C   UNL     1      -7.079 -12.554 -40.870  1.00  0.00     0.167 A 
HETATM   14  N   UNL     1      -8.708 -12.797 -39.020  1.00  0.00    -0.239 NA
HETATM   15  N   UNL     1      -5.943 -12.964 -41.370  1.00  0.00    -0.268 NA
HETATM   16  C   UNL     1      -5.269 -13.973 -40.705  1.00  0.00     0.134 A 
HETATM   17  C   UNL     1      -8.734 -13.630 -37.936  1.00  0.00     0.146 A 
ENDBRANCH   8   9
ENDBRANCH   2   8
BRANCH   1  18
HETATM   18  C   UNL     1      -4.938 -13.599 -35.920  1.00  0.00     0.041 A 
HETATM   19  N   UNL     1      -4.523 -12.654 -36.839  1.00  0.00    -0.357 N 
HETATM   20  C   UNL     1      -3.263 -12.946 -37.303  1.00  0.00     0.042 A 
HETATM   21  H   UNL     1      -5.062 -11.862 -37.170  1.00  0.00     0.166 HD
HETATM   22  C   UNL     1      -2.813 -14.058 -36.598  1.00  0.00    -0.008 A 
HETATM   23  C   UNL     1      -2.490 -12.305 -38.277  1.00  0.00     0.030 A 
HETATM   24  C   UNL     1      -1.524 -14.556 -36.863  1.00  0.00     0.014 A 
HETATM   25  C   UNL     1      -3.858 -14.441 -35.715  1.00  0.00     0.040 A 
HETATM   26  C   UNL     1      -0.736 -13.929 -37.835  1.00  0.00     0.001 A 
HETATM   27  C   UNL     1      -1.216 -12.821 -38.532  1.00  0.00     0.002 A 
ENDBRANCH   1  18
TORSDOF 3
ENDMDL
