MODEL 1
REMARK VINA RESULT:      -7.6      0.000      0.000
REMARK  5 active torsions:
REMARK  status: ('A' for Active; 'I' for Inactive)
REMARK    1  A    between atoms: C_2  and  C_3 
REMARK    2  A    between atoms: C_3  and  O_4 
REMARK    3  A    between atoms: C_3  and  C_5 
REMARK    4  A    between atoms: N_8  and  C_10 
REMARK    5  A    between atoms: C_10  and  C_11 
ROOT
HETATM    1  C   UNL     1      -8.558   0.851 -32.026  1.00  0.00     0.022 C 
HETATM    2  C   UNL     1      -9.735  -0.076 -32.360  1.00  0.00     0.035 C 
HETATM    3  C   UNL     1     -10.673   0.538 -33.388  1.00  0.00     0.235 C 
HETATM    4  N   UNL     1     -11.164   1.879 -32.906  1.00  0.00    -0.066 N 
HETATM    5  H   UNL     1     -11.792   1.684 -32.108  1.00  0.00     0.280 HD
HETATM    6  C   UNL     1     -10.090   2.837 -32.472  1.00  0.00     0.235 C 
HETATM    7  C   UNL     1      -9.138   2.172 -31.489  1.00  0.00     0.035 C 
ENDROOT
BRANCH   1   8
HETATM    8  C   UNL     1      -7.596   1.077 -33.225  1.00  0.00     0.155 C 
BRANCH   8   9
HETATM    9  C   UNL     1      -6.695  -0.103 -33.523  1.00  0.00    -0.029 A 
HETATM   10  C   UNL     1      -5.520  -0.323 -32.787  1.00  0.00     0.011 A 
HETATM   11  C   UNL     1      -4.716  -1.435 -33.049  1.00  0.00     0.024 A 
HETATM   12  C   UNL     1      -5.078  -2.334 -34.050  1.00  0.00     0.034 A 
HETATM   13  C   UNL     1      -6.233  -2.124 -34.799  1.00  0.00     0.024 A 
HETATM   14 CL   UNL     1      -4.098  -3.711 -34.363  1.00  0.00    -0.084 Cl
HETATM   15  C   UNL     1      -7.035  -1.010 -34.541  1.00  0.00     0.011 A 
ENDBRANCH   8   9
BRANCH   8  16
HETATM   16  O   UNL     1      -6.823   2.243 -32.973  1.00  0.00    -0.391 OA
HETATM   17  H   UNL     1      -5.914   2.088 -33.292  1.00  0.00     0.210 HD
ENDBRANCH   8  16
ENDBRANCH   1   8
BRANCH   4  18
HETATM   18  C   UNL     1     -12.109   2.529 -33.914  1.00  0.00     0.295 C 
BRANCH  18  19
HETATM   19  C   UNL     1     -13.512   2.034 -33.773  1.00  0.00     0.081 A 
HETATM   20  N   UNL     1     -14.085   1.374 -34.792  1.00  0.00    -0.178 NA
HETATM   21  N   UNL     1     -15.326   1.093 -34.336  1.00  0.00    -0.289 N 
HETATM   22  H   UNL     1     -15.961   0.562 -34.927  1.00  0.00     0.188 HD
HETATM   23  C   UNL     1     -15.565   1.604 -33.094  1.00  0.00     0.111 A 
HETATM   24  C   UNL     1     -14.403   2.215 -32.692  1.00  0.00     0.049 A 
ENDBRANCH  18  19
ENDBRANCH   4  18
TORSDOF 5
ENDMDL
MODEL 2
REMARK VINA RESULT:      -7.5      1.663      1.942
REMARK  5 active torsions:
REMARK  status: ('A' for Active; 'I' for Inactive)
REMARK    1  A    between atoms: C_2  and  C_3 
REMARK    2  A    between atoms: C_3  and  O_4 
REMARK    3  A    between atoms: C_3  and  C_5 
REMARK    4  A    between atoms: N_8  and  C_10 
REMARK    5  A    between atoms: C_10  and  C_11 
ROOT
HETATM    1  C   UNL     1      -7.656   0.729 -33.392  1.00  0.00     0.022 C 
HETATM    2  C   UNL     1      -8.525   0.124 -32.280  1.00  0.00     0.035 C 
HETATM    3  C   UNL     1      -9.979  -0.018 -32.704  1.00  0.00     0.235 C 
HETATM    4  N   UNL     1     -10.523   1.317 -33.146  1.00  0.00    -0.066 N 
HETATM    5  H   UNL     1     -10.588   1.896 -32.292  1.00  0.00     0.280 HD
HETATM    6  C   UNL     1      -9.698   2.036 -34.176  1.00  0.00     0.235 C 
HETATM    7  C   UNL     1      -8.240   2.109 -33.746  1.00  0.00     0.035 C 
ENDROOT
BRANCH   1   8
HETATM    8  C   UNL     1      -7.525  -0.189 -34.637  1.00  0.00     0.155 C 
BRANCH   8   9
HETATM    9  C   UNL     1      -6.494  -1.288 -34.487  1.00  0.00    -0.029 A 
HETATM   10  C   UNL     1      -5.246  -1.037 -33.896  1.00  0.00     0.011 A 
HETATM   11  C   UNL     1      -4.318  -2.068 -33.731  1.00  0.00     0.024 A 
HETATM   12  C   UNL     1      -4.628  -3.357 -34.159  1.00  0.00     0.034 A 
HETATM   13  C   UNL     1      -5.856  -3.621 -34.760  1.00  0.00     0.024 A 
HETATM   14 CL   UNL     1      -3.493  -4.629 -33.943  1.00  0.00    -0.084 Cl
HETATM   15  C   UNL     1      -6.783  -2.590 -34.929  1.00  0.00     0.011 A 
ENDBRANCH   8   9
BRANCH   8  16
HETATM   16  O   UNL     1      -7.231   0.619 -35.769  1.00  0.00    -0.391 OA
HETATM   17  H   UNL     1      -8.042   0.713 -36.303  1.00  0.00     0.210 HD
ENDBRANCH   8  16
ENDBRANCH   1   8
BRANCH   4  18
HETATM   18  C   UNL     1     -11.982   1.213 -33.582  1.00  0.00     0.295 C 
BRANCH  18  19
HETATM   19  C   UNL     1     -12.659   2.545 -33.608  1.00  0.00     0.081 A 
HETATM   20  N   UNL     1     -13.019   3.079 -34.787  1.00  0.00    -0.178 NA
HETATM   21  N   UNL     1     -13.579   4.261 -34.446  1.00  0.00    -0.289 N 
HETATM   22  H   UNL     1     -13.963   4.855 -35.177  1.00  0.00     0.188 HD
HETATM   23  C   UNL     1     -13.528   4.508 -33.105  1.00  0.00     0.111 A 
HETATM   24  C   UNL     1     -12.944   3.408 -32.527  1.00  0.00     0.049 A 
ENDBRANCH  18  19
ENDBRANCH   4  18
TORSDOF 5
ENDMDL
MODEL 3
REMARK VINA RESULT:      -7.1      2.711      3.608
REMARK  5 active torsions:
REMARK  status: ('A' for Active; 'I' for Inactive)
REMARK    1  A    between atoms: C_2  and  C_3 
REMARK    2  A    between atoms: C_3  and  O_4 
REMARK    3  A    between atoms: C_3  and  C_5 
REMARK    4  A    between atoms: N_8  and  C_10 
REMARK    5  A    between atoms: C_10  and  C_11 
ROOT
HETATM    1  C   UNL     1      -5.175   0.509 -31.098  1.00  0.00     0.022 C 
HETATM    2  C   UNL     1      -6.470  -0.246 -30.768  1.00  0.00     0.035 C 
HETATM    3  C   UNL     1      -7.704   0.492 -31.264  1.00  0.00     0.235 C 
HETATM    4  N   UNL     1      -7.736   1.890 -30.699  1.00  0.00    -0.066 N 
HETATM    5  H   UNL     1      -7.922   1.784 -29.687  1.00  0.00     0.280 HD
HETATM    6  C   UNL     1      -6.478   2.689 -30.894  1.00  0.00     0.235 C 
HETATM    7  C   UNL     1      -5.259   1.898 -30.439  1.00  0.00     0.035 C 
ENDROOT
BRANCH   1   8
HETATM    8  C   UNL     1      -4.888   0.598 -32.621  1.00  0.00     0.155 C 
BRANCH   8   9
HETATM    9  C   UNL     1      -5.168  -0.683 -33.378  1.00  0.00    -0.029 A 
HETATM   10  C   UNL     1      -4.307  -1.787 -33.281  1.00  0.00     0.011 A 
HETATM   11  C   UNL     1      -4.596  -2.976 -33.956  1.00  0.00     0.024 A 
HETATM   12  C   UNL     1      -5.747  -3.070 -34.735  1.00  0.00     0.034 A 
HETATM   13  C   UNL     1      -6.605  -1.980 -34.854  1.00  0.00     0.024 A 
HETATM   14 CL   UNL     1      -6.111  -4.536 -35.554  1.00  0.00    -0.084 Cl
HETATM   15  C   UNL     1      -6.315  -0.790 -34.183  1.00  0.00     0.011 A 
ENDBRANCH   8   9
BRANCH   8  16
HETATM   16  O   UNL     1      -3.537   1.000 -32.806  1.00  0.00    -0.391 OA
HETATM   17  H   UNL     1      -3.283   0.818 -33.731  1.00  0.00     0.210 HD
ENDBRANCH   8  16
ENDBRANCH   1   8
BRANCH   4  18
HETATM   18  C   UNL     1      -8.961   2.663 -31.177  1.00  0.00     0.295 C 
BRANCH  18  19
HETATM   19  C   UNL     1      -9.397   2.244 -32.543  1.00  0.00     0.081 A 
HETATM   20  N   UNL     1      -8.774   2.751 -33.619  1.00  0.00    -0.178 NA
HETATM   21  N   UNL     1      -9.417   2.179 -34.662  1.00  0.00    -0.289 N 
HETATM   22  H   UNL     1      -9.106   2.387 -35.608  1.00  0.00     0.188 HD
HETATM   23  C   UNL     1     -10.452   1.380 -34.275  1.00  0.00     0.111 A 
HETATM   24  C   UNL     1     -10.464   1.392 -32.902  1.00  0.00     0.049 A 
ENDBRANCH  18  19
ENDBRANCH   4  18
TORSDOF 5
ENDMDL
MODEL 4
REMARK VINA RESULT:      -7.1      5.287      7.010
REMARK  5 active torsions:
REMARK  status: ('A' for Active; 'I' for Inactive)
REMARK    1  A    between atoms: C_2  and  C_3 
REMARK    2  A    between atoms: C_3  and  O_4 
REMARK    3  A    between atoms: C_3  and  C_5 
REMARK    4  A    between atoms: N_8  and  C_10 
REMARK    5  A    between atoms: C_10  and  C_11 
ROOT
HETATM    1  C   UNL     1      -6.075   1.186 -31.993  1.00  0.00     0.022 C 
HETATM    2  C   UNL     1      -6.425   2.321 -32.965  1.00  0.00     0.035 C 
HETATM    3  C   UNL     1      -5.329   3.374 -33.032  1.00  0.00     0.235 C 
HETATM    4  N   UNL     1      -5.043   3.915 -31.654  1.00  0.00    -0.066 N 
HETATM    5  H   UNL     1      -5.877   4.465 -31.385  1.00  0.00     0.280 HD
HETATM    6  C   UNL     1      -4.771   2.877 -30.602  1.00  0.00     0.235 C 
HETATM    7  C   UNL     1      -5.856   1.809 -30.602  1.00  0.00     0.035 C 
ENDROOT
BRANCH   1   8
HETATM    8  C   UNL     1      -4.859   0.337 -32.453  1.00  0.00     0.155 C 
BRANCH   8   9
HETATM    9  C   UNL     1      -5.232  -0.884 -33.266  1.00  0.00    -0.029 A 
HETATM   10  C   UNL     1      -4.263  -1.824 -33.652  1.00  0.00     0.011 A 
HETATM   11  C   UNL     1      -4.626  -2.965 -34.372  1.00  0.00     0.024 A 
HETATM   12  C   UNL     1      -5.960  -3.175 -34.714  1.00  0.00     0.034 A 
HETATM   13  C   UNL     1      -6.932  -2.247 -34.351  1.00  0.00     0.024 A 
HETATM   14 CL   UNL     1      -6.410  -4.586 -35.586  1.00  0.00    -0.084 Cl
HETATM   15  C   UNL     1      -6.570  -1.104 -33.635  1.00  0.00     0.011 A 
ENDBRANCH   8   9
BRANCH   8  16
HETATM   16  O   UNL     1      -4.108  -0.040 -31.305  1.00  0.00    -0.391 OA
HETATM   17  H   UNL     1      -3.370  -0.611 -31.592  1.00  0.00     0.210 HD
ENDBRANCH   8  16
ENDBRANCH   1   8
BRANCH   4  18
HETATM   18  C   UNL     1      -3.946   4.975 -31.680  1.00  0.00     0.295 C 
BRANCH  18  19
HETATM   19  C   UNL     1      -3.327   5.114 -33.033  1.00  0.00     0.081 A 
HETATM   20  N   UNL     1      -3.923   5.886 -33.956  1.00  0.00    -0.178 NA
HETATM   21  N   UNL     1      -3.119   5.774 -35.037  1.00  0.00    -0.289 N 
HETATM   22  H   UNL     1      -3.346   6.299 -35.878  1.00  0.00     0.188 HD
HETATM   23  C   UNL     1      -2.077   4.917 -34.838  1.00  0.00     0.111 A 
HETATM   24  C   UNL     1      -2.175   4.475 -33.542  1.00  0.00     0.049 A 
ENDBRANCH  18  19
ENDBRANCH   4  18
TORSDOF 5
ENDMDL
MODEL 5
REMARK VINA RESULT:      -7.0      1.410      2.020
REMARK  5 active torsions:
REMARK  status: ('A' for Active; 'I' for Inactive)
REMARK    1  A    between atoms: C_2  and  C_3 
REMARK    2  A    between atoms: C_3  and  O_4 
REMARK    3  A    between atoms: C_3  and  C_5 
REMARK    4  A    between atoms: N_8  and  C_10 
REMARK    5  A    between atoms: C_10  and  C_11 
ROOT
HETATM    1  C   UNL     1      -7.122   0.784 -32.034  1.00  0.00     0.022 C 
HETATM    2  C   UNL     1      -8.413  -0.009 -32.278  1.00  0.00     0.035 C 
HETATM    3  C   UNL     1      -9.244   0.584 -33.407  1.00  0.00     0.235 C 
HETATM    4  N   UNL     1      -9.548   2.033 -33.121  1.00  0.00    -0.066 N 
HETATM    5  H   UNL     1     -10.207   2.035 -32.324  1.00  0.00     0.280 HD
HETATM    6  C   UNL     1      -8.355   2.884 -32.785  1.00  0.00     0.235 C 
HETATM    7  C   UNL     1      -7.517   2.233 -31.693  1.00  0.00     0.035 C 
ENDROOT
BRANCH   1   8
HETATM    8  C   UNL     1      -6.124   0.713 -33.222  1.00  0.00     0.155 C 
BRANCH   8   9
HETATM    9  C   UNL     1      -5.496  -0.651 -33.419  1.00  0.00    -0.029 A 
HETATM   10  C   UNL     1      -5.917  -1.502 -34.453  1.00  0.00     0.011 A 
HETATM   11  C   UNL     1      -5.305  -2.743 -34.646  1.00  0.00     0.024 A 
HETATM   12  C   UNL     1      -4.269  -3.144 -33.806  1.00  0.00     0.034 A 
HETATM   13  C   UNL     1      -3.847  -2.318 -32.767  1.00  0.00     0.024 A 
HETATM   14 CL   UNL     1      -3.504  -4.663 -34.052  1.00  0.00    -0.084 Cl
HETATM   15  C   UNL     1      -4.461  -1.080 -32.571  1.00  0.00     0.011 A 
ENDBRANCH   8   9
BRANCH   8  16
HETATM   16  O   UNL     1      -5.119   1.700 -33.031  1.00  0.00    -0.391 OA
HETATM   17  H   UNL     1      -4.264   1.250 -32.896  1.00  0.00     0.210 HD
ENDBRANCH   8  16
ENDBRANCH   1   8
BRANCH   4  18
HETATM   18  C   UNL     1     -10.380   2.664 -34.234  1.00  0.00     0.295 C 
BRANCH  18  19
HETATM   19  C   UNL     1     -11.818   2.267 -34.158  1.00  0.00     0.081 A 
HETATM   20  N   UNL     1     -12.553   2.644 -33.099  1.00  0.00    -0.178 NA
HETATM   21  N   UNL     1     -13.771   2.115 -33.348  1.00  0.00    -0.289 N 
HETATM   22  H   UNL     1     -14.528   2.287 -32.690  1.00  0.00     0.188 HD
HETATM   23  C   UNL     1     -13.807   1.376 -34.493  1.00  0.00     0.111 A 
HETATM   24  C   UNL     1     -12.555   1.459 -35.052  1.00  0.00     0.049 A 
ENDBRANCH  18  19
ENDBRANCH   4  18
TORSDOF 5
ENDMDL
MODEL 6
REMARK VINA RESULT:      -7.0     14.813     16.102
REMARK  5 active torsions:
REMARK  status: ('A' for Active; 'I' for Inactive)
REMARK    1  A    between atoms: C_2  and  C_3 
REMARK    2  A    between atoms: C_3  and  O_4 
REMARK    3  A    between atoms: C_3  and  C_5 
REMARK    4  A    between atoms: N_8  and  C_10 
REMARK    5  A    between atoms: C_10  and  C_11 
ROOT
HETATM    1  C   UNL     1      -4.481 -12.632 -39.406  1.00  0.00     0.022 C 
HETATM    2  C   UNL     1      -5.266 -13.197 -38.214  1.00  0.00     0.035 C 
HETATM    3  C   UNL     1      -6.434 -14.065 -38.659  1.00  0.00     0.235 C 
HETATM    4  N   UNL     1      -7.339 -13.285 -39.579  1.00  0.00    -0.066 N 
HETATM    5  H   UNL     1      -7.796 -12.568 -38.990  1.00  0.00     0.280 HD
HETATM    6  C   UNL     1      -6.654 -12.616 -40.738  1.00  0.00     0.235 C 
HETATM    7  C   UNL     1      -5.457 -11.804 -40.262  1.00  0.00     0.035 C 
ENDROOT
BRANCH   1   8
HETATM    8  C   UNL     1      -3.754 -13.724 -40.236  1.00  0.00     0.155 C 
BRANCH   8   9
HETATM    9  C   UNL     1      -2.317 -13.960 -39.822  1.00  0.00    -0.029 A 
HETATM   10  C   UNL     1      -1.341 -14.324 -40.763  1.00  0.00     0.011 A 
HETATM   11  C   UNL     1      -0.011 -14.504 -40.374  1.00  0.00     0.024 A 
HETATM   12  C   UNL     1       0.353 -14.322 -39.042  1.00  0.00     0.034 A 
HETATM   13  C   UNL     1      -0.604 -13.973 -38.093  1.00  0.00     0.024 A 
HETATM   14 CL   UNL     1       1.991 -14.527 -38.565  1.00  0.00    -0.084 Cl
HETATM   15  C   UNL     1      -1.935 -13.798 -38.480  1.00  0.00     0.011 A 
ENDBRANCH   8   9
BRANCH   8  16
HETATM   16  O   UNL     1      -3.825 -13.371 -41.612  1.00  0.00    -0.391 OA
HETATM   17  H   UNL     1      -4.565 -13.858 -42.020  1.00  0.00     0.210 HD
ENDBRANCH   8  16
ENDBRANCH   1   8
BRANCH   4  18
HETATM   18  C   UNL     1      -8.524 -14.125 -40.049  1.00  0.00     0.295 C 
BRANCH  18  19
HETATM   19  C   UNL     1      -9.757 -13.303 -40.242  1.00  0.00     0.081 A 
HETATM   20  N   UNL     1     -10.922 -13.914 -40.513  1.00  0.00    -0.178 NA
HETATM   21  N   UNL     1     -11.799 -12.894 -40.637  1.00  0.00    -0.289 N 
HETATM   22  H   UNL     1     -12.778 -13.103 -40.819  1.00  0.00     0.188 HD
HETATM   23  C   UNL     1     -11.212 -11.669 -40.510  1.00  0.00     0.111 A 
HETATM   24  C   UNL     1      -9.885 -11.897 -40.244  1.00  0.00     0.049 A 
ENDBRANCH  18  19
ENDBRANCH   4  18
TORSDOF 5
ENDMDL
MODEL 7
REMARK VINA RESULT:      -6.8      5.692      7.899
REMARK  5 active torsions:
REMARK  status: ('A' for Active; 'I' for Inactive)
REMARK    1  A    between atoms: C_2  and  C_3 
REMARK    2  A    between atoms: C_3  and  O_4 
REMARK    3  A    between atoms: C_3  and  C_5 
REMARK    4  A    between atoms: N_8  and  C_10 
REMARK    5  A    between atoms: C_10  and  C_11 
ROOT
HETATM    1  C   UNL     1      -5.009   0.688 -31.877  1.00  0.00     0.022 C 
HETATM    2  C   UNL     1      -5.947   1.776 -32.420  1.00  0.00     0.035 C 
HETATM    3  C   UNL     1      -5.180   2.954 -33.001  1.00  0.00     0.235 C 
HETATM    4  N   UNL     1      -4.239   3.521 -31.967  1.00  0.00    -0.066 N 
HETATM    5  H   UNL     1      -4.837   3.965 -31.250  1.00  0.00     0.280 HD
HETATM    6  C   UNL     1      -3.331   2.520 -31.309  1.00  0.00     0.235 C 
HETATM    7  C   UNL     1      -4.125   1.329 -30.791  1.00  0.00     0.035 C 
ENDROOT
BRANCH   1   8
HETATM    8  C   UNL     1      -4.169  -0.006 -32.984  1.00  0.00     0.155 C 
BRANCH   8   9
HETATM    9  C   UNL     1      -4.852  -1.198 -33.621  1.00  0.00    -0.029 A 
HETATM   10  C   UNL     1      -6.169  -1.111 -34.098  1.00  0.00     0.011 A 
HETATM   11  C   UNL     1      -6.775  -2.207 -34.716  1.00  0.00     0.024 A 
HETATM   12  C   UNL     1      -6.070  -3.400 -34.860  1.00  0.00     0.034 A 
HETATM   13  C   UNL     1      -4.767  -3.508 -34.381  1.00  0.00     0.024 A 
HETATM   14 CL   UNL     1      -6.809  -4.745 -35.634  1.00  0.00    -0.084 Cl
HETATM   15  C   UNL     1      -4.162  -2.414 -33.759  1.00  0.00     0.011 A 
ENDBRANCH   8   9
BRANCH   8  16
HETATM   16  O   UNL     1      -2.916  -0.387 -32.430  1.00  0.00    -0.391 OA
HETATM   17  H   UNL     1      -3.064  -0.712 -31.522  1.00  0.00     0.210 HD
ENDBRANCH   8  16
ENDBRANCH   1   8
BRANCH   4  18
HETATM   18  C   UNL     1      -3.449   4.707 -32.514  1.00  0.00     0.295 C 
BRANCH  18  19
HETATM   19  C   UNL     1      -2.531   5.293 -31.492  1.00  0.00     0.081 A 
HETATM   20  N   UNL     1      -3.041   6.023 -30.487  1.00  0.00    -0.178 NA
HETATM   21  N   UNL     1      -1.953   6.398 -29.777  1.00  0.00    -0.289 N 
HETATM   22  H   UNL     1      -2.081   6.949 -28.932  1.00  0.00     0.188 HD
HETATM   23  C   UNL     1      -0.782   5.976 -30.335  1.00  0.00     0.111 A 
HETATM   24  C   UNL     1      -1.120   5.246 -31.449  1.00  0.00     0.049 A 
ENDBRANCH  18  19
ENDBRANCH   4  18
TORSDOF 5
ENDMDL
MODEL 8
REMARK VINA RESULT:      -6.7      4.265      8.027
REMARK  5 active torsions:
REMARK  status: ('A' for Active; 'I' for Inactive)
REMARK    1  A    between atoms: C_2  and  C_3 
REMARK    2  A    between atoms: C_3  and  O_4 
REMARK    3  A    between atoms: C_3  and  C_5 
REMARK    4  A    between atoms: N_8  and  C_10 
REMARK    5  A    between atoms: C_10  and  C_11 
ROOT
HETATM    1  C   UNL     1      -9.550   0.643 -34.068  1.00  0.00     0.022 C 
HETATM    2  C   UNL     1      -9.308  -0.136 -32.769  1.00  0.00     0.035 C 
HETATM    3  C   UNL     1      -8.218   0.497 -31.917  1.00  0.00     0.235 C 
HETATM    4  N   UNL     1      -6.944   0.624 -32.715  1.00  0.00    -0.066 N 
HETATM    5  H   UNL     1      -6.598  -0.340 -32.854  1.00  0.00     0.280 HD
HETATM    6  C   UNL     1      -7.088   1.300 -34.050  1.00  0.00     0.235 C 
HETATM    7  C   UNL     1      -8.225   0.679 -34.850  1.00  0.00     0.035 C 
ENDROOT
BRANCH   1   8
HETATM    8  C   UNL     1     -10.130   2.065 -33.832  1.00  0.00     0.155 C 
BRANCH   8   9
HETATM    9  C   UNL     1     -11.598   2.079 -33.459  1.00  0.00    -0.029 A 
HETATM   10  C   UNL     1     -12.159   3.159 -32.761  1.00  0.00     0.011 A 
HETATM   11  C   UNL     1     -13.522   3.176 -32.454  1.00  0.00     0.024 A 
HETATM   12  C   UNL     1     -14.334   2.112 -32.840  1.00  0.00     0.034 A 
HETATM   13  C   UNL     1     -13.791   1.025 -33.521  1.00  0.00     0.024 A 
HETATM   14 CL   UNL     1     -16.013   2.138 -32.477  1.00  0.00    -0.084 Cl
HETATM   15  C   UNL     1     -12.428   1.006 -33.825  1.00  0.00     0.011 A 
ENDBRANCH   8   9
BRANCH   8  16
HETATM   16  O   UNL     1      -9.906   2.846 -34.999  1.00  0.00    -0.391 OA
HETATM   17  H   UNL     1      -8.957   2.804 -35.223  1.00  0.00     0.210 HD
ENDBRANCH   8  16
ENDBRANCH   1   8
BRANCH   4  18
HETATM   18  C   UNL     1      -5.825   1.258 -31.893  1.00  0.00     0.295 C 
BRANCH  18  19
HETATM   19  C   UNL     1      -4.661   0.338 -31.721  1.00  0.00     0.081 A 
HETATM   20  N   UNL     1      -3.540   0.793 -31.137  1.00  0.00    -0.178 NA
HETATM   21  N   UNL     1      -2.711  -0.273 -31.156  1.00  0.00    -0.289 N 
HETATM   22  H   UNL     1      -1.788  -0.190 -30.738  1.00  0.00     0.188 HD
HETATM   23  C   UNL     1      -3.253  -1.358 -31.782  1.00  0.00     0.111 A 
HETATM   24  C   UNL     1      -4.525  -0.999 -32.154  1.00  0.00     0.049 A 
ENDBRANCH  18  19
ENDBRANCH   4  18
TORSDOF 5
ENDMDL
MODEL 9
REMARK VINA RESULT:      -6.7      4.320      7.671
REMARK  5 active torsions:
REMARK  status: ('A' for Active; 'I' for Inactive)
REMARK    1  A    between atoms: C_2  and  C_3 
REMARK    2  A    between atoms: C_3  and  O_4 
REMARK    3  A    between atoms: C_3  and  C_5 
REMARK    4  A    between atoms: N_8  and  C_10 
REMARK    5  A    between atoms: C_10  and  C_11 
ROOT
HETATM    1  C   UNL     1      -7.600   1.228 -32.729  1.00  0.00     0.022 C 
HETATM    2  C   UNL     1      -7.213   1.520 -34.185  1.00  0.00     0.035 C 
HETATM    3  C   UNL     1      -7.305   0.280 -35.061  1.00  0.00     0.235 C 
HETATM    4  N   UNL     1      -6.453  -0.825 -34.488  1.00  0.00    -0.066 N 
HETATM    5  H   UNL     1      -5.472  -0.524 -34.617  1.00  0.00     0.280 HD
HETATM    6  C   UNL     1      -6.694  -1.133 -33.037  1.00  0.00     0.235 C 
HETATM    7  C   UNL     1      -6.651   0.137 -32.200  1.00  0.00     0.035 C 
ENDROOT
BRANCH   1   8
HETATM    8  C   UNL     1      -9.094   0.840 -32.557  1.00  0.00     0.155 C 
BRANCH   8   9
HETATM    9  C   UNL     1     -10.062   1.816 -33.193  1.00  0.00    -0.029 A 
HETATM   10  C   UNL     1     -10.141   3.148 -32.757  1.00  0.00     0.011 A 
HETATM   11  C   UNL     1     -11.013   4.047 -33.376  1.00  0.00     0.024 A 
HETATM   12  C   UNL     1     -11.814   3.622 -34.434  1.00  0.00     0.034 A 
HETATM   13  C   UNL     1     -11.757   2.301 -34.871  1.00  0.00     0.024 A 
HETATM   14 CL   UNL     1     -12.875   4.731 -35.206  1.00  0.00    -0.084 Cl
HETATM   15  C   UNL     1     -10.889   1.400 -34.250  1.00  0.00     0.011 A 
ENDBRANCH   8   9
BRANCH   8  16
HETATM   16  O   UNL     1      -9.369   0.698 -31.169  1.00  0.00    -0.391 OA
HETATM   17  H   UNL     1      -8.774   0.018 -30.803  1.00  0.00     0.210 HD
ENDBRANCH   8  16
ENDBRANCH   1   8
BRANCH   4  18
HETATM   18  C   UNL     1      -6.521  -2.089 -35.340  1.00  0.00     0.295 C 
BRANCH  18  19
HETATM   19  C   UNL     1      -5.612  -3.161 -34.834  1.00  0.00     0.081 A 
HETATM   20  N   UNL     1      -4.344  -2.855 -34.513  1.00  0.00    -0.178 NA
HETATM   21  N   UNL     1      -3.820  -4.035 -34.115  1.00  0.00    -0.289 N 
HETATM   22  H   UNL     1      -2.857  -4.063 -33.788  1.00  0.00     0.188 HD
HETATM   23  C   UNL     1      -4.696  -5.074 -34.231  1.00  0.00     0.111 A 
HETATM   24  C   UNL     1      -5.876  -4.541 -34.689  1.00  0.00     0.049 A 
ENDBRANCH  18  19
ENDBRANCH   4  18
TORSDOF 5
ENDMDL
MODEL 10
REMARK VINA RESULT:      -6.6      4.511      6.115
REMARK  5 active torsions:
REMARK  status: ('A' for Active; 'I' for Inactive)
REMARK    1  A    between atoms: C_2  and  C_3 
REMARK    2  A    between atoms: C_3  and  O_4 
REMARK    3  A    between atoms: C_3  and  C_5 
REMARK    4  A    between atoms: N_8  and  C_10 
REMARK    5  A    between atoms: C_10  and  C_11 
ROOT
HETATM    1  C   UNL     1      -6.239   0.044 -31.003  1.00  0.00     0.022 C 
HETATM    2  C   UNL     1      -7.640   0.618 -31.257  1.00  0.00     0.035 C 
HETATM    3  C   UNL     1      -7.598   2.103 -31.585  1.00  0.00     0.235 C 
HETATM    4  N   UNL     1      -6.898   2.858 -30.483  1.00  0.00    -0.066 N 
HETATM    5  H   UNL     1      -7.530   2.820 -29.665  1.00  0.00     0.280 HD
HETATM    6  C   UNL     1      -5.548   2.322 -30.096  1.00  0.00     0.235 C 
HETATM    7  C   UNL     1      -5.616   0.825 -29.831  1.00  0.00     0.035 C 
ENDROOT
BRANCH   1   8
HETATM    8  C   UNL     1      -5.333   0.056 -32.264  1.00  0.00     0.155 C 
BRANCH   8   9
HETATM    9  C   UNL     1      -5.528  -1.137 -33.176  1.00  0.00    -0.029 A 
HETATM   10  C   UNL     1      -4.469  -2.011 -33.466  1.00  0.00     0.011 A 
HETATM   11  C   UNL     1      -4.671  -3.128 -34.280  1.00  0.00     0.024 A 
HETATM   12  C   UNL     1      -5.934  -3.380 -34.812  1.00  0.00     0.034 A 
HETATM   13  C   UNL     1      -6.993  -2.517 -34.545  1.00  0.00     0.024 A 
HETATM   14 CL   UNL     1      -6.188  -4.763 -35.800  1.00  0.00    -0.084 Cl
HETATM   15  C   UNL     1      -6.791  -1.398 -33.735  1.00  0.00     0.011 A 
ENDBRANCH   8   9
BRANCH   8  16
HETATM   16  O   UNL     1      -3.976   0.147 -31.847  1.00  0.00    -0.391 OA
HETATM   17  H   UNL     1      -3.796  -0.578 -31.219  1.00  0.00     0.210 HD
ENDBRANCH   8  16
ENDBRANCH   1   8
BRANCH   4  18
HETATM   18  C   UNL     1      -6.835   4.354 -30.777  1.00  0.00     0.295 C 
BRANCH  18  19
HETATM   19  C   UNL     1      -6.262   5.131 -29.636  1.00  0.00     0.081 A 
HETATM   20  N   UNL     1      -6.950   5.218 -28.486  1.00  0.00    -0.178 NA
HETATM   21  N   UNL     1      -6.164   5.985 -27.698  1.00  0.00    -0.289 N 
HETATM   22  H   UNL     1      -6.458   6.179 -26.744  1.00  0.00     0.188 HD
HETATM   23  C   UNL     1      -5.040   6.425 -28.335  1.00  0.00     0.111 A 
HETATM   24  C   UNL     1      -5.067   5.881 -29.595  1.00  0.00     0.049 A 
ENDBRANCH  18  19
ENDBRANCH   4  18
TORSDOF 5
ENDMDL
