MODEL 1
REMARK VINA RESULT:      -8.7      0.000      0.000
REMARK  6 active torsions:
REMARK  status: ('A' for Active; 'I' for Inactive)
REMARK    1  A    between atoms: C_2  and  C_3 
REMARK       I    between atoms: C_3  and  N_4 
REMARK    2  A    between atoms: N_4  and  C_5 
REMARK    3  A    between atoms: C_8  and  N_9 
REMARK       I    between atoms: N_9  and  C_10 
REMARK    4  A    between atoms: C_10  and  C_11 
REMARK    5  A    between atoms: C_16  and  C_17 
REMARK    6  A    between atoms: C_23  and  C_24 
ROOT
HETATM    1  C   UNL     1      -4.835   4.261 -32.931  1.00  0.00     0.148 A 
HETATM    2  N   UNL     1      -3.912   4.888 -33.697  1.00  0.00    -0.165 NA
HETATM    3  N   UNL     1      -2.851   4.998 -32.875  1.00  0.00    -0.240 N 
HETATM    4  C   UNL     1      -3.000   4.342 -31.686  1.00  0.00     0.123 A 
HETATM    5  N   UNL     1      -1.992   4.241 -30.797  1.00  0.00    -0.364 N 
HETATM    6  C   UNL     1      -0.734   4.973 -30.953  1.00  0.00     0.143 C 
HETATM    7  C   UNL     1      -0.449   5.242 -32.442  1.00  0.00     0.068 C 
HETATM    8  C   UNL     1      -1.663   5.743 -33.245  1.00  0.00     0.221 C 
HETATM    9  C   UNL     1      -4.291   3.888 -31.670  1.00  0.00     0.089 A 
HETATM   10  H   UNL     1      -2.158   3.870 -29.863  1.00  0.00     0.162 HD
ENDROOT
BRANCH   1  11
HETATM   11  C   UNL     1      -6.212   4.013 -33.393  1.00  0.00     0.276 C 
HETATM   12  N   UNL     1      -6.826   2.995 -32.687  1.00  0.00    -0.322 N 
HETATM   13  H   UNL     1      -6.267   2.636 -31.918  1.00  0.00     0.169 HD
HETATM   14  O   UNL     1      -6.713   4.687 -34.285  1.00  0.00    -0.266 OA
BRANCH  12  15
HETATM   15  C   UNL     1      -8.105   2.453 -32.897  1.00  0.00     0.035 A 
HETATM   16  C   UNL     1      -8.327   1.168 -33.386  1.00  0.00     0.032 A 
HETATM   17  C   UNL     1      -9.629   0.675 -33.546  1.00  0.00     0.032 A 
HETATM   18  C   UNL     1     -10.733   1.470 -33.238  1.00  0.00     0.034 A 
HETATM   19  C   UNL     1     -10.510   2.766 -32.761  1.00  0.00     0.032 A 
HETATM   20  C   UNL     1      -9.209   3.248 -32.574  1.00  0.00     0.032 A 
BRANCH  18  21
HETATM   21  N   UNL     1     -12.072   1.054 -33.390  1.00  0.00    -0.327 N 
HETATM   22  C   UNL     1     -12.842   1.109 -34.539  1.00  0.00     0.221 C 
HETATM   23  O   UNL     1     -12.478   1.505 -35.643  1.00  0.00    -0.273 OA
HETATM   24  H   UNL     1     -12.496   0.638 -32.573  1.00  0.00     0.169 HD
BRANCH  22  25
HETATM   25  C   UNL     1     -14.277   0.656 -34.329  1.00  0.00     0.098 C 
HETATM   26  C   UNL     1     -15.001   1.407 -33.226  1.00  0.00     0.014 C 
ENDBRANCH  22  25
ENDBRANCH  18  21
ENDBRANCH  12  15
ENDBRANCH   1  11
BRANCH   8  27
HETATM   27  C   UNL     1      -1.928   7.226 -33.099  1.00  0.00     0.409 C 
HETATM   28  F   UNL     1      -2.928   7.519 -32.247  1.00  0.00    -0.169 F 
HETATM   29  F   UNL     1      -0.816   7.861 -32.648  1.00  0.00    -0.169 F 
HETATM   30  F   UNL     1      -2.231   7.800 -34.288  1.00  0.00    -0.169 F 
ENDBRANCH   8  27
BRANCH   6  31
HETATM   31  C   UNL     1      -0.609   6.189 -30.094  1.00  0.00     0.075 A 
HETATM   32  O   UNL     1      -1.768   6.674 -29.556  1.00  0.00    -0.325 OA
HETATM   33  C   UNL     1      -1.444   7.790 -28.853  1.00  0.00     0.142 A 
HETATM   34  C   UNL     1      -0.094   8.035 -28.932  1.00  0.00     0.027 A 
HETATM   35  C   UNL     1       0.447   7.005 -29.738  1.00  0.00     0.037 A 
ENDBRANCH   6  31
TORSDOF 6
ENDMDL
MODEL 2
REMARK VINA RESULT:      -8.4      1.537      1.805
REMARK  6 active torsions:
REMARK  status: ('A' for Active; 'I' for Inactive)
REMARK    1  A    between atoms: C_2  and  C_3 
REMARK       I    between atoms: C_3  and  N_4 
REMARK    2  A    between atoms: N_4  and  C_5 
REMARK    3  A    between atoms: C_8  and  N_9 
REMARK       I    between atoms: N_9  and  C_10 
REMARK    4  A    between atoms: C_10  and  C_11 
REMARK    5  A    between atoms: C_16  and  C_17 
REMARK    6  A    between atoms: C_23  and  C_24 
ROOT
HETATM    1  C   UNL     1      -4.575   3.673 -32.649  1.00  0.00     0.148 A 
HETATM    2  N   UNL     1      -4.752   5.015 -32.618  1.00  0.00    -0.165 NA
HETATM    3  N   UNL     1      -3.502   5.488 -32.461  1.00  0.00    -0.240 N 
HETATM    4  C   UNL     1      -2.531   4.530 -32.543  1.00  0.00     0.123 A 
HETATM    5  N   UNL     1      -1.219   4.842 -32.535  1.00  0.00    -0.364 N 
HETATM    6  C   UNL     1      -0.739   6.196 -32.256  1.00  0.00     0.143 C 
HETATM    7  C   UNL     1      -1.795   7.238 -32.666  1.00  0.00     0.068 C 
HETATM    8  C   UNL     1      -3.233   6.895 -32.235  1.00  0.00     0.221 C 
HETATM    9  C   UNL     1      -3.193   3.335 -32.623  1.00  0.00     0.089 A 
HETATM   10  H   UNL     1      -0.512   4.113 -32.460  1.00  0.00     0.162 HD
ENDROOT
BRANCH   1  11
HETATM   11  C   UNL     1      -5.702   2.725 -32.711  1.00  0.00     0.276 C 
HETATM   12  N   UNL     1      -6.855   3.313 -33.195  1.00  0.00    -0.322 N 
HETATM   13  H   UNL     1      -6.726   4.274 -33.503  1.00  0.00     0.169 HD
HETATM   14  O   UNL     1      -5.562   1.552 -32.386  1.00  0.00    -0.266 OA
BRANCH  12  15
HETATM   15  C   UNL     1      -8.126   2.731 -33.329  1.00  0.00     0.035 A 
HETATM   16  C   UNL     1      -8.386   1.622 -34.132  1.00  0.00     0.032 A 
HETATM   17  C   UNL     1      -9.672   1.070 -34.199  1.00  0.00     0.032 A 
HETATM   18  C   UNL     1     -10.726   1.632 -33.479  1.00  0.00     0.034 A 
HETATM   19  C   UNL     1     -10.468   2.754 -32.683  1.00  0.00     0.032 A 
HETATM   20  C   UNL     1      -9.177   3.288 -32.594  1.00  0.00     0.032 A 
BRANCH  18  21
HETATM   21  N   UNL     1     -12.050   1.147 -33.509  1.00  0.00    -0.327 N 
HETATM   22  C   UNL     1     -12.942   1.210 -34.565  1.00  0.00     0.221 C 
HETATM   23  O   UNL     1     -12.721   1.677 -35.679  1.00  0.00    -0.273 OA
HETATM   24  H   UNL     1     -12.360   0.670 -32.674  1.00  0.00     0.169 HD
BRANCH  22  25
HETATM   25  C   UNL     1     -14.320   0.666 -34.228  1.00  0.00     0.098 C 
HETATM   26  C   UNL     1     -15.040   1.450 -33.145  1.00  0.00     0.014 C 
ENDBRANCH  22  25
ENDBRANCH  18  21
ENDBRANCH  12  15
ENDBRANCH   1  11
BRANCH   8  27
HETATM   27  C   UNL     1      -3.545   7.248 -30.797  1.00  0.00     0.409 C 
HETATM   28  F   UNL     1      -4.845   7.522 -30.574  1.00  0.00    -0.169 F 
HETATM   29  F   UNL     1      -3.203   6.223 -29.975  1.00  0.00    -0.169 F 
HETATM   30  F   UNL     1      -2.831   8.319 -30.378  1.00  0.00    -0.169 F 
ENDBRANCH   8  27
BRANCH   6  31
HETATM   31  C   UNL     1      -0.211   6.397 -30.872  1.00  0.00     0.075 A 
HETATM   32  O   UNL     1      -0.196   5.297 -30.062  1.00  0.00    -0.325 OA
HETATM   33  C   UNL     1       0.275   5.699 -28.853  1.00  0.00     0.142 A 
HETATM   34  C   UNL     1       0.561   7.043 -28.869  1.00  0.00     0.027 A 
HETATM   35  C   UNL     1       0.242   7.498 -30.171  1.00  0.00     0.037 A 
ENDBRANCH   6  31
TORSDOF 6
ENDMDL
MODEL 3
REMARK VINA RESULT:      -8.3      3.848     10.942
REMARK  6 active torsions:
REMARK  status: ('A' for Active; 'I' for Inactive)
REMARK    1  A    between atoms: C_2  and  C_3 
REMARK       I    between atoms: C_3  and  N_4 
REMARK    2  A    between atoms: N_4  and  C_5 
REMARK    3  A    between atoms: C_8  and  N_9 
REMARK       I    between atoms: N_9  and  C_10 
REMARK    4  A    between atoms: C_10  and  C_11 
REMARK    5  A    between atoms: C_16  and  C_17 
REMARK    6  A    between atoms: C_23  and  C_24 
ROOT
HETATM    1  C   UNL     1      -1.923   4.842 -31.556  1.00  0.00     0.148 A 
HETATM    2  N   UNL     1      -2.599   3.690 -31.338  1.00  0.00    -0.165 NA
HETATM    3  N   UNL     1      -3.637   3.774 -32.192  1.00  0.00    -0.240 N 
HETATM    4  C   UNL     1      -3.570   4.842 -33.042  1.00  0.00     0.123 A 
HETATM    5  N   UNL     1      -4.457   5.011 -34.044  1.00  0.00    -0.364 N 
HETATM    6  C   UNL     1      -5.650   4.175 -34.183  1.00  0.00     0.143 C 
HETATM    7  C   UNL     1      -5.407   2.783 -33.570  1.00  0.00     0.068 C 
HETATM    8  C   UNL     1      -4.712   2.801 -32.197  1.00  0.00     0.221 C 
HETATM    9  C   UNL     1      -2.493   5.579 -32.630  1.00  0.00     0.089 A 
HETATM   10  H   UNL     1      -4.475   5.877 -34.580  1.00  0.00     0.162 HD
ENDROOT
BRANCH   1  11
HETATM   11  C   UNL     1      -0.746   5.233 -30.760  1.00  0.00     0.276 C 
HETATM   12  N   UNL     1      -1.087   6.012 -29.670  1.00  0.00    -0.322 N 
HETATM   13  H   UNL     1      -2.089   6.126 -29.546  1.00  0.00     0.169 HD
HETATM   14  O   UNL     1       0.379   4.853 -31.062  1.00  0.00    -0.266 OA
BRANCH  12  15
HETATM   15  C   UNL     1      -0.223   6.611 -28.738  1.00  0.00     0.035 A 
HETATM   16  C   UNL     1       0.631   7.668 -29.046  1.00  0.00     0.032 A 
HETATM   17  C   UNL     1       1.448   8.241 -28.061  1.00  0.00     0.032 A 
HETATM   18  C   UNL     1       1.439   7.750 -26.756  1.00  0.00     0.034 A 
HETATM   19  C   UNL     1       0.592   6.680 -26.450  1.00  0.00     0.032 A 
HETATM   20  C   UNL     1      -0.245   6.126 -27.427  1.00  0.00     0.032 A 
BRANCH  18  21
HETATM   21  N   UNL     1       2.245   8.260 -25.716  1.00  0.00    -0.327 N 
HETATM   22  C   UNL     1       2.007   9.384 -24.945  1.00  0.00     0.221 C 
HETATM   23  O   UNL     1       1.028  10.121 -25.013  1.00  0.00    -0.273 OA
HETATM   24  H   UNL     1       3.067   7.716 -25.494  1.00  0.00     0.169 HD
BRANCH  22  25
HETATM   25  C   UNL     1       3.127   9.696 -23.967  1.00  0.00     0.098 C 
HETATM   26  C   UNL     1       3.265   8.680 -22.847  1.00  0.00     0.014 C 
ENDBRANCH  22  25
ENDBRANCH  18  21
ENDBRANCH  12  15
ENDBRANCH   1  11
BRANCH   8  27
HETATM   27  C   UNL     1      -5.647   3.071 -31.038  1.00  0.00     0.409 C 
HETATM   28  F   UNL     1      -6.922   2.703 -31.270  1.00  0.00    -0.169 F 
HETATM   29  F   UNL     1      -5.231   2.403 -29.932  1.00  0.00    -0.169 F 
HETATM   30  F   UNL     1      -5.662   4.382 -30.701  1.00  0.00    -0.169 F 
ENDBRANCH   8  27
BRANCH   6  31
HETATM   31  C   UNL     1      -6.918   4.817 -33.718  1.00  0.00     0.075 A 
HETATM   32  O   UNL     1      -6.787   5.986 -33.024  1.00  0.00    -0.325 OA
HETATM   33  C   UNL     1      -8.037   6.377 -32.664  1.00  0.00     0.142 A 
HETATM   34  C   UNL     1      -8.972   5.474 -33.111  1.00  0.00     0.027 A 
HETATM   35  C   UNL     1      -8.251   4.462 -33.787  1.00  0.00     0.037 A 
ENDBRANCH   6  31
TORSDOF 6
ENDMDL
MODEL 4
REMARK VINA RESULT:      -8.0      4.384      5.641
REMARK  6 active torsions:
REMARK  status: ('A' for Active; 'I' for Inactive)
REMARK    1  A    between atoms: C_2  and  C_3 
REMARK       I    between atoms: C_3  and  N_4 
REMARK    2  A    between atoms: N_4  and  C_5 
REMARK    3  A    between atoms: C_8  and  N_9 
REMARK       I    between atoms: N_9  and  C_10 
REMARK    4  A    between atoms: C_10  and  C_11 
REMARK    5  A    between atoms: C_16  and  C_17 
REMARK    6  A    between atoms: C_23  and  C_24 
ROOT
HETATM    1  C   UNL     1      -3.392   6.342 -30.403  1.00  0.00     0.148 A 
HETATM    2  N   UNL     1      -3.880   6.575 -29.161  1.00  0.00    -0.165 NA
HETATM    3  N   UNL     1      -3.040   7.505 -28.669  1.00  0.00    -0.240 N 
HETATM    4  C   UNL     1      -2.143   7.982 -29.583  1.00  0.00     0.123 A 
HETATM    5  N   UNL     1      -1.312   9.005 -29.298  1.00  0.00    -0.364 N 
HETATM    6  C   UNL     1      -1.181   9.555 -27.949  1.00  0.00     0.143 C 
HETATM    7  C   UNL     1      -2.487   9.356 -27.157  1.00  0.00     0.068 C 
HETATM    8  C   UNL     1      -3.108   7.954 -27.292  1.00  0.00     0.221 C 
HETATM    9  C   UNL     1      -2.315   7.219 -30.706  1.00  0.00     0.089 A 
HETATM   10  H   UNL     1      -0.560   9.257 -29.939  1.00  0.00     0.162 HD
ENDROOT
BRANCH   1  11
HETATM   11  C   UNL     1      -3.947   5.305 -31.290  1.00  0.00     0.276 C 
HETATM   12  N   UNL     1      -3.909   4.048 -30.716  1.00  0.00    -0.322 N 
HETATM   13  H   UNL     1      -3.581   4.048 -29.754  1.00  0.00     0.169 HD
HETATM   14  O   UNL     1      -4.406   5.591 -32.390  1.00  0.00    -0.266 OA
BRANCH  12  15
HETATM   15  C   UNL     1      -4.292   2.827 -31.295  1.00  0.00     0.035 A 
HETATM   16  C   UNL     1      -3.401   1.957 -31.921  1.00  0.00     0.032 A 
HETATM   17  C   UNL     1      -3.843   0.738 -32.453  1.00  0.00     0.032 A 
HETATM   18  C   UNL     1      -5.189   0.379 -32.386  1.00  0.00     0.034 A 
HETATM   19  C   UNL     1      -6.086   1.259 -31.770  1.00  0.00     0.032 A 
HETATM   20  C   UNL     1      -5.639   2.464 -31.213  1.00  0.00     0.032 A 
BRANCH  18  21
HETATM   21  N   UNL     1      -5.713  -0.819 -32.914  1.00  0.00    -0.327 N 
HETATM   22  C   UNL     1      -6.333  -0.995 -34.139  1.00  0.00     0.221 C 
HETATM   23  O   UNL     1      -6.507  -0.135 -34.998  1.00  0.00    -0.273 OA
HETATM   24  H   UNL     1      -5.585  -1.642 -32.342  1.00  0.00     0.169 HD
BRANCH  22  25
HETATM   25  C   UNL     1      -6.858  -2.405 -34.356  1.00  0.00     0.098 C 
HETATM   26  C   UNL     1      -5.792  -3.396 -34.789  1.00  0.00     0.014 C 
ENDBRANCH  22  25
ENDBRANCH  18  21
ENDBRANCH  12  15
ENDBRANCH   1  11
BRANCH   8  27
HETATM   27  C   UNL     1      -2.482   6.914 -26.388  1.00  0.00     0.409 C 
HETATM   28  F   UNL     1      -1.371   6.349 -26.896  1.00  0.00    -0.169 F 
HETATM   29  F   UNL     1      -2.143   7.468 -25.196  1.00  0.00    -0.169 F 
HETATM   30  F   UNL     1      -3.348   5.912 -26.103  1.00  0.00    -0.169 F 
ENDBRANCH   8  27
BRANCH   6  31
HETATM   31  C   UNL     1       0.038   9.108 -27.209  1.00  0.00     0.075 A 
HETATM   32  O   UNL     1       0.098   9.434 -25.883  1.00  0.00    -0.325 OA
HETATM   33  C   UNL     1       1.287   8.976 -25.414  1.00  0.00     0.142 A 
HETATM   34  C   UNL     1       1.999   8.364 -26.418  1.00  0.00     0.027 A 
HETATM   35  C   UNL     1       1.196   8.453 -27.580  1.00  0.00     0.037 A 
ENDBRANCH   6  31
TORSDOF 6
ENDMDL
MODEL 5
REMARK VINA RESULT:      -8.0      3.681     10.876
REMARK  6 active torsions:
REMARK  status: ('A' for Active; 'I' for Inactive)
REMARK    1  A    between atoms: C_2  and  C_3 
REMARK       I    between atoms: C_3  and  N_4 
REMARK    2  A    between atoms: N_4  and  C_5 
REMARK    3  A    between atoms: C_8  and  N_9 
REMARK       I    between atoms: N_9  and  C_10 
REMARK    4  A    between atoms: C_10  and  C_11 
REMARK    5  A    between atoms: C_16  and  C_17 
REMARK    6  A    between atoms: C_23  and  C_24 
ROOT
HETATM    1  C   UNL     1      -4.062   6.619 -30.453  1.00  0.00     0.148 A 
HETATM    2  N   UNL     1      -4.281   6.864 -31.766  1.00  0.00    -0.165 NA
HETATM    3  N   UNL     1      -5.166   5.910 -32.115  1.00  0.00    -0.240 N 
HETATM    4  C   UNL     1      -5.631   5.173 -31.063  1.00  0.00     0.123 A 
HETATM    5  N   UNL     1      -6.614   4.262 -31.210  1.00  0.00    -0.364 N 
HETATM    6  C   UNL     1      -7.124   3.866 -32.524  1.00  0.00     0.143 C 
HETATM    7  C   UNL     1      -6.953   5.014 -33.536  1.00  0.00     0.068 C 
HETATM    8  C   UNL     1      -5.580   5.708 -33.490  1.00  0.00     0.221 C 
HETATM    9  C   UNL     1      -4.906   5.578 -29.975  1.00  0.00     0.089 A 
HETATM   10  H   UNL     1      -6.854   3.629 -30.449  1.00  0.00     0.162 HD
ENDROOT
BRANCH   1  11
HETATM   11  C   UNL     1      -3.070   7.368 -29.661  1.00  0.00     0.276 C 
HETATM   12  N   UNL     1      -1.998   6.582 -29.285  1.00  0.00    -0.322 N 
HETATM   13  H   UNL     1      -2.023   5.644 -29.674  1.00  0.00     0.169 HD
HETATM   14  O   UNL     1      -3.220   8.561 -29.424  1.00  0.00    -0.266 OA
BRANCH  12  15
HETATM   15  C   UNL     1      -0.907   6.946 -28.478  1.00  0.00     0.035 A 
HETATM   16  C   UNL     1       0.152   7.734 -28.923  1.00  0.00     0.032 A 
HETATM   17  C   UNL     1       1.197   8.087 -28.058  1.00  0.00     0.032 A 
HETATM   18  C   UNL     1       1.210   7.637 -26.738  1.00  0.00     0.034 A 
HETATM   19  C   UNL     1       0.154   6.834 -26.295  1.00  0.00     0.032 A 
HETATM   20  C   UNL     1      -0.905   6.505 -27.151  1.00  0.00     0.032 A 
BRANCH  18  21
HETATM   21  N   UNL     1       2.234   7.932 -25.814  1.00  0.00    -0.327 N 
HETATM   22  C   UNL     1       2.221   8.904 -24.829  1.00  0.00     0.221 C 
HETATM   23  O   UNL     1       1.293   9.664 -24.568  1.00  0.00    -0.273 OA
HETATM   24  H   UNL     1       3.050   7.338 -25.861  1.00  0.00     0.169 HD
BRANCH  22  25
HETATM   25  C   UNL     1       3.529   9.009 -24.063  1.00  0.00     0.098 C 
HETATM   26  C   UNL     1       3.426   8.576 -22.612  1.00  0.00     0.014 C 
ENDBRANCH  22  25
ENDBRANCH  18  21
ENDBRANCH  12  15
ENDBRANCH   1  11
BRANCH   8  27
HETATM   27  C   UNL     1      -4.493   4.974 -34.245  1.00  0.00     0.409 C 
HETATM   28  F   UNL     1      -4.954   4.206 -35.251  1.00  0.00    -0.169 F 
HETATM   29  F   UNL     1      -3.614   5.856 -34.783  1.00  0.00    -0.169 F 
HETATM   30  F   UNL     1      -3.769   4.173 -33.428  1.00  0.00    -0.169 F 
ENDBRANCH   8  27
BRANCH   6  31
HETATM   31  C   UNL     1      -6.611   2.553 -33.021  1.00  0.00     0.075 A 
HETATM   32  O   UNL     1      -7.183   2.072 -34.164  1.00  0.00    -0.325 OA
HETATM   33  C   UNL     1      -6.611   0.866 -34.418  1.00  0.00     0.142 A 
HETATM   34  C   UNL     1      -5.682   0.560 -33.453  1.00  0.00     0.027 A 
HETATM   35  C   UNL     1      -5.684   1.646 -32.546  1.00  0.00     0.037 A 
ENDBRANCH   6  31
TORSDOF 6
ENDMDL
MODEL 6
REMARK VINA RESULT:      -7.8      4.145      5.146
REMARK  6 active torsions:
REMARK  status: ('A' for Active; 'I' for Inactive)
REMARK    1  A    between atoms: C_2  and  C_3 
REMARK       I    between atoms: C_3  and  N_4 
REMARK    2  A    between atoms: N_4  and  C_5 
REMARK    3  A    between atoms: C_8  and  N_9 
REMARK       I    between atoms: N_9  and  C_10 
REMARK    4  A    between atoms: C_10  and  C_11 
REMARK    5  A    between atoms: C_16  and  C_17 
REMARK    6  A    between atoms: C_23  and  C_24 
ROOT
HETATM    1  C   UNL     1      -2.488   5.247 -31.646  1.00  0.00     0.148 A 
HETATM    2  N   UNL     1      -3.224   6.384 -31.626  1.00  0.00    -0.165 NA
HETATM    3  N   UNL     1      -2.593   7.145 -30.712  1.00  0.00    -0.240 N 
HETATM    4  C   UNL     1      -1.416   6.614 -30.265  1.00  0.00     0.123 A 
HETATM    5  N   UNL     1      -0.593   7.298 -29.444  1.00  0.00    -0.364 N 
HETATM    6  C   UNL     1      -0.978   8.569 -28.830  1.00  0.00     0.143 C 
HETATM    7  C   UNL     1      -2.001   9.306 -29.714  1.00  0.00     0.068 C 
HETATM    8  C   UNL     1      -3.130   8.415 -30.264  1.00  0.00     0.221 C 
HETATM    9  C   UNL     1      -1.336   5.365 -30.818  1.00  0.00     0.089 A 
HETATM   10  H   UNL     1       0.209   6.839 -29.014  1.00  0.00     0.162 HD
ENDROOT
BRANCH   1  11
HETATM   11  C   UNL     1      -2.868   4.070 -32.446  1.00  0.00     0.276 C 
HETATM   12  N   UNL     1      -3.827   3.298 -31.818  1.00  0.00    -0.322 N 
HETATM   13  H   UNL     1      -4.172   3.700 -30.950  1.00  0.00     0.169 HD
HETATM   14  O   UNL     1      -2.378   3.869 -33.551  1.00  0.00    -0.266 OA
BRANCH  12  15
HETATM   15  C   UNL     1      -4.373   2.080 -32.256  1.00  0.00     0.035 A 
HETATM   16  C   UNL     1      -3.813   0.836 -31.969  1.00  0.00     0.032 A 
HETATM   17  C   UNL     1      -4.424  -0.345 -32.413  1.00  0.00     0.032 A 
HETATM   18  C   UNL     1      -5.594  -0.300 -33.169  1.00  0.00     0.034 A 
HETATM   19  C   UNL     1      -6.148   0.949 -33.470  1.00  0.00     0.032 A 
HETATM   20  C   UNL     1      -5.553   2.128 -33.002  1.00  0.00     0.032 A 
BRANCH  18  21
HETATM   21  N   UNL     1      -6.256  -1.441 -33.668  1.00  0.00    -0.327 N 
HETATM   22  C   UNL     1      -5.700  -2.488 -34.382  1.00  0.00     0.221 C 
HETATM   23  O   UNL     1      -4.516  -2.619 -34.682  1.00  0.00    -0.273 OA
HETATM   24  H   UNL     1      -7.238  -1.511 -33.441  1.00  0.00     0.169 HD
BRANCH  22  25
HETATM   25  C   UNL     1      -6.719  -3.517 -34.841  1.00  0.00     0.098 C 
HETATM   26  C   UNL     1      -6.103  -4.822 -35.313  1.00  0.00     0.014 C 
ENDBRANCH  22  25
ENDBRANCH  18  21
ENDBRANCH  12  15
ENDBRANCH   1  11
BRANCH   8  27
HETATM   27  C   UNL     1      -4.256   8.174 -29.283  1.00  0.00     0.409 C 
HETATM   28  F   UNL     1      -4.115   7.047 -28.560  1.00  0.00    -0.169 F 
HETATM   29  F   UNL     1      -4.347   9.206 -28.406  1.00  0.00    -0.169 F 
HETATM   30  F   UNL     1      -5.456   8.104 -29.906  1.00  0.00    -0.169 F 
ENDBRANCH   8  27
BRANCH   6  31
HETATM   31  C   UNL     1      -1.393   8.469 -27.397  1.00  0.00     0.075 A 
HETATM   32  O   UNL     1      -1.596   7.209 -26.911  1.00  0.00    -0.325 OA
HETATM   33  C   UNL     1      -2.000   7.340 -25.621  1.00  0.00     0.142 A 
HETATM   34  C   UNL     1      -2.065   8.667 -25.269  1.00  0.00     0.027 A 
HETATM   35  C   UNL     1      -1.678   9.399 -26.417  1.00  0.00     0.037 A 
ENDBRANCH   6  31
TORSDOF 6
ENDMDL
MODEL 7
REMARK VINA RESULT:      -7.7      6.623      9.702
REMARK  6 active torsions:
REMARK  status: ('A' for Active; 'I' for Inactive)
REMARK    1  A    between atoms: C_2  and  C_3 
REMARK       I    between atoms: C_3  and  N_4 
REMARK    2  A    between atoms: N_4  and  C_5 
REMARK    3  A    between atoms: C_8  and  N_9 
REMARK       I    between atoms: N_9  and  C_10 
REMARK    4  A    between atoms: C_10  and  C_11 
REMARK    5  A    between atoms: C_16  and  C_17 
REMARK    6  A    between atoms: C_23  and  C_24 
ROOT
HETATM    1  C   UNL     1     -11.259   2.737 -33.581  1.00  0.00     0.148 A 
HETATM    2  N   UNL     1     -10.726   3.899 -33.133  1.00  0.00    -0.165 NA
HETATM    3  N   UNL     1     -11.653   4.815 -33.470  1.00  0.00    -0.240 N 
HETATM    4  C   UNL     1     -12.807   4.279 -33.969  1.00  0.00     0.123 A 
HETATM    5  N   UNL     1     -13.887   5.040 -34.239  1.00  0.00    -0.364 N 
HETATM    6  C   UNL     1     -13.846   6.502 -34.194  1.00  0.00     0.143 C 
HETATM    7  C   UNL     1     -12.773   6.980 -33.197  1.00  0.00     0.068 C 
HETATM    8  C   UNL     1     -11.429   6.237 -33.300  1.00  0.00     0.221 C 
HETATM    9  C   UNL     1     -12.570   2.937 -34.094  1.00  0.00     0.089 A 
HETATM   10  H   UNL     1     -14.686   4.649 -34.735  1.00  0.00     0.162 HD
ENDROOT
BRANCH   1  11
HETATM   11  C   UNL     1     -10.535   1.456 -33.516  1.00  0.00     0.276 C 
HETATM   12  N   UNL     1      -9.172   1.614 -33.684  1.00  0.00    -0.322 N 
HETATM   13  H   UNL     1      -8.878   2.585 -33.747  1.00  0.00     0.169 HD
HETATM   14  O   UNL     1     -11.126   0.404 -33.302  1.00  0.00    -0.266 OA
BRANCH  12  15
HETATM   15  C   UNL     1      -8.191   0.611 -33.743  1.00  0.00     0.035 A 
HETATM   16  C   UNL     1      -7.487   0.155 -32.630  1.00  0.00     0.032 A 
HETATM   17  C   UNL     1      -6.540  -0.871 -32.750  1.00  0.00     0.032 A 
HETATM   18  C   UNL     1      -6.266  -1.443 -33.992  1.00  0.00     0.034 A 
HETATM   19  C   UNL     1      -6.961  -0.975 -35.112  1.00  0.00     0.032 A 
HETATM   20  C   UNL     1      -7.928   0.030 -34.987  1.00  0.00     0.032 A 
BRANCH  18  21
HETATM   21  N   UNL     1      -5.314  -2.464 -34.198  1.00  0.00    -0.327 N 
HETATM   22  C   UNL     1      -5.561  -3.794 -34.491  1.00  0.00     0.221 C 
HETATM   23  O   UNL     1      -6.662  -4.312 -34.654  1.00  0.00    -0.273 OA
HETATM   24  H   UNL     1      -4.347  -2.174 -34.160  1.00  0.00     0.169 HD
BRANCH  22  25
HETATM   25  C   UNL     1      -4.303  -4.642 -34.563  1.00  0.00     0.098 C 
HETATM   26  C   UNL     1      -3.470  -4.613 -33.294  1.00  0.00     0.014 C 
ENDBRANCH  22  25
ENDBRANCH  18  21
ENDBRANCH  12  15
ENDBRANCH   1  11
BRANCH   8  27
HETATM   27  C   UNL     1     -10.528   6.745 -34.405  1.00  0.00     0.409 C 
HETATM   28  F   UNL     1     -10.664   8.062 -34.655  1.00  0.00    -0.169 F 
HETATM   29  F   UNL     1      -9.226   6.528 -34.090  1.00  0.00    -0.169 F 
HETATM   30  F   UNL     1     -10.746   6.090 -35.570  1.00  0.00    -0.169 F 
ENDBRANCH   8  27
BRANCH   6  31
HETATM   31  C   UNL     1     -13.753   7.165 -35.530  1.00  0.00     0.075 A 
HETATM   32  O   UNL     1     -13.593   8.521 -35.526  1.00  0.00    -0.325 OA
HETATM   33  C   UNL     1     -13.573   8.924 -36.823  1.00  0.00     0.142 A 
HETATM   34  C   UNL     1     -13.722   7.848 -37.665  1.00  0.00     0.027 A 
HETATM   35  C   UNL     1     -13.845   6.711 -36.832  1.00  0.00     0.037 A 
ENDBRANCH   6  31
TORSDOF 6
ENDMDL
MODEL 8
REMARK VINA RESULT:      -7.6      3.676     10.779
REMARK  6 active torsions:
REMARK  status: ('A' for Active; 'I' for Inactive)
REMARK    1  A    between atoms: C_2  and  C_3 
REMARK       I    between atoms: C_3  and  N_4 
REMARK    2  A    between atoms: N_4  and  C_5 
REMARK    3  A    between atoms: C_8  and  N_9 
REMARK       I    between atoms: N_9  and  C_10 
REMARK    4  A    between atoms: C_10  and  C_11 
REMARK    5  A    between atoms: C_16  and  C_17 
REMARK    6  A    between atoms: C_23  and  C_24 
ROOT
HETATM    1  C   UNL     1      -6.388   3.617 -31.825  1.00  0.00     0.148 A 
HETATM    2  N   UNL     1      -6.583   2.290 -32.016  1.00  0.00    -0.165 NA
HETATM    3  N   UNL     1      -7.662   2.249 -32.821  1.00  0.00    -0.240 N 
HETATM    4  C   UNL     1      -8.066   3.474 -33.270  1.00  0.00     0.123 A 
HETATM    5  N   UNL     1      -9.050   3.609 -34.183  1.00  0.00    -0.364 N 
HETATM    6  C   UNL     1      -9.873   2.480 -34.619  1.00  0.00     0.143 C 
HETATM    7  C   UNL     1      -9.089   1.161 -34.493  1.00  0.00     0.068 C 
HETATM    8  C   UNL     1      -8.313   1.002 -33.173  1.00  0.00     0.221 C 
HETATM    9  C   UNL     1      -7.289   4.388 -32.612  1.00  0.00     0.089 A 
HETATM   10  H   UNL     1      -9.430   4.528 -34.405  1.00  0.00     0.162 HD
ENDROOT
BRANCH   1  11
HETATM   11  C   UNL     1      -5.356   4.144 -30.915  1.00  0.00     0.276 C 
HETATM   12  N   UNL     1      -4.445   4.952 -31.568  1.00  0.00    -0.322 N 
HETATM   13  H   UNL     1      -4.672   5.118 -32.545  1.00  0.00     0.169 HD
HETATM   14  O   UNL     1      -5.375   3.884 -29.718  1.00  0.00    -0.266 OA
BRANCH  12  15
HETATM   15  C   UNL     1      -3.303   5.568 -31.031  1.00  0.00     0.035 A 
HETATM   16  C   UNL     1      -2.003   5.131 -31.278  1.00  0.00     0.032 A 
HETATM   17  C   UNL     1      -0.902   5.808 -30.734  1.00  0.00     0.032 A 
HETATM   18  C   UNL     1      -1.086   6.922 -29.917  1.00  0.00     0.034 A 
HETATM   19  C   UNL     1      -2.392   7.353 -29.657  1.00  0.00     0.032 A 
HETATM   20  C   UNL     1      -3.490   6.693 -30.223  1.00  0.00     0.032 A 
BRANCH  18  21
HETATM   21  N   UNL     1      -0.033   7.644 -29.318  1.00  0.00    -0.327 N 
HETATM   22  C   UNL     1       0.510   7.447 -28.060  1.00  0.00     0.221 C 
HETATM   23  O   UNL     1       0.184   6.581 -27.253  1.00  0.00    -0.273 OA
HETATM   24  H   UNL     1       0.390   8.359 -29.894  1.00  0.00     0.169 HD
BRANCH  22  25
HETATM   25  C   UNL     1       1.580   8.463 -27.696  1.00  0.00     0.098 C 
HETATM   26  C   UNL     1       1.978   8.435 -26.231  1.00  0.00     0.014 C 
ENDBRANCH  22  25
ENDBRANCH  18  21
ENDBRANCH  12  15
ENDBRANCH   1  11
BRANCH   8  27
HETATM   27  C   UNL     1      -9.162   0.527 -32.014  1.00  0.00     0.409 C 
HETATM   28  F   UNL     1      -8.471  -0.147 -31.074  1.00  0.00    -0.169 F 
HETATM   29  F   UNL     1      -9.753   1.583 -31.398  1.00  0.00    -0.169 F 
HETATM   30  F   UNL     1     -10.169  -0.278 -32.427  1.00  0.00    -0.169 F 
ENDBRANCH   8  27
BRANCH   6  31
HETATM   31  C   UNL     1     -11.233   2.426 -34.001  1.00  0.00     0.075 A 
HETATM   32  O   UNL     1     -11.560   3.452 -33.161  1.00  0.00    -0.325 OA
HETATM   33  C   UNL     1     -12.804   3.194 -32.682  1.00  0.00     0.142 A 
HETATM   34  C   UNL     1     -13.284   2.013 -33.197  1.00  0.00     0.027 A 
HETATM   35  C   UNL     1     -12.268   1.512 -34.045  1.00  0.00     0.037 A 
ENDBRANCH   6  31
TORSDOF 6
ENDMDL
MODEL 9
REMARK VINA RESULT:      -7.5      3.921     10.809
REMARK  6 active torsions:
REMARK  status: ('A' for Active; 'I' for Inactive)
REMARK    1  A    between atoms: C_2  and  C_3 
REMARK       I    between atoms: C_3  and  N_4 
REMARK    2  A    between atoms: N_4  and  C_5 
REMARK    3  A    between atoms: C_8  and  N_9 
REMARK       I    between atoms: N_9  and  C_10 
REMARK    4  A    between atoms: C_10  and  C_11 
REMARK    5  A    between atoms: C_16  and  C_17 
REMARK    6  A    between atoms: C_23  and  C_24 
ROOT
HETATM    1  C   UNL     1      -8.163   3.203 -33.958  1.00  0.00     0.148 A 
HETATM    2  N   UNL     1      -8.688   2.005 -34.305  1.00  0.00    -0.165 NA
HETATM    3  N   UNL     1     -10.005   2.265 -34.416  1.00  0.00    -0.240 N 
HETATM    4  C   UNL     1     -10.320   3.590 -34.306  1.00  0.00     0.123 A 
HETATM    5  N   UNL     1     -11.571   4.045 -34.517  1.00  0.00    -0.364 N 
HETATM    6  C   UNL     1     -12.712   3.145 -34.696  1.00  0.00     0.143 C 
HETATM    7  C   UNL     1     -12.249   1.802 -35.290  1.00  0.00     0.068 C 
HETATM    8  C   UNL     1     -10.982   1.217 -34.641  1.00  0.00     0.221 C 
HETATM    9  C   UNL     1      -9.154   4.223 -33.967  1.00  0.00     0.089 A 
HETATM   10  H   UNL     1     -11.817   5.010 -34.300  1.00  0.00     0.162 HD
ENDROOT
BRANCH   1  11
HETATM   11  C   UNL     1      -6.737   3.378 -33.629  1.00  0.00     0.276 C 
HETATM   12  N   UNL     1      -6.481   4.603 -33.043  1.00  0.00    -0.322 N 
HETATM   13  H   UNL     1      -7.317   5.152 -32.861  1.00  0.00     0.169 HD
HETATM   14  O   UNL     1      -5.923   2.487 -33.845  1.00  0.00    -0.266 OA
BRANCH  12  15
HETATM   15  C   UNL     1      -5.236   5.129 -32.660  1.00  0.00     0.035 A 
HETATM   16  C   UNL     1      -4.331   5.696 -33.555  1.00  0.00     0.032 A 
HETATM   17  C   UNL     1      -3.116   6.231 -33.105  1.00  0.00     0.032 A 
HETATM   18  C   UNL     1      -2.777   6.188 -31.753  1.00  0.00     0.034 A 
HETATM   19  C   UNL     1      -3.680   5.605 -30.856  1.00  0.00     0.032 A 
HETATM   20  C   UNL     1      -4.906   5.097 -31.302  1.00  0.00     0.032 A 
BRANCH  18  21
HETATM   21  N   UNL     1      -1.568   6.686 -31.226  1.00  0.00    -0.327 N 
HETATM   22  C   UNL     1      -0.342   6.044 -31.187  1.00  0.00     0.221 C 
HETATM   23  O   UNL     1      -0.088   4.930 -31.637  1.00  0.00    -0.273 OA
HETATM   24  H   UNL     1      -1.602   7.632 -30.871  1.00  0.00     0.169 HD
BRANCH  22  25
HETATM   25  C   UNL     1       0.735   6.838 -30.467  1.00  0.00     0.098 C 
HETATM   26  C   UNL     1       0.241   7.555 -29.224  1.00  0.00     0.014 C 
ENDBRANCH  22  25
ENDBRANCH  18  21
ENDBRANCH  12  15
ENDBRANCH   1  11
BRANCH   8  27
HETATM   27  C   UNL     1     -11.240   0.476 -33.347  1.00  0.00     0.409 C 
HETATM   28  F   UNL     1     -12.412  -0.186 -33.323  1.00  0.00    -0.169 F 
HETATM   29  F   UNL     1     -10.259  -0.435 -33.123  1.00  0.00    -0.169 F 
HETATM   30  F   UNL     1     -11.227   1.310 -32.281  1.00  0.00    -0.169 F 
ENDBRANCH   8  27
BRANCH   6  31
HETATM   31  C   UNL     1     -13.581   2.994 -33.489  1.00  0.00     0.075 A 
HETATM   32  O   UNL     1     -13.340   3.853 -32.455  1.00  0.00    -0.325 OA
HETATM   33  C   UNL     1     -14.200   3.526 -31.457  1.00  0.00     0.142 A 
HETATM   34  C   UNL     1     -14.991   2.465 -31.829  1.00  0.00     0.027 A 
HETATM   35  C   UNL     1     -14.589   2.116 -33.140  1.00  0.00     0.037 A 
ENDBRANCH   6  31
TORSDOF 6
ENDMDL
MODEL 10
REMARK VINA RESULT:      -7.4      4.297     11.490
REMARK  6 active torsions:
REMARK  status: ('A' for Active; 'I' for Inactive)
REMARK    1  A    between atoms: C_2  and  C_3 
REMARK       I    between atoms: C_3  and  N_4 
REMARK    2  A    between atoms: N_4  and  C_5 
REMARK    3  A    between atoms: C_8  and  N_9 
REMARK       I    between atoms: N_9  and  C_10 
REMARK    4  A    between atoms: C_10  and  C_11 
REMARK    5  A    between atoms: C_16  and  C_17 
REMARK    6  A    between atoms: C_23  and  C_24 
ROOT
HETATM    1  C   UNL     1      -3.143   7.253 -29.981  1.00  0.00     0.148 A 
HETATM    2  N   UNL     1      -2.840   6.776 -31.211  1.00  0.00    -0.165 NA
HETATM    3  N   UNL     1      -3.801   5.858 -31.432  1.00  0.00    -0.240 N 
HETATM    4  C   UNL     1      -4.778   5.837 -30.477  1.00  0.00     0.123 A 
HETATM    5  N   UNL     1      -5.881   5.071 -30.603  1.00  0.00    -0.364 N 
HETATM    6  C   UNL     1      -6.026   4.078 -31.668  1.00  0.00     0.143 C 
HETATM    7  C   UNL     1      -5.206   4.490 -32.904  1.00  0.00     0.068 C 
HETATM    8  C   UNL     1      -3.784   4.988 -32.592  1.00  0.00     0.221 C 
HETATM    9  C   UNL     1      -4.362   6.700 -29.499  1.00  0.00     0.089 A 
HETATM   10  H   UNL     1      -6.530   4.964 -29.825  1.00  0.00     0.162 HD
ENDROOT
BRANCH   1  11
HETATM   11  C   UNL     1      -2.290   8.226 -29.276  1.00  0.00     0.276 C 
HETATM   12  N   UNL     1      -1.364   7.613 -28.454  1.00  0.00    -0.322 N 
HETATM   13  H   UNL     1      -1.364   6.599 -28.523  1.00  0.00     0.169 HD
HETATM   14  O   UNL     1      -2.415   9.431 -29.464  1.00  0.00    -0.266 OA
BRANCH  12  15
HETATM   15  C   UNL     1      -0.440   8.227 -27.592  1.00  0.00     0.035 A 
HETATM   16  C   UNL     1      -0.800   8.883 -26.417  1.00  0.00     0.032 A 
HETATM   17  C   UNL     1       0.175   9.450 -25.584  1.00  0.00     0.032 A 
HETATM   18  C   UNL     1       1.525   9.388 -25.926  1.00  0.00     0.034 A 
HETATM   19  C   UNL     1       1.885   8.741 -27.113  1.00  0.00     0.032 A 
HETATM   20  C   UNL     1       0.914   8.149 -27.930  1.00  0.00     0.032 A 
BRANCH  18  21
HETATM   21  N   UNL     1       2.561   9.950 -25.152  1.00  0.00    -0.327 N 
HETATM   22  C   UNL     1       3.121   9.433 -23.996  1.00  0.00     0.221 C 
HETATM   23  O   UNL     1       2.828   8.369 -23.458  1.00  0.00    -0.273 OA
HETATM   24  H   UNL     1       2.957  10.808 -25.509  1.00  0.00     0.169 HD
BRANCH  22  25
HETATM   25  C   UNL     1       4.162  10.343 -23.367  1.00  0.00     0.098 C 
HETATM   26  C   UNL     1       4.810   9.763 -22.122  1.00  0.00     0.014 C 
ENDBRANCH  22  25
ENDBRANCH  18  21
ENDBRANCH  12  15
ENDBRANCH   1  11
BRANCH   8  27
HETATM   27  C   UNL     1      -2.776   3.879 -32.380  1.00  0.00     0.409 C 
HETATM   28  F   UNL     1      -2.662   3.485 -31.097  1.00  0.00    -0.169 F 
HETATM   29  F   UNL     1      -3.119   2.785 -33.107  1.00  0.00    -0.169 F 
HETATM   30  F   UNL     1      -1.541   4.237 -32.802  1.00  0.00    -0.169 F 
ENDBRANCH   8  27
BRANCH   6  31
HETATM   31  C   UNL     1      -5.788   2.666 -31.239  1.00  0.00     0.075 A 
HETATM   32  O   UNL     1      -5.865   1.714 -32.216  1.00  0.00    -0.325 OA
HETATM   33  C   UNL     1      -5.660   0.512 -31.617  1.00  0.00     0.142 A 
HETATM   34  C   UNL     1      -5.456   0.673 -30.268  1.00  0.00     0.027 A 
HETATM   35  C   UNL     1      -5.544   2.064 -30.020  1.00  0.00     0.037 A 
ENDBRANCH   6  31
TORSDOF 6
ENDMDL
