MODEL 1
REMARK VINA RESULT:      -7.5      0.000      0.000
REMARK  7 active torsions:
REMARK  status: ('A' for Active; 'I' for Inactive)
REMARK    1  A    between atoms: C_8  and  C_9 
REMARK    2  A    between atoms: C_9  and  C_10 
REMARK    3  A    between atoms: C_10  and  C_11 
REMARK       I    between atoms: C_11  and  N_12 
REMARK    4  A    between atoms: N_12  and  C_13 
REMARK    5  A    between atoms: C_13  and  C_14 
REMARK    6  A    between atoms: C_14  and  N_15 
REMARK    7  A    between atoms: C_14  and  C_19 
ROOT
HETATM    1  C   UNL     1      -7.777   0.596 -33.313  1.00  0.00     0.217 C 
HETATM    2  N   UNL     1      -7.064   1.492 -34.075  1.00  0.00    -0.359 N 
HETATM    3  O   UNL     1      -8.517   0.980 -32.409  1.00  0.00    -0.274 OA
HETATM    4  H   UNL     1      -6.270   1.123 -34.584  1.00  0.00     0.162 HD
ENDROOT
BRANCH   2   5
HETATM    5  C   UNL     1      -7.012   2.919 -33.749  1.00  0.00     0.160 C 
BRANCH   5   6
HETATM    6  C   UNL     1      -5.876   3.391 -32.772  1.00  0.00     0.239 C 
BRANCH   6   7
HETATM    7  N   UNL     1      -6.412   4.204 -31.580  1.00  0.00    -0.069 N 
HETATM    8  H   UNL     1      -5.607   4.786 -31.311  1.00  0.00     0.279 HD
HETATM    9  C   UNL     1      -7.500   5.192 -31.868  1.00  0.00     0.270 C 
HETATM   10  C   UNL     1      -6.691   3.392 -30.346  1.00  0.00     0.270 C 
ENDBRANCH   6   7
BRANCH   6  11
HETATM   11  C   UNL     1      -4.624   4.021 -33.399  1.00  0.00    -0.004 A 
HETATM   12  C   UNL     1      -3.342   3.819 -32.835  1.00  0.00     0.042 A 
HETATM   13 CL   UNL     1      -3.109   2.841 -31.424  1.00  0.00    -0.084 Cl
HETATM   14  C   UNL     1      -2.197   4.402 -33.388  1.00  0.00     0.024 A 
HETATM   15  C   UNL     1      -2.294   5.183 -34.534  1.00  0.00     0.002 A 
HETATM   16  C   UNL     1      -3.533   5.369 -35.132  1.00  0.00     0.001 A 
HETATM   17  C   UNL     1      -4.680   4.792 -34.576  1.00  0.00     0.011 A 
ENDBRANCH   6  11
ENDBRANCH   5   6
ENDBRANCH   2   5
BRANCH   1  18
HETATM   18  C   UNL     1      -7.711  -0.874 -33.696  1.00  0.00     0.107 C 
BRANCH  18  19
HETATM   19  C   UNL     1      -6.795  -1.242 -34.858  1.00  0.00     0.052 C 
BRANCH  19  20
HETATM   20  C   UNL     1      -5.707  -2.178 -34.455  1.00  0.00    -0.008 A 
HETATM   21  C   UNL     1      -4.539  -1.888 -33.774  1.00  0.00     0.032 A 
HETATM   22  C   UNL     1      -3.989  -0.621 -33.236  1.00  0.00     0.070 C 
HETATM   23  N   UNL     1      -3.874  -3.076 -33.647  1.00  0.00    -0.282 N 
HETATM   24  H   UNL     1      -2.979  -3.253 -33.202  1.00  0.00     0.189 HD
HETATM   25  N   UNL     1      -4.523  -4.113 -34.193  1.00  0.00    -0.179 NA
HETATM   26  C   UNL     1      -5.639  -3.580 -34.693  1.00  0.00     0.059 A 
HETATM   27  C   UNL     1      -6.622  -4.443 -35.394  1.00  0.00     0.073 C 
ENDBRANCH  19  20
ENDBRANCH  18  19
ENDBRANCH   1  18
TORSDOF 7
ENDMDL
MODEL 2
REMARK VINA RESULT:      -7.4      3.796      5.936
REMARK  7 active torsions:
REMARK  status: ('A' for Active; 'I' for Inactive)
REMARK    1  A    between atoms: C_8  and  C_9 
REMARK    2  A    between atoms: C_9  and  C_10 
REMARK    3  A    between atoms: C_10  and  C_11 
REMARK       I    between atoms: C_11  and  N_12 
REMARK    4  A    between atoms: N_12  and  C_13 
REMARK    5  A    between atoms: C_13  and  C_14 
REMARK    6  A    between atoms: C_14  and  N_15 
REMARK    7  A    between atoms: C_14  and  C_19 
ROOT
HETATM    1  C   UNL     1      -7.507   1.036 -34.752  1.00  0.00     0.217 C 
HETATM    2  N   UNL     1      -8.838   1.359 -34.627  1.00  0.00    -0.359 N 
HETATM    3  O   UNL     1      -6.629   1.800 -34.352  1.00  0.00    -0.274 OA
HETATM    4  H   UNL     1      -9.483   0.855 -35.222  1.00  0.00     0.162 HD
ENDROOT
BRANCH   2   5
HETATM    5  C   UNL     1      -9.278   2.681 -34.177  1.00  0.00     0.160 C 
BRANCH   5   6
HETATM    6  C   UNL     1     -10.506   2.734 -33.199  1.00  0.00     0.239 C 
BRANCH   6   7
HETATM    7  N   UNL     1     -10.096   2.645 -31.718  1.00  0.00    -0.069 N 
HETATM    8  H   UNL     1     -10.651   1.853 -31.367  1.00  0.00     0.279 HD
HETATM    9  C   UNL     1      -8.678   2.258 -31.430  1.00  0.00     0.270 C 
HETATM   10  C   UNL     1     -10.554   3.801 -30.873  1.00  0.00     0.270 C 
ENDBRANCH   6   7
BRANCH   6  11
HETATM   11  C   UNL     1     -11.710   1.841 -33.531  1.00  0.00    -0.004 A 
HETATM   12  C   UNL     1     -12.883   2.378 -34.113  1.00  0.00     0.042 A 
HETATM   13 CL   UNL     1     -13.021   4.061 -34.499  1.00  0.00    -0.084 Cl
HETATM   14  C   UNL     1     -13.991   1.576 -34.404  1.00  0.00     0.024 A 
HETATM   15  C   UNL     1     -13.953   0.211 -34.146  1.00  0.00     0.002 A 
HETATM   16  C   UNL     1     -12.803  -0.352 -33.609  1.00  0.00     0.001 A 
HETATM   17  C   UNL     1     -11.696   0.449 -33.311  1.00  0.00     0.011 A 
ENDBRANCH   6  11
ENDBRANCH   5   6
ENDBRANCH   2   5
BRANCH   1  18
HETATM   18  C   UNL     1      -7.155  -0.340 -35.293  1.00  0.00     0.107 C 
BRANCH  18  19
HETATM   19  C   UNL     1      -7.239  -1.506 -34.315  1.00  0.00     0.052 C 
BRANCH  19  20
HETATM   20  C   UNL     1      -5.947  -2.237 -34.184  1.00  0.00    -0.008 A 
HETATM   21  C   UNL     1      -4.785  -1.815 -33.564  1.00  0.00     0.032 A 
HETATM   22  C   UNL     1      -4.435  -0.562 -32.854  1.00  0.00     0.070 C 
HETATM   23  N   UNL     1      -3.887  -2.836 -33.714  1.00  0.00    -0.282 N 
HETATM   24  H   UNL     1      -2.928  -2.884 -33.387  1.00  0.00     0.189 HD
HETATM   25  N   UNL     1      -4.380  -3.887 -34.382  1.00  0.00    -0.179 NA
HETATM   26  C   UNL     1      -5.632  -3.534 -34.679  1.00  0.00     0.059 A 
HETATM   27  C   UNL     1      -6.502  -4.465 -35.439  1.00  0.00     0.073 C 
ENDBRANCH  19  20
ENDBRANCH  18  19
ENDBRANCH   1  18
TORSDOF 7
ENDMDL
MODEL 3
REMARK VINA RESULT:      -7.3      3.124      4.458
REMARK  7 active torsions:
REMARK  status: ('A' for Active; 'I' for Inactive)
REMARK    1  A    between atoms: C_8  and  C_9 
REMARK    2  A    between atoms: C_9  and  C_10 
REMARK    3  A    between atoms: C_10  and  C_11 
REMARK       I    between atoms: C_11  and  N_12 
REMARK    4  A    between atoms: N_12  and  C_13 
REMARK    5  A    between atoms: C_13  and  C_14 
REMARK    6  A    between atoms: C_14  and  N_15 
REMARK    7  A    between atoms: C_14  and  C_19 
ROOT
HETATM    1  C   UNL     1      -4.187  -0.470 -31.526  1.00  0.00     0.217 C 
HETATM    2  N   UNL     1      -5.505  -0.433 -31.135  1.00  0.00    -0.359 N 
HETATM    3  O   UNL     1      -3.407   0.427 -31.212  1.00  0.00    -0.274 OA
HETATM    4  H   UNL     1      -6.148  -1.017 -31.655  1.00  0.00     0.162 HD
ENDROOT
BRANCH   2   5
HETATM    5  C   UNL     1      -6.089   0.742 -30.483  1.00  0.00     0.160 C 
BRANCH   5   6
HETATM    6  C   UNL     1      -6.622   1.889 -31.414  1.00  0.00     0.239 C 
BRANCH   6   7
HETATM    7  N   UNL     1      -6.735   3.243 -30.690  1.00  0.00    -0.069 N 
HETATM    8  H   UNL     1      -6.892   3.909 -31.458  1.00  0.00     0.279 HD
HETATM    9  C   UNL     1      -7.918   3.433 -29.791  1.00  0.00     0.270 C 
HETATM   10  C   UNL     1      -5.457   3.723 -30.060  1.00  0.00     0.270 C 
ENDBRANCH   6   7
BRANCH   6  11
HETATM   11  C   UNL     1      -7.852   1.580 -32.279  1.00  0.00    -0.004 A 
HETATM   12  C   UNL     1      -8.083   2.266 -33.495  1.00  0.00     0.042 A 
HETATM   13 CL   UNL     1      -6.990   3.474 -34.083  1.00  0.00    -0.084 Cl
HETATM   14  C   UNL     1      -9.209   2.004 -34.283  1.00  0.00     0.024 A 
HETATM   15  C   UNL     1     -10.124   1.033 -33.893  1.00  0.00     0.002 A 
HETATM   16  C   UNL     1      -9.905   0.317 -32.724  1.00  0.00     0.001 A 
HETATM   17  C   UNL     1      -8.783   0.582 -31.932  1.00  0.00     0.011 A 
ENDBRANCH   6  11
ENDBRANCH   5   6
ENDBRANCH   2   5
BRANCH   1  18
HETATM   18  C   UNL     1      -3.696  -1.710 -32.257  1.00  0.00     0.107 C 
BRANCH  18  19
HETATM   19  C   UNL     1      -3.898  -1.742 -33.768  1.00  0.00     0.052 C 
BRANCH  19  20
HETATM   20  C   UNL     1      -4.898  -2.765 -34.189  1.00  0.00    -0.008 A 
HETATM   21  C   UNL     1      -6.212  -2.568 -34.571  1.00  0.00     0.032 A 
HETATM   22  C   UNL     1      -7.042  -1.346 -34.689  1.00  0.00     0.070 C 
HETATM   23  N   UNL     1      -6.708  -3.810 -34.860  1.00  0.00    -0.282 N 
HETATM   24  H   UNL     1      -7.641  -4.059 -35.174  1.00  0.00     0.189 HD
HETATM   25  N   UNL     1      -5.815  -4.794 -34.696  1.00  0.00    -0.179 NA
HETATM   26  C   UNL     1      -4.709  -4.173 -34.282  1.00  0.00     0.059 A 
HETATM   27  C   UNL     1      -3.485  -4.959 -33.986  1.00  0.00     0.073 C 
ENDBRANCH  19  20
ENDBRANCH  18  19
ENDBRANCH   1  18
TORSDOF 7
ENDMDL
MODEL 4
REMARK VINA RESULT:      -7.3      2.869      7.547
REMARK  7 active torsions:
REMARK  status: ('A' for Active; 'I' for Inactive)
REMARK    1  A    between atoms: C_8  and  C_9 
REMARK    2  A    between atoms: C_9  and  C_10 
REMARK    3  A    between atoms: C_10  and  C_11 
REMARK       I    between atoms: C_11  and  N_12 
REMARK    4  A    between atoms: N_12  and  C_13 
REMARK    5  A    between atoms: C_13  and  C_14 
REMARK    6  A    between atoms: C_14  and  N_15 
REMARK    7  A    between atoms: C_14  and  C_19 
ROOT
HETATM    1  C   UNL     1      -3.773   2.671 -31.555  1.00  0.00     0.217 C 
HETATM    2  N   UNL     1      -4.984   2.287 -32.082  1.00  0.00    -0.359 N 
HETATM    3  O   UNL     1      -2.946   1.835 -31.192  1.00  0.00    -0.274 OA
HETATM    4  H   UNL     1      -5.718   2.984 -32.082  1.00  0.00     0.162 HD
ENDROOT
BRANCH   2   5
HETATM    5  C   UNL     1      -5.423   0.890 -32.082  1.00  0.00     0.160 C 
BRANCH   5   6
HETATM    6  C   UNL     1      -6.252   0.398 -33.322  1.00  0.00     0.239 C 
BRANCH   6   7
HETATM    7  N   UNL     1      -7.754   0.713 -33.201  1.00  0.00    -0.069 N 
HETATM    8  H   UNL     1      -8.203  -0.112 -33.621  1.00  0.00     0.279 HD
HETATM    9  C   UNL     1      -8.324   0.776 -31.817  1.00  0.00     0.270 C 
HETATM   10  C   UNL     1      -8.225   1.851 -34.063  1.00  0.00     0.270 C 
ENDBRANCH   6   7
BRANCH   6  11
HETATM   11  C   UNL     1      -5.989  -1.029 -33.825  1.00  0.00    -0.004 A 
HETATM   12  C   UNL     1      -4.677  -1.555 -33.884  1.00  0.00     0.042 A 
HETATM   13 CL   UNL     1      -3.301  -0.632 -33.379  1.00  0.00    -0.084 Cl
HETATM   14  C   UNL     1      -4.425  -2.847 -34.354  1.00  0.00     0.024 A 
HETATM   15  C   UNL     1      -5.476  -3.662 -34.757  1.00  0.00     0.002 A 
HETATM   16  C   UNL     1      -6.779  -3.188 -34.677  1.00  0.00     0.001 A 
HETATM   17  C   UNL     1      -7.032  -1.893 -34.212  1.00  0.00     0.011 A 
ENDBRANCH   6  11
ENDBRANCH   5   6
ENDBRANCH   2   5
BRANCH   1  18
HETATM   18  C   UNL     1      -3.440   4.154 -31.542  1.00  0.00     0.107 C 
BRANCH  18  19
HETATM   19  C   UNL     1      -1.975   4.532 -31.731  1.00  0.00     0.052 C 
BRANCH  19  20
HETATM   20  C   UNL     1      -1.808   5.865 -32.376  1.00  0.00    -0.008 A 
HETATM   21  C   UNL     1      -1.737   7.106 -31.769  1.00  0.00     0.032 A 
HETATM   22  C   UNL     1      -1.799   7.524 -30.348  1.00  0.00     0.070 C 
HETATM   23  N   UNL     1      -1.584   8.011 -32.783  1.00  0.00    -0.282 N 
HETATM   24  H   UNL     1      -1.496   9.021 -32.718  1.00  0.00     0.189 HD
HETATM   25  N   UNL     1      -1.550   7.452 -33.999  1.00  0.00    -0.179 NA
HETATM   26  C   UNL     1      -1.690   6.145 -33.767  1.00  0.00     0.059 A 
HETATM   27  C   UNL     1      -1.706   5.190 -34.902  1.00  0.00     0.073 C 
ENDBRANCH  19  20
ENDBRANCH  18  19
ENDBRANCH   1  18
TORSDOF 7
ENDMDL
MODEL 5
REMARK VINA RESULT:      -7.3      4.515      6.767
REMARK  7 active torsions:
REMARK  status: ('A' for Active; 'I' for Inactive)
REMARK    1  A    between atoms: C_8  and  C_9 
REMARK    2  A    between atoms: C_9  and  C_10 
REMARK    3  A    between atoms: C_10  and  C_11 
REMARK       I    between atoms: C_11  and  N_12 
REMARK    4  A    between atoms: N_12  and  C_13 
REMARK    5  A    between atoms: C_13  and  C_14 
REMARK    6  A    between atoms: C_14  and  N_15 
REMARK    7  A    between atoms: C_14  and  C_19 
ROOT
HETATM    1  C   UNL     1      -8.307   0.495 -33.832  1.00  0.00     0.217 C 
HETATM    2  N   UNL     1      -9.340   0.763 -32.963  1.00  0.00    -0.359 N 
HETATM    3  O   UNL     1      -7.867   1.366 -34.581  1.00  0.00    -0.274 OA
HETATM    4  H   UNL     1      -9.845  -0.037 -32.602  1.00  0.00     0.162 HD
ENDROOT
BRANCH   2   5
HETATM    5  C   UNL     1     -10.078   2.027 -33.001  1.00  0.00     0.160 C 
BRANCH   5   6
HETATM    6  C   UNL     1     -11.359   2.083 -33.908  1.00  0.00     0.239 C 
BRANCH   6   7
HETATM    7  N   UNL     1     -11.155   2.927 -35.180  1.00  0.00    -0.069 N 
HETATM    8  H   UNL     1     -10.549   2.333 -35.762  1.00  0.00     0.279 HD
HETATM    9  C   UNL     1     -12.362   3.168 -36.034  1.00  0.00     0.270 C 
HETATM   10  C   UNL     1     -10.341   4.174 -34.977  1.00  0.00     0.270 C 
ENDBRANCH   6   7
BRANCH   6  11
HETATM   11  C   UNL     1     -12.700   2.375 -33.218  1.00  0.00    -0.004 A 
HETATM   12  C   UNL     1     -13.777   1.462 -33.296  1.00  0.00     0.042 A 
HETATM   13 CL   UNL     1     -13.644  -0.036 -34.155  1.00  0.00    -0.084 Cl
HETATM   14  C   UNL     1     -15.008   1.725 -32.685  1.00  0.00     0.024 A 
HETATM   15  C   UNL     1     -15.191   2.895 -31.958  1.00  0.00     0.002 A 
HETATM   16  C   UNL     1     -14.140   3.794 -31.831  1.00  0.00     0.001 A 
HETATM   17  C   UNL     1     -12.911   3.535 -32.447  1.00  0.00     0.011 A 
ENDBRANCH   6  11
ENDBRANCH   5   6
ENDBRANCH   2   5
BRANCH   1  18
HETATM   18  C   UNL     1      -7.651  -0.874 -33.757  1.00  0.00     0.107 C 
BRANCH  18  19
HETATM   19  C   UNL     1      -6.733  -1.262 -34.911  1.00  0.00     0.052 C 
BRANCH  19  20
HETATM   20  C   UNL     1      -5.705  -2.263 -34.512  1.00  0.00    -0.008 A 
HETATM   21  C   UNL     1      -5.695  -3.624 -34.761  1.00  0.00     0.032 A 
HETATM   22  C   UNL     1      -6.646  -4.513 -35.469  1.00  0.00     0.070 C 
HETATM   23  N   UNL     1      -4.545  -4.101 -34.194  1.00  0.00    -0.282 N 
HETATM   24  H   UNL     1      -4.200  -5.056 -34.175  1.00  0.00     0.189 HD
HETATM   25  N   UNL     1      -3.810  -3.153 -33.598  1.00  0.00    -0.179 NA
HETATM   26  C   UNL     1      -4.507  -2.029 -33.780  1.00  0.00     0.059 A 
HETATM   27  C   UNL     1      -3.995  -0.746 -33.238  1.00  0.00     0.073 C 
ENDBRANCH  19  20
ENDBRANCH  18  19
ENDBRANCH   1  18
TORSDOF 7
ENDMDL
MODEL 6
REMARK VINA RESULT:      -7.2      3.283      7.694
REMARK  7 active torsions:
REMARK  status: ('A' for Active; 'I' for Inactive)
REMARK    1  A    between atoms: C_8  and  C_9 
REMARK    2  A    between atoms: C_9  and  C_10 
REMARK    3  A    between atoms: C_10  and  C_11 
REMARK       I    between atoms: C_11  and  N_12 
REMARK    4  A    between atoms: N_12  and  C_13 
REMARK    5  A    between atoms: C_13  and  C_14 
REMARK    6  A    between atoms: C_14  and  N_15 
REMARK    7  A    between atoms: C_14  and  C_19 
ROOT
HETATM    1  C   UNL     1      -3.579   3.690 -31.418  1.00  0.00     0.217 C 
HETATM    2  N   UNL     1      -4.566   3.044 -32.127  1.00  0.00    -0.359 N 
HETATM    3  O   UNL     1      -2.473   3.177 -31.259  1.00  0.00    -0.274 OA
HETATM    4  H   UNL     1      -5.514   3.363 -31.975  1.00  0.00     0.162 HD
ENDROOT
BRANCH   2   5
HETATM    5  C   UNL     1      -4.418   1.658 -32.575  1.00  0.00     0.160 C 
BRANCH   5   6
HETATM    6  C   UNL     1      -5.727   0.796 -32.687  1.00  0.00     0.239 C 
BRANCH   6   7
HETATM    7  N   UNL     1      -6.486   0.687 -31.352  1.00  0.00    -0.069 N 
HETATM    8  H   UNL     1      -6.956  -0.226 -31.423  1.00  0.00     0.279 HD
HETATM    9  C   UNL     1      -5.658   0.578 -30.109  1.00  0.00     0.270 C 
HETATM   10  C   UNL     1      -7.621   1.660 -31.198  1.00  0.00     0.270 C 
ENDBRANCH   6   7
BRANCH   6  11
HETATM   11  C   UNL     1      -5.624  -0.550 -33.418  1.00  0.00    -0.004 A 
HETATM   12  C   UNL     1      -6.631  -0.974 -34.317  1.00  0.00     0.042 A 
HETATM   13 CL   UNL     1      -8.020   0.003 -34.659  1.00  0.00    -0.084 Cl
HETATM   14  C   UNL     1      -6.555  -2.205 -34.976  1.00  0.00     0.024 A 
HETATM   15  C   UNL     1      -5.462  -3.039 -34.775  1.00  0.00     0.002 A 
HETATM   16  C   UNL     1      -4.440  -2.635 -33.926  1.00  0.00     0.001 A 
HETATM   17  C   UNL     1      -4.517  -1.407 -33.262  1.00  0.00     0.011 A 
ENDBRANCH   6  11
ENDBRANCH   5   6
ENDBRANCH   2   5
BRANCH   1  18
HETATM   18  C   UNL     1      -3.858   5.106 -30.939  1.00  0.00     0.107 C 
BRANCH  18  19
HETATM   19  C   UNL     1      -4.398   6.089 -31.972  1.00  0.00     0.052 C 
BRANCH  19  20
HETATM   20  C   UNL     1      -3.327   6.639 -32.850  1.00  0.00    -0.008 A 
HETATM   21  C   UNL     1      -2.985   6.245 -34.131  1.00  0.00     0.032 A 
HETATM   22  C   UNL     1      -3.530   5.198 -35.029  1.00  0.00     0.070 C 
HETATM   23  N   UNL     1      -1.945   7.050 -34.507  1.00  0.00    -0.282 N 
HETATM   24  H   UNL     1      -1.434   7.051 -35.384  1.00  0.00     0.189 HD
HETATM   25  N   UNL     1      -1.588   7.936 -33.568  1.00  0.00    -0.179 NA
HETATM   26  C   UNL     1      -2.418   7.694 -32.551  1.00  0.00     0.059 A 
HETATM   27  C   UNL     1      -2.315   8.493 -31.305  1.00  0.00     0.073 C 
ENDBRANCH  19  20
ENDBRANCH  18  19
ENDBRANCH   1  18
TORSDOF 7
ENDMDL
MODEL 7
REMARK VINA RESULT:      -7.1      1.881      2.485
REMARK  7 active torsions:
REMARK  status: ('A' for Active; 'I' for Inactive)
REMARK    1  A    between atoms: C_8  and  C_9 
REMARK    2  A    between atoms: C_9  and  C_10 
REMARK    3  A    between atoms: C_10  and  C_11 
REMARK       I    between atoms: C_11  and  N_12 
REMARK    4  A    between atoms: N_12  and  C_13 
REMARK    5  A    between atoms: C_13  and  C_14 
REMARK    6  A    between atoms: C_14  and  N_15 
REMARK    7  A    between atoms: C_14  and  C_19 
ROOT
HETATM    1  C   UNL     1      -4.754  -0.029 -31.796  1.00  0.00     0.217 C 
HETATM    2  N   UNL     1      -4.443   1.064 -32.572  1.00  0.00    -0.359 N 
HETATM    3  O   UNL     1      -5.578   0.053 -30.887  1.00  0.00    -0.274 OA
HETATM    4  H   UNL     1      -3.572   1.020 -33.087  1.00  0.00     0.162 HD
ENDROOT
BRANCH   2   5
HETATM    5  C   UNL     1      -4.935   2.406 -32.254  1.00  0.00     0.160 C 
BRANCH   5   6
HETATM    6  C   UNL     1      -3.896   3.433 -31.676  1.00  0.00     0.239 C 
BRANCH   6   7
HETATM    7  N   UNL     1      -4.457   4.255 -30.501  1.00  0.00    -0.069 N 
HETATM    8  H   UNL     1      -3.710   4.198 -29.796  1.00  0.00     0.279 HD
HETATM    9  C   UNL     1      -4.638   5.724 -30.728  1.00  0.00     0.270 C 
HETATM   10  C   UNL     1      -5.642   3.634 -29.816  1.00  0.00     0.270 C 
ENDBRANCH   6   7
BRANCH   6  11
HETATM   11  C   UNL     1      -3.124   4.298 -32.683  1.00  0.00    -0.004 A 
HETATM   12  C   UNL     1      -1.842   4.811 -32.377  1.00  0.00     0.042 A 
HETATM   13 CL   UNL     1      -1.064   4.480 -30.865  1.00  0.00    -0.084 Cl
HETATM   14  C   UNL     1      -1.137   5.613 -33.281  1.00  0.00     0.024 A 
HETATM   15  C   UNL     1      -1.681   5.907 -34.525  1.00  0.00     0.002 A 
HETATM   16  C   UNL     1      -2.922   5.388 -34.869  1.00  0.00     0.001 A 
HETATM   17  C   UNL     1      -3.630   4.591 -33.965  1.00  0.00     0.011 A 
ENDBRANCH   6  11
ENDBRANCH   5   6
ENDBRANCH   2   5
BRANCH   1  18
HETATM   18  C   UNL     1      -4.137  -1.367 -32.171  1.00  0.00     0.107 C 
BRANCH  18  19
HETATM   19  C   UNL     1      -3.972  -1.656 -33.659  1.00  0.00     0.052 C 
BRANCH  19  20
HETATM   20  C   UNL     1      -4.909  -2.708 -34.145  1.00  0.00    -0.008 A 
HETATM   21  C   UNL     1      -6.206  -2.553 -34.601  1.00  0.00     0.032 A 
HETATM   22  C   UNL     1      -7.069  -1.358 -34.760  1.00  0.00     0.070 C 
HETATM   23  N   UNL     1      -6.641  -3.808 -34.928  1.00  0.00    -0.282 N 
HETATM   24  H   UNL     1      -7.545  -4.085 -35.298  1.00  0.00     0.189 HD
HETATM   25  N   UNL     1      -5.725  -4.763 -34.719  1.00  0.00    -0.179 NA
HETATM   26  C   UNL     1      -4.667  -4.108 -34.237  1.00  0.00     0.059 A 
HETATM   27  C   UNL     1      -3.437  -4.854 -33.875  1.00  0.00     0.073 C 
ENDBRANCH  19  20
ENDBRANCH  18  19
ENDBRANCH   1  18
TORSDOF 7
ENDMDL
MODEL 8
REMARK VINA RESULT:      -7.1      2.246      3.190
REMARK  7 active torsions:
REMARK  status: ('A' for Active; 'I' for Inactive)
REMARK    1  A    between atoms: C_8  and  C_9 
REMARK    2  A    between atoms: C_9  and  C_10 
REMARK    3  A    between atoms: C_10  and  C_11 
REMARK       I    between atoms: C_11  and  N_12 
REMARK    4  A    between atoms: N_12  and  C_13 
REMARK    5  A    between atoms: C_13  and  C_14 
REMARK    6  A    between atoms: C_14  and  N_15 
REMARK    7  A    between atoms: C_14  and  C_19 
ROOT
HETATM    1  C   UNL     1      -3.522   0.203 -31.718  1.00  0.00     0.217 C 
HETATM    2  N   UNL     1      -4.016   1.461 -31.972  1.00  0.00    -0.359 N 
HETATM    3  O   UNL     1      -2.529   0.043 -31.009  1.00  0.00    -0.274 OA
HETATM    4  H   UNL     1      -4.627   1.553 -32.775  1.00  0.00     0.162 HD
ENDROOT
BRANCH   2   5
HETATM    5  C   UNL     1      -3.301   2.673 -31.566  1.00  0.00     0.160 C 
BRANCH   5   6
HETATM    6  C   UNL     1      -3.922   4.051 -31.996  1.00  0.00     0.239 C 
BRANCH   6   7
HETATM    7  N   UNL     1      -5.298   3.901 -32.672  1.00  0.00    -0.069 N 
HETATM    8  H   UNL     1      -5.402   2.883 -32.772  1.00  0.00     0.279 HD
HETATM    9  C   UNL     1      -6.494   4.316 -31.871  1.00  0.00     0.270 C 
HETATM   10  C   UNL     1      -5.356   4.406 -34.087  1.00  0.00     0.270 C 
ENDBRANCH   6   7
BRANCH   6  11
HETATM   11  C   UNL     1      -3.007   5.036 -32.737  1.00  0.00    -0.004 A 
HETATM   12  C   UNL     1      -3.010   6.415 -32.424  1.00  0.00     0.042 A 
HETATM   13 CL   UNL     1      -4.027   7.067 -31.182  1.00  0.00    -0.084 Cl
HETATM   14  C   UNL     1      -2.192   7.324 -33.104  1.00  0.00     0.024 A 
HETATM   15  C   UNL     1      -1.330   6.880 -34.099  1.00  0.00     0.002 A 
HETATM   16  C   UNL     1      -1.277   5.526 -34.404  1.00  0.00     0.001 A 
HETATM   17  C   UNL     1      -2.099   4.617 -33.729  1.00  0.00     0.011 A 
ENDBRANCH   6  11
ENDBRANCH   5   6
ENDBRANCH   2   5
BRANCH   1  18
HETATM   18  C   UNL     1      -4.306  -0.990 -32.241  1.00  0.00     0.107 C 
BRANCH  18  19
HETATM   19  C   UNL     1      -3.983  -1.458 -33.655  1.00  0.00     0.052 C 
BRANCH  19  20
HETATM   20  C   UNL     1      -4.889  -2.547 -34.118  1.00  0.00    -0.008 A 
HETATM   21  C   UNL     1      -4.632  -3.904 -34.181  1.00  0.00     0.032 A 
HETATM   22  C   UNL     1      -3.437  -4.708 -33.831  1.00  0.00     0.070 C 
HETATM   23  N   UNL     1      -5.772  -4.480 -34.672  1.00  0.00    -0.282 N 
HETATM   24  H   UNL     1      -5.954  -5.462 -34.854  1.00  0.00     0.189 HD
HETATM   25  N   UNL     1      -6.747  -3.599 -34.931  1.00  0.00    -0.179 NA
HETATM   26  C   UNL     1      -6.221  -2.417 -34.603  1.00  0.00     0.059 A 
HETATM   27  C   UNL     1      -7.025  -1.180 -34.766  1.00  0.00     0.073 C 
ENDBRANCH  19  20
ENDBRANCH  18  19
ENDBRANCH   1  18
TORSDOF 7
ENDMDL
MODEL 9
REMARK VINA RESULT:      -7.0      4.546      6.591
REMARK  7 active torsions:
REMARK  status: ('A' for Active; 'I' for Inactive)
REMARK    1  A    between atoms: C_8  and  C_9 
REMARK    2  A    between atoms: C_9  and  C_10 
REMARK    3  A    between atoms: C_10  and  C_11 
REMARK       I    between atoms: C_11  and  N_12 
REMARK    4  A    between atoms: N_12  and  C_13 
REMARK    5  A    between atoms: C_13  and  C_14 
REMARK    6  A    between atoms: C_14  and  N_15 
REMARK    7  A    between atoms: C_14  and  C_19 
ROOT
HETATM    1  C   UNL     1      -8.115   0.628 -33.147  1.00  0.00     0.217 C 
HETATM    2  N   UNL     1      -9.480   0.727 -33.006  1.00  0.00    -0.359 N 
HETATM    3  O   UNL     1      -7.406   1.633 -33.171  1.00  0.00    -0.274 OA
HETATM    4  H   UNL     1     -10.023  -0.081 -33.286  1.00  0.00     0.162 HD
ENDROOT
BRANCH   2   5
HETATM    5  C   UNL     1     -10.174   2.016 -33.052  1.00  0.00     0.160 C 
BRANCH   5   6
HETATM    6  C   UNL     1     -11.437   2.118 -33.980  1.00  0.00     0.239 C 
BRANCH   6   7
HETATM    7  N   UNL     1     -11.201   3.007 -35.215  1.00  0.00    -0.069 N 
HETATM    8  H   UNL     1     -10.576   2.437 -35.800  1.00  0.00     0.279 HD
HETATM    9  C   UNL     1     -12.385   3.273 -36.094  1.00  0.00     0.270 C 
HETATM   10  C   UNL     1     -10.400   4.250 -34.945  1.00  0.00     0.270 C 
ENDBRANCH   6   7
BRANCH   6  11
HETATM   11  C   UNL     1     -12.788   2.396 -33.304  1.00  0.00    -0.004 A 
HETATM   12  C   UNL     1     -13.820   1.429 -33.308  1.00  0.00     0.042 A 
HETATM   13 CL   UNL     1     -13.618  -0.121 -34.054  1.00  0.00    -0.084 Cl
HETATM   14  C   UNL     1     -15.060   1.677 -32.710  1.00  0.00     0.024 A 
HETATM   15  C   UNL     1     -15.297   2.888 -32.070  1.00  0.00     0.002 A 
HETATM   16  C   UNL     1     -14.290   3.843 -32.017  1.00  0.00     0.001 A 
HETATM   17  C   UNL     1     -13.052   3.598 -32.620  1.00  0.00     0.011 A 
ENDBRANCH   6  11
ENDBRANCH   5   6
ENDBRANCH   2   5
BRANCH   1  18
HETATM   18  C   UNL     1      -7.498  -0.762 -33.154  1.00  0.00     0.107 C 
BRANCH  18  19
HETATM   19  C   UNL     1      -6.947  -1.263 -34.484  1.00  0.00     0.052 C 
BRANCH  19  20
HETATM   20  C   UNL     1      -5.813  -2.214 -34.311  1.00  0.00    -0.008 A 
HETATM   21  C   UNL     1      -4.571  -1.970 -33.752  1.00  0.00     0.032 A 
HETATM   22  C   UNL     1      -3.967  -0.752 -33.163  1.00  0.00     0.070 C 
HETATM   23  N   UNL     1      -3.888  -3.153 -33.825  1.00  0.00    -0.282 N 
HETATM   24  H   UNL     1      -2.944  -3.356 -33.512  1.00  0.00     0.189 HD
HETATM   25  N   UNL     1      -4.592  -4.143 -34.388  1.00  0.00    -0.179 NA
HETATM   26  C   UNL     1      -5.765  -3.584 -34.694  1.00  0.00     0.059 A 
HETATM   27  C   UNL     1      -6.821  -4.393 -35.352  1.00  0.00     0.073 C 
ENDBRANCH  19  20
ENDBRANCH  18  19
ENDBRANCH   1  18
TORSDOF 7
ENDMDL
MODEL 10
REMARK VINA RESULT:      -6.9      3.208      6.636
REMARK  7 active torsions:
REMARK  status: ('A' for Active; 'I' for Inactive)
REMARK    1  A    between atoms: C_8  and  C_9 
REMARK    2  A    between atoms: C_9  and  C_10 
REMARK    3  A    between atoms: C_10  and  C_11 
REMARK       I    between atoms: C_11  and  N_12 
REMARK    4  A    between atoms: N_12  and  C_13 
REMARK    5  A    between atoms: C_13  and  C_14 
REMARK    6  A    between atoms: C_14  and  N_15 
REMARK    7  A    between atoms: C_14  and  C_19 
ROOT
HETATM    1  C   UNL     1      -4.985   5.217 -34.176  1.00  0.00     0.217 C 
HETATM    2  N   UNL     1      -5.704   4.045 -34.231  1.00  0.00    -0.359 N 
HETATM    3  O   UNL     1      -5.297   6.115 -33.395  1.00  0.00    -0.274 OA
HETATM    4  H   UNL     1      -5.594   3.487 -35.069  1.00  0.00     0.162 HD
ENDROOT
BRANCH   2   5
HETATM    5  C   UNL     1      -6.962   3.871 -33.502  1.00  0.00     0.160 C 
BRANCH   5   6
HETATM    6  C   UNL     1      -7.902   2.699 -33.963  1.00  0.00     0.239 C 
BRANCH   6   7
HETATM    7  N   UNL     1      -9.310   2.784 -33.347  1.00  0.00    -0.069 N 
HETATM    8  H   UNL     1      -9.333   1.982 -32.702  1.00  0.00     0.279 HD
HETATM    9  C   UNL     1      -9.597   3.967 -32.473  1.00  0.00     0.270 C 
HETATM   10  C   UNL     1     -10.430   2.500 -34.308  1.00  0.00     0.270 C 
ENDBRANCH   6   7
BRANCH   6  11
HETATM   11  C   UNL     1      -7.326   1.276 -33.922  1.00  0.00    -0.004 A 
HETATM   12  C   UNL     1      -6.908   0.691 -32.704  1.00  0.00     0.042 A 
HETATM   13 CL   UNL     1      -7.035   1.532 -31.195  1.00  0.00    -0.084 Cl
HETATM   14  C   UNL     1      -6.367  -0.599 -32.657  1.00  0.00     0.024 A 
HETATM   15  C   UNL     1      -6.251  -1.350 -33.820  1.00  0.00     0.002 A 
HETATM   16  C   UNL     1      -6.687  -0.817 -35.026  1.00  0.00     0.001 A 
HETATM   17  C   UNL     1      -7.223   0.474 -35.076  1.00  0.00     0.011 A 
ENDBRANCH   6  11
ENDBRANCH   5   6
ENDBRANCH   2   5
BRANCH   1  18
HETATM   18  C   UNL     1      -3.728   5.322 -35.024  1.00  0.00     0.107 C 
BRANCH  18  19
HETATM   19  C   UNL     1      -2.504   4.555 -34.537  1.00  0.00     0.052 C 
BRANCH  19  20
HETATM   20  C   UNL     1      -2.219   4.790 -33.093  1.00  0.00    -0.008 A 
HETATM   21  C   UNL     1      -2.550   3.990 -32.015  1.00  0.00     0.032 A 
HETATM   22  C   UNL     1      -3.263   2.694 -31.920  1.00  0.00     0.070 C 
HETATM   23  N   UNL     1      -2.074   4.635 -30.907  1.00  0.00    -0.282 N 
HETATM   24  H   UNL     1      -2.131   4.347 -29.936  1.00  0.00     0.189 HD
HETATM   25  N   UNL     1      -1.458   5.792 -31.186  1.00  0.00    -0.179 NA
HETATM   26  C   UNL     1      -1.544   5.901 -32.514  1.00  0.00     0.059 A 
HETATM   27  C   UNL     1      -0.966   7.085 -33.197  1.00  0.00     0.073 C 
ENDBRANCH  19  20
ENDBRANCH  18  19
ENDBRANCH   1  18
TORSDOF 7
ENDMDL
