MODEL 1
REMARK VINA RESULT:      -9.8      0.000      0.000
REMARK  6 active torsions:
REMARK  status: ('A' for Active; 'I' for Inactive)
REMARK    1  A    between atoms: C_5  and  C_6 
REMARK    2  A    between atoms: C_11  and  C_12 
REMARK       I    between atoms: C_12  and  N_13 
REMARK    3  A    between atoms: N_13  and  C_14 
REMARK    4  A    between atoms: C_16  and  C_17 
REMARK    5  A    between atoms: C_17  and  O_18 
REMARK    6  A    between atoms: C_25  and  C_26 
ROOT
HETATM    1  C   UNL     1      -7.319   0.500 -33.836  1.00  0.00     0.118 C 
HETATM    2  N   UNL     1      -6.600   1.706 -34.236  1.00  0.00    -0.366 N 
HETATM    3  C   UNL     1      -6.045   2.535 -33.328  1.00  0.00     0.123 A 
HETATM    4  N   UNL     1      -6.298   2.419 -31.990  1.00  0.00    -0.240 N 
HETATM    5  N   UNL     1      -5.712   3.373 -31.240  1.00  0.00    -0.165 NA
HETATM    6  C   UNL     1      -4.963   4.059 -32.135  1.00  0.00     0.148 A 
HETATM    7  C   UNL     1      -5.170   3.580 -33.455  1.00  0.00     0.089 A 
HETATM    8  C   UNL     1      -7.129   1.386 -31.403  1.00  0.00     0.221 C 
HETATM    9  C   UNL     1      -8.007   0.710 -32.475  1.00  0.00     0.066 C 
HETATM   10  H   UNL     1      -6.271   1.705 -35.201  1.00  0.00     0.161 HD
ENDROOT
BRANCH   6  11
HETATM   11  C   UNL     1      -4.052   5.148 -31.736  1.00  0.00     0.276 C 
HETATM   12  N   UNL     1      -2.757   4.705 -31.557  1.00  0.00    -0.322 N 
HETATM   13  H   UNL     1      -2.651   3.698 -31.659  1.00  0.00     0.169 HD
HETATM   14  O   UNL     1      -4.461   6.295 -31.589  1.00  0.00    -0.266 OA
BRANCH  12  15
HETATM   15  C   UNL     1      -1.613   5.466 -31.264  1.00  0.00     0.035 A 
HETATM   16  C   UNL     1      -1.025   5.519 -29.996  1.00  0.00     0.039 A 
HETATM   17  C   UNL     1       0.104   6.322 -29.746  1.00  0.00    -0.028 A 
HETATM   18  C   UNL     1       0.652   7.055 -30.805  1.00  0.00     0.010 A 
HETATM   19  C   UNL     1       0.073   7.009 -32.073  1.00  0.00     0.003 A 
HETATM   20  C   UNL     1      -1.059   6.226 -32.298  1.00  0.00     0.029 A 
BRANCH  17  21
HETATM   21  C   UNL     1       0.689   6.358 -28.350  1.00  0.00     0.147 C 
HETATM   22  C   UNL     1       1.005   7.781 -27.907  1.00  0.00     0.044 C 
BRANCH  21  23
HETATM   23  O   UNL     1      -0.210   5.771 -27.410  1.00  0.00    -0.391 OA
HETATM   24  H   UNL     1      -0.450   6.469 -26.778  1.00  0.00     0.210 HD
ENDBRANCH  21  23
ENDBRANCH  17  21
ENDBRANCH  12  15
ENDBRANCH   6  11
BRANCH   8  25
HETATM   25  C   UNL     1      -6.279   0.416 -30.610  1.00  0.00     0.409 C 
HETATM   26  F   UNL     1      -6.690  -0.862 -30.689  1.00  0.00    -0.169 F 
HETATM   27  F   UNL     1      -4.983   0.448 -31.001  1.00  0.00    -0.169 F 
HETATM   28  F   UNL     1      -6.282   0.759 -29.296  1.00  0.00    -0.169 F 
ENDBRANCH   8  25
BRANCH   1  29
HETATM   29  C   UNL     1      -6.476  -0.757 -33.952  1.00  0.00    -0.035 A 
HETATM   30  C   UNL     1      -5.086  -0.769 -33.751  1.00  0.00     0.010 A 
HETATM   31  C   UNL     1      -4.345  -1.945 -33.893  1.00  0.00     0.007 A 
HETATM   32  C   UNL     1      -4.973  -3.140 -34.257  1.00  0.00    -0.062 A 
HETATM   33  C   UNL     1      -4.186  -4.407 -34.407  1.00  0.00     0.048 C 
HETATM   34  C   UNL     1      -6.355  -3.141 -34.461  1.00  0.00     0.007 A 
HETATM   35  C   UNL     1      -7.096  -1.964 -34.311  1.00  0.00     0.010 A 
ENDBRANCH   1  29
TORSDOF 6
ENDMDL
MODEL 2
REMARK VINA RESULT:      -9.6      3.559      9.394
REMARK  6 active torsions:
REMARK  status: ('A' for Active; 'I' for Inactive)
REMARK    1  A    between atoms: C_5  and  C_6 
REMARK    2  A    between atoms: C_11  and  C_12 
REMARK       I    between atoms: C_12  and  N_13 
REMARK    3  A    between atoms: N_13  and  C_14 
REMARK    4  A    between atoms: C_16  and  C_17 
REMARK    5  A    between atoms: C_17  and  O_18 
REMARK    6  A    between atoms: C_25  and  C_26 
ROOT
HETATM    1  C   UNL     1      -3.422   6.879 -30.689  1.00  0.00     0.118 C 
HETATM    2  N   UNL     1      -4.009   5.590 -30.336  1.00  0.00    -0.366 N 
HETATM    3  C   UNL     1      -3.846   4.499 -31.113  1.00  0.00     0.123 A 
HETATM    4  N   UNL     1      -3.310   4.576 -32.367  1.00  0.00    -0.240 N 
HETATM    5  N   UNL     1      -3.285   3.398 -33.022  1.00  0.00    -0.165 NA
HETATM    6  C   UNL     1      -3.724   2.515 -32.095  1.00  0.00     0.148 A 
HETATM    7  C   UNL     1      -4.111   3.173 -30.898  1.00  0.00     0.089 A 
HETATM    8  C   UNL     1      -2.819   5.799 -32.972  1.00  0.00     0.221 C 
HETATM    9  C   UNL     1      -3.348   7.036 -32.219  1.00  0.00     0.066 C 
HETATM   10  H   UNL     1      -4.254   5.489 -29.352  1.00  0.00     0.161 HD
ENDROOT
BRANCH   6  11
HETATM   11  C   UNL     1      -3.761   1.062 -32.341  1.00  0.00     0.276 C 
HETATM   12  N   UNL     1      -4.844   0.691 -33.113  1.00  0.00    -0.322 N 
HETATM   13  H   UNL     1      -5.475   1.460 -33.329  1.00  0.00     0.169 HD
HETATM   14  O   UNL     1      -2.902   0.318 -31.879  1.00  0.00    -0.266 OA
BRANCH  12  15
HETATM   15  C   UNL     1      -5.154  -0.583 -33.617  1.00  0.00     0.035 A 
HETATM   16  C   UNL     1      -4.318  -1.694 -33.473  1.00  0.00     0.039 A 
HETATM   17  C   UNL     1      -4.660  -2.945 -34.021  1.00  0.00    -0.028 A 
HETATM   18  C   UNL     1      -5.879  -3.066 -34.700  1.00  0.00     0.010 A 
HETATM   19  C   UNL     1      -6.720  -1.964 -34.850  1.00  0.00     0.003 A 
HETATM   20  C   UNL     1      -6.354  -0.727 -34.318  1.00  0.00     0.029 A 
BRANCH  17  21
HETATM   21  C   UNL     1      -3.709  -4.110 -33.854  1.00  0.00     0.147 C 
HETATM   22  C   UNL     1      -3.125  -4.166 -32.447  1.00  0.00     0.044 C 
BRANCH  21  23
HETATM   23  O   UNL     1      -4.368  -5.345 -34.129  1.00  0.00    -0.391 OA
HETATM   24  H   UNL     1      -4.673  -5.697 -33.276  1.00  0.00     0.210 HD
ENDBRANCH  21  23
ENDBRANCH  17  21
ENDBRANCH  12  15
ENDBRANCH   6  11
BRANCH   8  25
HETATM   25  C   UNL     1      -1.311   5.758 -33.094  1.00  0.00     0.409 C 
HETATM   26  F   UNL     1      -0.718   4.889 -32.257  1.00  0.00    -0.169 F 
HETATM   27  F   UNL     1      -0.918   5.441 -34.350  1.00  0.00    -0.169 F 
HETATM   28  F   UNL     1      -0.789   6.985 -32.837  1.00  0.00    -0.169 F 
ENDBRANCH   8  25
BRANCH   1  29
HETATM   29  C   UNL     1      -2.131   7.164 -29.942  1.00  0.00    -0.035 A 
HETATM   30  C   UNL     1      -1.175   6.176 -29.658  1.00  0.00     0.010 A 
HETATM   31  C   UNL     1      -0.012   6.478 -28.945  1.00  0.00     0.007 A 
HETATM   32  C   UNL     1       0.220   7.776 -28.483  1.00  0.00    -0.062 A 
HETATM   33  C   UNL     1       1.468   8.111 -27.722  1.00  0.00     0.048 C 
HETATM   34  C   UNL     1      -0.723   8.769 -28.759  1.00  0.00     0.007 A 
HETATM   35  C   UNL     1      -1.884   8.466 -29.479  1.00  0.00     0.010 A 
ENDBRANCH   1  29
TORSDOF 6
ENDMDL
MODEL 3
REMARK VINA RESULT:      -9.5      2.967      4.580
REMARK  6 active torsions:
REMARK  status: ('A' for Active; 'I' for Inactive)
REMARK    1  A    between atoms: C_5  and  C_6 
REMARK    2  A    between atoms: C_11  and  C_12 
REMARK       I    between atoms: C_12  and  N_13 
REMARK    3  A    between atoms: N_13  and  C_14 
REMARK    4  A    between atoms: C_16  and  C_17 
REMARK    5  A    between atoms: C_17  and  O_18 
REMARK    6  A    between atoms: C_25  and  C_26 
ROOT
HETATM    1  C   UNL     1      -9.407   0.752 -32.152  1.00  0.00     0.118 C 
HETATM    2  N   UNL     1      -8.472   1.492 -31.310  1.00  0.00    -0.366 N 
HETATM    3  C   UNL     1      -7.152   1.536 -31.584  1.00  0.00     0.123 A 
HETATM    4  N   UNL     1      -6.581   0.729 -32.528  1.00  0.00    -0.240 N 
HETATM    5  N   UNL     1      -5.243   0.861 -32.620  1.00  0.00    -0.165 NA
HETATM    6  C   UNL     1      -4.969   1.880 -31.771  1.00  0.00     0.148 A 
HETATM    7  C   UNL     1      -6.137   2.307 -31.085  1.00  0.00     0.089 A 
HETATM    8  C   UNL     1      -7.317  -0.204 -33.358  1.00  0.00     0.221 C 
HETATM    9  C   UNL     1      -8.717  -0.476 -32.773  1.00  0.00     0.066 C 
HETATM   10  H   UNL     1      -8.901   2.211 -30.728  1.00  0.00     0.161 HD
ENDROOT
BRANCH   6  11
HETATM   11  C   UNL     1      -3.617   2.448 -31.626  1.00  0.00     0.276 C 
HETATM   12  N   UNL     1      -3.549   3.754 -32.070  1.00  0.00    -0.322 N 
HETATM   13  H   UNL     1      -4.415   4.090 -32.487  1.00  0.00     0.169 HD
HETATM   14  O   UNL     1      -2.696   1.784 -31.162  1.00  0.00    -0.266 OA
BRANCH  12  15
HETATM   15  C   UNL     1      -2.457   4.635 -32.008  1.00  0.00     0.035 A 
HETATM   16  C   UNL     1      -1.455   4.555 -31.036  1.00  0.00     0.039 A 
HETATM   17  C   UNL     1      -0.395   5.481 -30.999  1.00  0.00    -0.028 A 
HETATM   18  C   UNL     1      -0.345   6.481 -31.978  1.00  0.00     0.010 A 
HETATM   19  C   UNL     1      -1.340   6.569 -32.952  1.00  0.00     0.003 A 
HETATM   20  C   UNL     1      -2.395   5.656 -32.960  1.00  0.00     0.029 A 
BRANCH  17  21
HETATM   21  C   UNL     1       0.652   5.360 -29.913  1.00  0.00     0.147 C 
HETATM   22  C   UNL     1       0.264   6.143 -28.664  1.00  0.00     0.044 C 
BRANCH  21  23
HETATM   23  O   UNL     1       0.856   3.994 -29.555  1.00  0.00    -0.391 OA
HETATM   24  H   UNL     1       1.188   3.989 -28.642  1.00  0.00     0.210 HD
ENDBRANCH  21  23
ENDBRANCH  17  21
ENDBRANCH  12  15
ENDBRANCH   6  11
BRANCH   8  25
HETATM   25  C   UNL     1      -7.338   0.273 -34.795  1.00  0.00     0.409 C 
HETATM   26  F   UNL     1      -7.104   1.589 -34.937  1.00  0.00    -0.169 F 
HETATM   27  F   UNL     1      -6.431  -0.383 -35.555  1.00  0.00    -0.169 F 
HETATM   28  F   UNL     1      -8.549   0.017 -35.353  1.00  0.00    -0.169 F 
ENDBRANCH   8  25
BRANCH   1  29
HETATM   29  C   UNL     1     -10.154   1.643 -33.129  1.00  0.00    -0.035 A 
HETATM   30  C   UNL     1      -9.775   2.965 -33.406  1.00  0.00     0.010 A 
HETATM   31  C   UNL     1     -10.507   3.758 -34.294  1.00  0.00     0.007 A 
HETATM   32  C   UNL     1     -11.650   3.253 -34.918  1.00  0.00    -0.062 A 
HETATM   33  C   UNL     1     -12.439   4.094 -35.876  1.00  0.00     0.048 C 
HETATM   34  C   UNL     1     -12.040   1.938 -34.651  1.00  0.00     0.007 A 
HETATM   35  C   UNL     1     -11.302   1.144 -33.767  1.00  0.00     0.010 A 
ENDBRANCH   1  29
TORSDOF 6
ENDMDL
MODEL 4
REMARK VINA RESULT:      -9.1      6.081      9.461
REMARK  6 active torsions:
REMARK  status: ('A' for Active; 'I' for Inactive)
REMARK    1  A    between atoms: C_5  and  C_6 
REMARK    2  A    between atoms: C_11  and  C_12 
REMARK       I    between atoms: C_12  and  N_13 
REMARK    3  A    between atoms: N_13  and  C_14 
REMARK    4  A    between atoms: C_16  and  C_17 
REMARK    5  A    between atoms: C_17  and  O_18 
REMARK    6  A    between atoms: C_25  and  C_26 
ROOT
HETATM    1  C   UNL     1     -12.427   4.924 -32.812  1.00  0.00     0.118 C 
HETATM    2  N   UNL     1     -11.252   4.535 -32.039  1.00  0.00    -0.366 N 
HETATM    3  C   UNL     1     -10.631   3.353 -32.236  1.00  0.00     0.123 A 
HETATM    4  N   UNL     1     -11.178   2.368 -33.009  1.00  0.00    -0.240 N 
HETATM    5  N   UNL     1     -10.452   1.233 -33.040  1.00  0.00    -0.165 NA
HETATM    6  C   UNL     1      -9.338   1.555 -32.342  1.00  0.00     0.148 A 
HETATM    7  C   UNL     1      -9.429   2.865 -31.800  1.00  0.00     0.089 A 
HETATM    8  C   UNL     1     -12.430   2.496 -33.729  1.00  0.00     0.221 C 
HETATM    9  C   UNL     1     -13.254   3.684 -33.195  1.00  0.00     0.066 C 
HETATM   10  H   UNL     1     -10.755   5.310 -31.600  1.00  0.00     0.161 HD
ENDROOT
BRANCH   6  11
HETATM   11  C   UNL     1      -8.196   0.634 -32.204  1.00  0.00     0.276 C 
HETATM   12  N   UNL     1      -7.775   0.139 -33.423  1.00  0.00    -0.322 N 
HETATM   13  H   UNL     1      -8.356   0.429 -34.206  1.00  0.00     0.169 HD
HETATM   14  O   UNL     1      -7.722   0.371 -31.104  1.00  0.00    -0.266 OA
BRANCH  12  15
HETATM   15  C   UNL     1      -6.671  -0.689 -33.687  1.00  0.00     0.035 A 
HETATM   16  C   UNL     1      -6.782  -1.978 -34.217  1.00  0.00     0.039 A 
HETATM   17  C   UNL     1      -5.646  -2.780 -34.437  1.00  0.00    -0.028 A 
HETATM   18  C   UNL     1      -4.384  -2.250 -34.138  1.00  0.00     0.010 A 
HETATM   19  C   UNL     1      -4.263  -0.965 -33.609  1.00  0.00     0.003 A 
HETATM   20  C   UNL     1      -5.401  -0.193 -33.377  1.00  0.00     0.029 A 
BRANCH  17  21
HETATM   21  C   UNL     1      -5.824  -4.176 -34.993  1.00  0.00     0.147 C 
HETATM   22  C   UNL     1      -4.833  -5.159 -34.383  1.00  0.00     0.044 C 
BRANCH  21  23
HETATM   23  O   UNL     1      -7.149  -4.650 -34.755  1.00  0.00    -0.391 OA
HETATM   24  H   UNL     1      -7.749  -3.905 -34.926  1.00  0.00     0.210 HD
ENDBRANCH  21  23
ENDBRANCH  17  21
ENDBRANCH  12  15
ENDBRANCH   6  11
BRANCH   8  25
HETATM   25  C   UNL     1     -12.176   2.551 -35.221  1.00  0.00     0.409 C 
HETATM   26  F   UNL     1     -12.165   1.348 -35.819  1.00  0.00    -0.169 F 
HETATM   27  F   UNL     1     -13.097   3.312 -35.859  1.00  0.00    -0.169 F 
HETATM   28  F   UNL     1     -10.974   3.135 -35.467  1.00  0.00    -0.169 F 
ENDBRANCH   8  25
BRANCH   1  29
HETATM   29  C   UNL     1     -12.096   5.865 -33.957  1.00  0.00    -0.035 A 
HETATM   30  C   UNL     1     -10.786   6.264 -34.267  1.00  0.00     0.010 A 
HETATM   31  C   UNL     1     -10.530   7.152 -35.315  1.00  0.00     0.007 A 
HETATM   32  C   UNL     1     -11.579   7.678 -36.072  1.00  0.00    -0.062 A 
HETATM   33  C   UNL     1     -11.312   8.627 -37.202  1.00  0.00     0.048 C 
HETATM   34  C   UNL     1     -12.887   7.289 -35.774  1.00  0.00     0.007 A 
HETATM   35  C   UNL     1     -13.142   6.395 -34.730  1.00  0.00     0.010 A 
ENDBRANCH   1  29
TORSDOF 6
ENDMDL
MODEL 5
REMARK VINA RESULT:      -8.9      3.492      9.581
REMARK  6 active torsions:
REMARK  status: ('A' for Active; 'I' for Inactive)
REMARK    1  A    between atoms: C_5  and  C_6 
REMARK    2  A    between atoms: C_11  and  C_12 
REMARK       I    between atoms: C_12  and  N_13 
REMARK    3  A    between atoms: N_13  and  C_14 
REMARK    4  A    between atoms: C_16  and  C_17 
REMARK    5  A    between atoms: C_17  and  O_18 
REMARK    6  A    between atoms: C_25  and  C_26 
ROOT
HETATM    1  C   UNL     1      -2.808   7.811 -30.933  1.00  0.00     0.118 C 
HETATM    2  N   UNL     1      -3.899   6.842 -30.885  1.00  0.00    -0.366 N 
HETATM    3  C   UNL     1      -3.694   5.530 -31.124  1.00  0.00     0.123 A 
HETATM    4  N   UNL     1      -2.514   5.061 -31.628  1.00  0.00    -0.240 N 
HETATM    5  N   UNL     1      -2.511   3.734 -31.867  1.00  0.00    -0.165 NA
HETATM    6  C   UNL     1      -3.709   3.328 -31.385  1.00  0.00     0.148 A 
HETATM    7  C   UNL     1      -4.487   4.429 -30.939  1.00  0.00     0.089 A 
HETATM    8  C   UNL     1      -1.358   5.891 -31.908  1.00  0.00     0.221 C 
HETATM    9  C   UNL     1      -1.751   7.380 -31.966  1.00  0.00     0.066 C 
HETATM   10  H   UNL     1      -4.717   7.147 -30.358  1.00  0.00     0.161 HD
ENDROOT
BRANCH   6  11
HETATM   11  C   UNL     1      -4.103   1.908 -31.337  1.00  0.00     0.276 C 
HETATM   12  N   UNL     1      -3.584   1.187 -32.395  1.00  0.00    -0.322 N 
HETATM   13  H   UNL     1      -3.077   1.756 -33.069  1.00  0.00     0.169 HD
HETATM   14  O   UNL     1      -4.818   1.478 -30.438  1.00  0.00    -0.266 OA
BRANCH  12  15
HETATM   15  C   UNL     1      -3.676  -0.195 -32.629  1.00  0.00     0.035 A 
HETATM   16  C   UNL     1      -4.503  -0.760 -33.604  1.00  0.00     0.039 A 
HETATM   17  C   UNL     1      -4.581  -2.155 -33.780  1.00  0.00    -0.028 A 
HETATM   18  C   UNL     1      -3.788  -2.977 -32.970  1.00  0.00     0.010 A 
HETATM   19  C   UNL     1      -2.960  -2.423 -31.994  1.00  0.00     0.003 A 
HETATM   20  C   UNL     1      -2.911  -1.040 -31.819  1.00  0.00     0.029 A 
BRANCH  17  21
HETATM   21  C   UNL     1      -5.508  -2.714 -34.837  1.00  0.00     0.147 C 
HETATM   22  C   UNL     1      -5.636  -4.229 -34.733  1.00  0.00     0.044 C 
BRANCH  21  23
HETATM   23  O   UNL     1      -6.807  -2.133 -34.730  1.00  0.00    -0.391 OA
HETATM   24  H   UNL     1      -6.933  -1.578 -35.517  1.00  0.00     0.210 HD
ENDBRANCH  21  23
ENDBRANCH  17  21
ENDBRANCH  12  15
ENDBRANCH   6  11
BRANCH   8  25
HETATM   25  C   UNL     1      -0.245   5.591 -30.927  1.00  0.00     0.409 C 
HETATM   26  F   UNL     1       0.430   6.679 -30.517  1.00  0.00    -0.169 F 
HETATM   27  F   UNL     1      -0.708   4.962 -29.821  1.00  0.00    -0.169 F 
HETATM   28  F   UNL     1       0.656   4.745 -31.489  1.00  0.00    -0.169 F 
ENDBRANCH   8  25
BRANCH   1  29
HETATM   29  C   UNL     1      -2.270   8.162 -29.558  1.00  0.00    -0.035 A 
HETATM   30  C   UNL     1      -1.532   9.328 -29.298  1.00  0.00     0.010 A 
HETATM   31  C   UNL     1      -1.034   9.599 -28.021  1.00  0.00     0.007 A 
HETATM   32  C   UNL     1      -1.246   8.702 -26.971  1.00  0.00    -0.062 A 
HETATM   33  C   UNL     1      -0.720   8.988 -25.596  1.00  0.00     0.048 C 
HETATM   34  C   UNL     1      -1.978   7.538 -27.216  1.00  0.00     0.007 A 
HETATM   35  C   UNL     1      -2.483   7.271 -28.493  1.00  0.00     0.010 A 
ENDBRANCH   1  29
TORSDOF 6
ENDMDL
MODEL 6
REMARK VINA RESULT:      -8.9      3.229      9.510
REMARK  6 active torsions:
REMARK  status: ('A' for Active; 'I' for Inactive)
REMARK    1  A    between atoms: C_5  and  C_6 
REMARK    2  A    between atoms: C_11  and  C_12 
REMARK       I    between atoms: C_12  and  N_13 
REMARK    3  A    between atoms: N_13  and  C_14 
REMARK    4  A    between atoms: C_16  and  C_17 
REMARK    5  A    between atoms: C_17  and  O_18 
REMARK    6  A    between atoms: C_25  and  C_26 
ROOT
HETATM    1  C   UNL     1      -2.942   7.830 -30.069  1.00  0.00     0.118 C 
HETATM    2  N   UNL     1      -4.008   6.852 -29.878  1.00  0.00    -0.366 N 
HETATM    3  C   UNL     1      -4.082   5.728 -30.620  1.00  0.00     0.123 A 
HETATM    4  N   UNL     1      -3.302   5.537 -31.725  1.00  0.00    -0.240 N 
HETATM    5  N   UNL     1      -3.558   4.388 -32.382  1.00  0.00    -0.165 NA
HETATM    6  C   UNL     1      -4.467   3.771 -31.590  1.00  0.00     0.148 A 
HETATM    7  C   UNL     1      -4.839   4.594 -30.494  1.00  0.00     0.089 A 
HETATM    8  C   UNL     1      -2.294   6.473 -32.185  1.00  0.00     0.221 C 
HETATM    9  C   UNL     1      -2.496   7.859 -31.542  1.00  0.00     0.066 C 
HETATM   10  H   UNL     1      -4.475   6.902 -28.973  1.00  0.00     0.161 HD
ENDROOT
BRANCH   6  11
HETATM   11  C   UNL     1      -4.964   2.411 -31.866  1.00  0.00     0.276 C 
HETATM   12  N   UNL     1      -5.595   2.325 -33.091  1.00  0.00    -0.322 N 
HETATM   13  H   UNL     1      -5.679   3.218 -33.573  1.00  0.00     0.169 HD
HETATM   14  O   UNL     1      -4.809   1.503 -31.057  1.00  0.00    -0.266 OA
BRANCH  12  15
HETATM   15  C   UNL     1      -6.112   1.181 -33.721  1.00  0.00     0.035 A 
HETATM   16  C   UNL     1      -5.547  -0.092 -33.594  1.00  0.00     0.039 A 
HETATM   17  C   UNL     1      -6.087  -1.203 -34.270  1.00  0.00    -0.028 A 
HETATM   18  C   UNL     1      -7.226  -1.017 -35.062  1.00  0.00     0.010 A 
HETATM   19  C   UNL     1      -7.797   0.249 -35.195  1.00  0.00     0.003 A 
HETATM   20  C   UNL     1      -7.237   1.343 -34.536  1.00  0.00     0.029 A 
BRANCH  17  21
HETATM   21  C   UNL     1      -5.423  -2.555 -34.114  1.00  0.00     0.147 C 
HETATM   22  C   UNL     1      -6.123  -3.627 -34.941  1.00  0.00     0.044 C 
BRANCH  21  23
HETATM   23  O   UNL     1      -4.052  -2.494 -34.504  1.00  0.00    -0.391 OA
HETATM   24  H   UNL     1      -4.038  -2.411 -35.472  1.00  0.00     0.210 HD
ENDBRANCH  21  23
ENDBRANCH  17  21
ENDBRANCH  12  15
ENDBRANCH   6  11
BRANCH   8  25
HETATM   25  C   UNL     1      -0.909   5.899 -31.975  1.00  0.00     0.409 C 
HETATM   26  F   UNL     1       0.068   6.822 -31.951  1.00  0.00    -0.169 F 
HETATM   27  F   UNL     1      -0.827   5.194 -30.822  1.00  0.00    -0.169 F 
HETATM   28  F   UNL     1      -0.611   5.023 -32.970  1.00  0.00    -0.169 F 
ENDBRANCH   8  25
BRANCH   1  29
HETATM   29  C   UNL     1      -1.823   7.690 -29.053  1.00  0.00    -0.035 A 
HETATM   30  C   UNL     1      -1.954   6.955 -27.864  1.00  0.00     0.010 A 
HETATM   31  C   UNL     1      -0.905   6.873 -26.944  1.00  0.00     0.007 A 
HETATM   32  C   UNL     1       0.300   7.539 -27.182  1.00  0.00    -0.062 A 
HETATM   33  C   UNL     1       1.433   7.452 -26.203  1.00  0.00     0.048 C 
HETATM   34  C   UNL     1       0.444   8.274 -28.361  1.00  0.00     0.007 A 
HETATM   35  C   UNL     1      -0.604   8.348 -29.284  1.00  0.00     0.010 A 
ENDBRANCH   1  29
TORSDOF 6
ENDMDL
MODEL 7
REMARK VINA RESULT:      -8.8      5.565      9.031
REMARK  6 active torsions:
REMARK  status: ('A' for Active; 'I' for Inactive)
REMARK    1  A    between atoms: C_5  and  C_6 
REMARK    2  A    between atoms: C_11  and  C_12 
REMARK       I    between atoms: C_12  and  N_13 
REMARK    3  A    between atoms: N_13  and  C_14 
REMARK    4  A    between atoms: C_16  and  C_17 
REMARK    5  A    between atoms: C_17  and  O_18 
REMARK    6  A    between atoms: C_25  and  C_26 
ROOT
HETATM    1  C   UNL     1     -13.509   2.595 -33.475  1.00  0.00     0.118 C 
HETATM    2  N   UNL     1     -12.624   1.494 -33.107  1.00  0.00    -0.366 N 
HETATM    3  C   UNL     1     -11.317   1.490 -33.442  1.00  0.00     0.123 A 
HETATM    4  N   UNL     1     -10.792   2.397 -34.318  1.00  0.00    -0.240 N 
HETATM    5  N   UNL     1      -9.486   2.201 -34.588  1.00  0.00    -0.165 NA
HETATM    6  C   UNL     1      -9.143   1.190 -33.756  1.00  0.00     0.148 A 
HETATM    7  C   UNL     1     -10.271   0.701 -33.045  1.00  0.00     0.089 A 
HETATM    8  C   UNL     1     -11.547   3.472 -34.932  1.00  0.00     0.221 C 
HETATM    9  C   UNL     1     -13.062   3.220 -34.810  1.00  0.00     0.066 C 
HETATM   10  H   UNL     1     -12.958   0.920 -32.333  1.00  0.00     0.161 HD
ENDROOT
BRANCH   6  11
HETATM   11  C   UNL     1      -7.757   0.704 -33.629  1.00  0.00     0.276 C 
HETATM   12  N   UNL     1      -7.669  -0.666 -33.776  1.00  0.00    -0.322 N 
HETATM   13  H   UNL     1      -8.571  -1.126 -33.876  1.00  0.00     0.169 HD
HETATM   14  O   UNL     1      -6.831   1.478 -33.412  1.00  0.00    -0.266 OA
BRANCH  12  15
HETATM   15  C   UNL     1      -6.512  -1.463 -33.803  1.00  0.00     0.035 A 
HETATM   16  C   UNL     1      -5.384  -1.211 -33.017  1.00  0.00     0.039 A 
HETATM   17  C   UNL     1      -4.236  -2.023 -33.102  1.00  0.00    -0.028 A 
HETATM   18  C   UNL     1      -4.252  -3.115 -33.978  1.00  0.00     0.010 A 
HETATM   19  C   UNL     1      -5.373  -3.374 -34.767  1.00  0.00     0.003 A 
HETATM   20  C   UNL     1      -6.493  -2.546 -34.686  1.00  0.00     0.029 A 
BRANCH  17  21
HETATM   21  C   UNL     1      -3.034  -1.694 -32.243  1.00  0.00     0.147 C 
HETATM   22  C   UNL     1      -3.304  -0.510 -31.322  1.00  0.00     0.044 C 
BRANCH  21  23
HETATM   23  O   UNL     1      -2.656  -2.818 -31.449  1.00  0.00    -0.391 OA
HETATM   24  H   UNL     1      -3.150  -2.752 -30.615  1.00  0.00     0.210 HD
ENDBRANCH  21  23
ENDBRANCH  17  21
ENDBRANCH  12  15
ENDBRANCH   6  11
BRANCH   8  25
HETATM   25  C   UNL     1     -11.104   4.809 -34.376  1.00  0.00     0.409 C 
HETATM   26  F   UNL     1     -12.102   5.698 -34.231  1.00  0.00    -0.169 F 
HETATM   27  F   UNL     1     -10.502   4.677 -33.171  1.00  0.00    -0.169 F 
HETATM   28  F   UNL     1     -10.179   5.372 -35.197  1.00  0.00    -0.169 F 
ENDBRANCH   8  25
BRANCH   1  29
HETATM   29  C   UNL     1     -13.734   3.577 -32.339  1.00  0.00    -0.035 A 
HETATM   30  C   UNL     1     -12.855   3.708 -31.253  1.00  0.00     0.010 A 
HETATM   31  C   UNL     1     -13.115   4.608 -30.216  1.00  0.00     0.007 A 
HETATM   32  C   UNL     1     -14.272   5.391 -30.230  1.00  0.00    -0.062 A 
HETATM   33  C   UNL     1     -14.556   6.364 -29.125  1.00  0.00     0.048 C 
HETATM   34  C   UNL     1     -15.155   5.271 -31.305  1.00  0.00     0.007 A 
HETATM   35  C   UNL     1     -14.890   4.375 -32.346  1.00  0.00     0.010 A 
ENDBRANCH   1  29
TORSDOF 6
ENDMDL
MODEL 8
REMARK VINA RESULT:      -8.7      3.881      9.619
REMARK  6 active torsions:
REMARK  status: ('A' for Active; 'I' for Inactive)
REMARK    1  A    between atoms: C_5  and  C_6 
REMARK    2  A    between atoms: C_11  and  C_12 
REMARK       I    between atoms: C_12  and  N_13 
REMARK    3  A    between atoms: N_13  and  C_14 
REMARK    4  A    between atoms: C_16  and  C_17 
REMARK    5  A    between atoms: C_17  and  O_18 
REMARK    6  A    between atoms: C_25  and  C_26 
ROOT
HETATM    1  C   UNL     1      -2.549   7.915 -32.006  1.00  0.00     0.118 C 
HETATM    2  N   UNL     1      -3.978   7.933 -31.710  1.00  0.00    -0.366 N 
HETATM    3  C   UNL     1      -4.777   6.886 -32.001  1.00  0.00     0.123 A 
HETATM    4  N   UNL     1      -4.351   5.842 -32.773  1.00  0.00    -0.240 N 
HETATM    5  N   UNL     1      -5.302   4.919 -33.015  1.00  0.00    -0.165 NA
HETATM    6  C   UNL     1      -6.348   5.344 -32.268  1.00  0.00     0.148 A 
HETATM    7  C   UNL     1      -6.064   6.587 -31.643  1.00  0.00     0.089 A 
HETATM    8  C   UNL     1      -3.010   5.719 -33.311  1.00  0.00     0.221 C 
HETATM    9  C   UNL     1      -2.271   7.070 -33.262  1.00  0.00     0.066 C 
HETATM   10  H   UNL     1      -4.258   8.613 -31.003  1.00  0.00     0.161 HD
ENDROOT
BRANCH   6  11
HETATM   11  C   UNL     1      -7.596   4.570 -32.140  1.00  0.00     0.276 C 
HETATM   12  N   UNL     1      -7.846   3.794 -33.255  1.00  0.00    -0.322 N 
HETATM   13  H   UNL     1      -7.174   3.931 -34.007  1.00  0.00     0.169 HD
HETATM   14  O   UNL     1      -8.294   4.654 -31.135  1.00  0.00    -0.266 OA
BRANCH  12  15
HETATM   15  C   UNL     1      -8.885   2.870 -33.452  1.00  0.00     0.035 A 
HETATM   16  C   UNL     1     -10.033   3.148 -34.201  1.00  0.00     0.039 A 
HETATM   17  C   UNL     1     -11.061   2.196 -34.345  1.00  0.00    -0.028 A 
HETATM   18  C   UNL     1     -10.902   0.943 -33.741  1.00  0.00     0.010 A 
HETATM   19  C   UNL     1      -9.761   0.656 -32.992  1.00  0.00     0.003 A 
HETATM   20  C   UNL     1      -8.763   1.619 -32.842  1.00  0.00     0.029 A 
BRANCH  17  21
HETATM   21  C   UNL     1     -12.291   2.556 -35.149  1.00  0.00     0.147 C 
HETATM   22  C   UNL     1     -12.385   4.057 -35.399  1.00  0.00     0.044 C 
BRANCH  21  23
HETATM   23  O   UNL     1     -12.292   1.879 -36.406  1.00  0.00    -0.391 OA
HETATM   24  H   UNL     1     -12.990   1.205 -36.361  1.00  0.00     0.210 HD
ENDBRANCH  21  23
ENDBRANCH  17  21
ENDBRANCH  12  15
ENDBRANCH   6  11
BRANCH   8  25
HETATM   25  C   UNL     1      -2.269   4.593 -32.621  1.00  0.00     0.409 C 
HETATM   26  F   UNL     1      -2.521   3.377 -33.135  1.00  0.00    -0.169 F 
HETATM   27  F   UNL     1      -0.928   4.778 -32.660  1.00  0.00    -0.169 F 
HETATM   28  F   UNL     1      -2.602   4.552 -31.305  1.00  0.00    -0.169 F 
ENDBRANCH   8  25
BRANCH   1  29
HETATM   29  C   UNL     1      -1.699   7.579 -30.794  1.00  0.00    -0.035 A 
HETATM   30  C   UNL     1      -2.211   7.528 -29.488  1.00  0.00     0.010 A 
HETATM   31  C   UNL     1      -1.386   7.238 -28.398  1.00  0.00     0.007 A 
HETATM   32  C   UNL     1      -0.021   7.008 -28.583  1.00  0.00    -0.062 A 
HETATM   33  C   UNL     1       0.871   6.692 -27.419  1.00  0.00     0.048 C 
HETATM   34  C   UNL     1       0.502   7.057 -29.877  1.00  0.00     0.007 A 
HETATM   35  C   UNL     1      -0.326   7.339 -30.968  1.00  0.00     0.010 A 
ENDBRANCH   1  29
TORSDOF 6
ENDMDL
MODEL 9
REMARK VINA RESULT:      -8.7      5.499      8.098
REMARK  6 active torsions:
REMARK  status: ('A' for Active; 'I' for Inactive)
REMARK    1  A    between atoms: C_5  and  C_6 
REMARK    2  A    between atoms: C_11  and  C_12 
REMARK       I    between atoms: C_12  and  N_13 
REMARK    3  A    between atoms: N_13  and  C_14 
REMARK    4  A    between atoms: C_16  and  C_17 
REMARK    5  A    between atoms: C_17  and  O_18 
REMARK    6  A    between atoms: C_25  and  C_26 
ROOT
HETATM    1  C   UNL     1      -7.549   0.868 -31.623  1.00  0.00     0.118 C 
HETATM    2  N   UNL     1      -8.895   1.173 -32.098  1.00  0.00    -0.366 N 
HETATM    3  C   UNL     1      -9.154   2.264 -32.848  1.00  0.00     0.123 A 
HETATM    4  N   UNL     1      -8.229   3.254 -33.029  1.00  0.00    -0.240 N 
HETATM    5  N   UNL     1      -8.683   4.298 -33.750  1.00  0.00    -0.165 NA
HETATM    6  C   UNL     1      -9.918   3.898 -34.137  1.00  0.00     0.148 A 
HETATM    7  C   UNL     1     -10.256   2.643 -33.566  1.00  0.00     0.089 A 
HETATM    8  C   UNL     1      -6.882   3.221 -32.494  1.00  0.00     0.221 C 
HETATM    9  C   UNL     1      -6.759   2.166 -31.377  1.00  0.00     0.066 C 
HETATM   10  H   UNL     1      -9.532   0.376 -32.112  1.00  0.00     0.161 HD
ENDROOT
BRANCH   6  11
HETATM   11  C   UNL     1     -10.758   4.695 -35.048  1.00  0.00     0.276 C 
HETATM   12  N   UNL     1     -10.468   6.043 -34.982  1.00  0.00    -0.322 N 
HETATM   13  H   UNL     1      -9.778   6.279 -34.272  1.00  0.00     0.169 HD
HETATM   14  O   UNL     1     -11.607   4.163 -35.756  1.00  0.00    -0.266 OA
BRANCH  12  15
HETATM   15  C   UNL     1     -11.001   7.085 -35.760  1.00  0.00     0.035 A 
HETATM   16  C   UNL     1     -10.260   7.796 -36.708  1.00  0.00     0.039 A 
HETATM   17  C   UNL     1     -10.832   8.851 -37.444  1.00  0.00    -0.028 A 
HETATM   18  C   UNL     1     -12.180   9.165 -37.226  1.00  0.00     0.010 A 
HETATM   19  C   UNL     1     -12.927   8.462 -36.282  1.00  0.00     0.003 A 
HETATM   20  C   UNL     1     -12.338   7.433 -35.547  1.00  0.00     0.029 A 
BRANCH  17  21
HETATM   21  C   UNL     1      -9.979   9.602 -38.443  1.00  0.00     0.147 C 
HETATM   22  C   UNL     1     -10.827  10.425 -39.406  1.00  0.00     0.044 C 
BRANCH  21  23
HETATM   23  O   UNL     1      -9.065  10.472 -37.776  1.00  0.00    -0.391 OA
HETATM   24  H   UNL     1      -9.425  11.371 -37.853  1.00  0.00     0.210 HD
ENDBRANCH  21  23
ENDBRANCH  17  21
ENDBRANCH  12  15
ENDBRANCH   6  11
BRANCH   8  25
HETATM   25  C   UNL     1      -5.877   3.046 -33.612  1.00  0.00     0.409 C 
HETATM   26  F   UNL     1      -6.304   2.258 -34.613  1.00  0.00    -0.169 F 
HETATM   27  F   UNL     1      -5.519   4.233 -34.156  1.00  0.00    -0.169 F 
HETATM   28  F   UNL     1      -4.732   2.497 -33.128  1.00  0.00    -0.169 F 
ENDBRANCH   8  25
BRANCH   1  29
HETATM   29  C   UNL     1      -6.843  -0.172 -32.474  1.00  0.00    -0.035 A 
HETATM   30  C   UNL     1      -5.515  -0.570 -32.255  1.00  0.00     0.010 A 
HETATM   31  C   UNL     1      -4.897  -1.514 -33.080  1.00  0.00     0.007 A 
HETATM   32  C   UNL     1      -5.586  -2.073 -34.158  1.00  0.00    -0.062 A 
HETATM   33  C   UNL     1      -4.933  -3.090 -35.045  1.00  0.00     0.048 C 
HETATM   34  C   UNL     1      -6.908  -1.686 -34.388  1.00  0.00     0.007 A 
HETATM   35  C   UNL     1      -7.529  -0.747 -33.557  1.00  0.00     0.010 A 
ENDBRANCH   1  29
TORSDOF 6
ENDMDL
MODEL 10
REMARK VINA RESULT:      -8.4      3.199      9.796
REMARK  6 active torsions:
REMARK  status: ('A' for Active; 'I' for Inactive)
REMARK    1  A    between atoms: C_5  and  C_6 
REMARK    2  A    between atoms: C_11  and  C_12 
REMARK       I    between atoms: C_12  and  N_13 
REMARK    3  A    between atoms: N_13  and  C_14 
REMARK    4  A    between atoms: C_16  and  C_17 
REMARK    5  A    between atoms: C_17  and  O_18 
REMARK    6  A    between atoms: C_25  and  C_26 
ROOT
HETATM    1  C   UNL     1      -2.038   8.379 -29.937  1.00  0.00     0.118 C 
HETATM    2  N   UNL     1      -3.298   7.667 -29.748  1.00  0.00    -0.366 N 
HETATM    3  C   UNL     1      -3.529   6.468 -30.322  1.00  0.00     0.123 A 
HETATM    4  N   UNL     1      -2.699   5.949 -31.275  1.00  0.00    -0.240 N 
HETATM    5  N   UNL     1      -3.122   4.775 -31.785  1.00  0.00    -0.165 NA
HETATM    6  C   UNL     1      -4.213   4.484 -31.038  1.00  0.00     0.148 A 
HETATM    7  C   UNL     1      -4.514   5.535 -30.132  1.00  0.00     0.089 A 
HETATM    8  C   UNL     1      -1.479   6.586 -31.730  1.00  0.00     0.221 C 
HETATM    9  C   UNL     1      -1.452   8.074 -31.328  1.00  0.00     0.066 C 
HETATM   10  H   UNL     1      -3.832   7.956 -28.928  1.00  0.00     0.161 HD
ENDROOT
BRANCH   6  11
HETATM   11  C   UNL     1      -4.951   3.216 -31.176  1.00  0.00     0.276 C 
HETATM   12  N   UNL     1      -5.343   2.979 -32.479  1.00  0.00    -0.322 N 
HETATM   13  H   UNL     1      -5.125   3.741 -33.117  1.00  0.00     0.169 HD
HETATM   14  O   UNL     1      -5.166   2.498 -30.205  1.00  0.00    -0.266 OA
BRANCH  12  15
HETATM   15  C   UNL     1      -5.984   1.842 -32.998  1.00  0.00     0.035 A 
HETATM   16  C   UNL     1      -7.327   1.822 -33.385  1.00  0.00     0.039 A 
HETATM   17  C   UNL     1      -7.932   0.648 -33.873  1.00  0.00    -0.028 A 
HETATM   18  C   UNL     1      -7.150  -0.508 -33.990  1.00  0.00     0.010 A 
HETATM   19  C   UNL     1      -5.809  -0.499 -33.607  1.00  0.00     0.003 A 
HETATM   20  C   UNL     1      -5.233   0.668 -33.105  1.00  0.00     0.029 A 
BRANCH  17  21
HETATM   21  C   UNL     1      -9.395   0.676 -34.259  1.00  0.00     0.147 C 
HETATM   22  C   UNL     1     -10.297   0.326 -33.081  1.00  0.00     0.044 C 
BRANCH  21  23
HETATM   23  O   UNL     1      -9.763   1.963 -34.754  1.00  0.00    -0.391 OA
HETATM   24  H   UNL     1      -9.402   2.031 -35.654  1.00  0.00     0.210 HD
ENDBRANCH  21  23
ENDBRANCH  17  21
ENDBRANCH  12  15
ENDBRANCH   6  11
BRANCH   8  25
HETATM   25  C   UNL     1      -0.271   5.805 -31.258  1.00  0.00     0.409 C 
HETATM   26  F   UNL     1      -0.378   5.337 -30.003  1.00  0.00    -0.169 F 
HETATM   27  F   UNL     1      -0.012   4.748 -32.063  1.00  0.00    -0.169 F 
HETATM   28  F   UNL     1       0.838   6.589 -31.302  1.00  0.00    -0.169 F 
ENDBRANCH   8  25
BRANCH   1  29
HETATM   29  C   UNL     1      -1.079   8.204 -28.773  1.00  0.00    -0.035 A 
HETATM   30  C   UNL     1      -1.503   7.901 -27.470  1.00  0.00     0.010 A 
HETATM   31  C   UNL     1      -0.586   7.773 -26.423  1.00  0.00     0.007 A 
HETATM   32  C   UNL     1       0.780   7.961 -26.648  1.00  0.00    -0.062 A 
HETATM   33  C   UNL     1       1.771   7.820 -25.532  1.00  0.00     0.048 C 
HETATM   34  C   UNL     1       1.214   8.263 -27.941  1.00  0.00     0.007 A 
HETATM   35  C   UNL     1       0.297   8.383 -28.990  1.00  0.00     0.010 A 
ENDBRANCH   1  29
TORSDOF 6
ENDMDL
