MODEL 1
REMARK VINA RESULT:      -8.1      0.000      0.000
REMARK  6 active torsions:
REMARK  status: ('A' for Active; 'I' for Inactive)
REMARK    1  A    between atoms: C_2  and  C_3 
REMARK    2  A    between atoms: C_13  and  C_14 
REMARK       I    between atoms: C_14  and  N_15 
REMARK    3  A    between atoms: N_15  and  C_16 
REMARK    4  A    between atoms: C_16  and  C_17 
REMARK    5  A    between atoms: C_17  and  C_18 
REMARK    6  A    between atoms: C_18  and  C_19 
ROOT
HETATM    1  C   UNL     1      -4.215   3.681 -32.256  1.00  0.00     0.251 C 
HETATM    2  N   UNL     1      -3.974   4.522 -33.323  1.00  0.00    -0.357 N 
HETATM    3  O   UNL     1      -4.178   4.041 -31.086  1.00  0.00    -0.268 OA
HETATM    4  H   UNL     1      -4.223   4.226 -34.255  1.00  0.00     0.162 HD
ENDROOT
BRANCH   1   5
HETATM    5  C   UNL     1      -4.571   2.269 -32.580  1.00  0.00     0.032 A 
HETATM    6  C   UNL     1      -5.805   1.908 -33.127  1.00  0.00     0.017 A 
HETATM    7  C   UNL     1      -6.080   0.565 -33.415  1.00  0.00     0.008 A 
HETATM    8  C   UNL     1      -5.126  -0.436 -33.173  1.00  0.00    -0.052 A 
HETATM    9  C   UNL     1      -3.885  -0.061 -32.638  1.00  0.00     0.008 A 
HETATM   10  C   UNL     1      -3.610   1.279 -32.351  1.00  0.00     0.017 A 
BRANCH   8  11
HETATM   11  C   UNL     1      -5.467  -1.885 -33.468  1.00  0.00     0.044 C 
HETATM   12  C   UNL     1      -4.226  -2.634 -33.977  1.00  0.00     0.241 C 
HETATM   13  N   UNL     1      -4.574  -4.066 -34.255  1.00  0.00    -0.074 N 
HETATM   14  H   UNL     1      -4.822  -4.540 -33.375  1.00  0.00     0.277 HD
HETATM   15  H   UNL     1      -3.734  -4.551 -34.600  1.00  0.00     0.277 HD
HETATM   16  C   UNL     1      -5.678  -4.240 -35.245  1.00  0.00     0.232 C 
HETATM   17  C   UNL     1      -6.921  -3.523 -34.742  1.00  0.00     0.028 C 
HETATM   18  C   UNL     1      -6.643  -2.048 -34.449  1.00  0.00     0.013 C 
ENDBRANCH   8  11
ENDBRANCH   1   5
BRANCH   2  19
HETATM   19  C   UNL     1      -3.708   5.935 -33.129  1.00  0.00     0.123 C 
BRANCH  19  20
HETATM   20  C   UNL     1      -2.344   6.382 -33.648  1.00  0.00     0.026 C 
BRANCH  20  21
HETATM   21  C   UNL     1      -1.230   5.401 -33.284  1.00  0.00     0.061 C 
BRANCH  21  22
HETATM   22  C   UNL     1      -0.631   5.705 -31.948  1.00  0.00     0.044 A 
HETATM   23  N   UNL     1      -0.070   4.666 -31.223  1.00  0.00    -0.229 NA
HETATM   24  C   UNL     1       0.425   5.115 -30.096  1.00  0.00     0.164 A 
HETATM   25  N   UNL     1       1.036   4.328 -29.199  1.00  0.00    -0.378 N 
HETATM   26  S   UNL     1       0.220   6.796 -29.819  1.00  0.00    -0.062 SA
HETATM   27  H   UNL     1       0.882   3.333 -29.305  1.00  0.00     0.158 HD
HETATM   28  H   UNL     1       1.094   4.648 -28.240  1.00  0.00     0.158 HD
HETATM   29  C   UNL     1      -0.569   6.940 -31.332  1.00  0.00     0.080 A 
ENDBRANCH  21  22
ENDBRANCH  20  21
ENDBRANCH  19  20
ENDBRANCH   2  19
TORSDOF 6
ENDMDL
MODEL 2
REMARK VINA RESULT:      -8.1      6.370      8.586
REMARK  6 active torsions:
REMARK  status: ('A' for Active; 'I' for Inactive)
REMARK    1  A    between atoms: C_2  and  C_3 
REMARK    2  A    between atoms: C_13  and  C_14 
REMARK       I    between atoms: C_14  and  N_15 
REMARK    3  A    between atoms: N_15  and  C_16 
REMARK    4  A    between atoms: C_16  and  C_17 
REMARK    5  A    between atoms: C_17  and  C_18 
REMARK    6  A    between atoms: C_18  and  C_19 
ROOT
HETATM    1  C   UNL     1      -8.621   2.496 -33.044  1.00  0.00     0.251 C 
HETATM    2  N   UNL     1      -8.999   3.338 -34.069  1.00  0.00    -0.357 N 
HETATM    3  O   UNL     1      -8.879   2.705 -31.865  1.00  0.00    -0.268 OA
HETATM    4  H   UNL     1      -8.945   3.014 -35.024  1.00  0.00     0.162 HD
ENDROOT
BRANCH   1   5
HETATM    5  C   UNL     1      -7.887   1.256 -33.428  1.00  0.00     0.032 A 
HETATM    6  C   UNL     1      -7.148   0.502 -32.513  1.00  0.00     0.017 A 
HETATM    7  C   UNL     1      -6.485  -0.659 -32.932  1.00  0.00     0.008 A 
HETATM    8  C   UNL     1      -6.557  -1.091 -34.266  1.00  0.00    -0.052 A 
HETATM    9  C   UNL     1      -7.314  -0.336 -35.173  1.00  0.00     0.008 A 
HETATM   10  C   UNL     1      -7.977   0.822 -34.756  1.00  0.00     0.017 A 
BRANCH   8  11
HETATM   11  C   UNL     1      -5.802  -2.336 -34.694  1.00  0.00     0.044 C 
HETATM   12  C   UNL     1      -6.763  -3.527 -34.826  1.00  0.00     0.241 C 
HETATM   13  N   UNL     1      -6.007  -4.746 -35.260  1.00  0.00    -0.074 N 
HETATM   14  H   UNL     1      -5.634  -4.605 -36.209  1.00  0.00     0.277 HD
HETATM   15  H   UNL     1      -6.664  -5.535 -35.338  1.00  0.00     0.277 HD
HETATM   16  C   UNL     1      -4.895  -5.128 -34.339  1.00  0.00     0.232 C 
HETATM   17  C   UNL     1      -3.922  -3.966 -34.216  1.00  0.00     0.028 C 
HETATM   18  C   UNL     1      -4.625  -2.685 -33.764  1.00  0.00     0.013 C 
ENDBRANCH   8  11
ENDBRANCH   1   5
BRANCH   2  19
HETATM   19  C   UNL     1      -9.795   4.526 -33.821  1.00  0.00     0.123 C 
BRANCH  19  20
HETATM   20  C   UNL     1     -11.154   4.514 -34.517  1.00  0.00     0.026 C 
BRANCH  20  21
HETATM   21  C   UNL     1     -11.528   3.129 -35.043  1.00  0.00     0.061 C 
BRANCH  21  22
HETATM   22  C   UNL     1     -12.739   2.578 -34.361  1.00  0.00     0.044 A 
HETATM   23  N   UNL     1     -13.454   1.572 -34.991  1.00  0.00    -0.229 NA
HETATM   24  C   UNL     1     -14.462   1.196 -34.245  1.00  0.00     0.164 A 
HETATM   25  N   UNL     1     -15.321   0.231 -34.605  1.00  0.00    -0.378 N 
HETATM   26  S   UNL     1     -14.638   2.044 -32.763  1.00  0.00    -0.062 SA
HETATM   27  H   UNL     1     -15.312  -0.026 -35.584  1.00  0.00     0.158 HD
HETATM   28  H   UNL     1     -16.235   0.216 -34.170  1.00  0.00     0.158 HD
HETATM   29  C   UNL     1     -13.245   2.966 -33.136  1.00  0.00     0.080 A 
ENDBRANCH  21  22
ENDBRANCH  20  21
ENDBRANCH  19  20
ENDBRANCH   2  19
TORSDOF 6
ENDMDL
MODEL 3
REMARK VINA RESULT:      -7.5      5.356      7.373
REMARK  6 active torsions:
REMARK  status: ('A' for Active; 'I' for Inactive)
REMARK    1  A    between atoms: C_2  and  C_3 
REMARK    2  A    between atoms: C_13  and  C_14 
REMARK       I    between atoms: C_14  and  N_15 
REMARK    3  A    between atoms: N_15  and  C_16 
REMARK    4  A    between atoms: C_16  and  C_17 
REMARK    5  A    between atoms: C_17  and  C_18 
REMARK    6  A    between atoms: C_18  and  C_19 
ROOT
HETATM    1  C   UNL     1      -6.879   3.551 -34.109  1.00  0.00     0.251 C 
HETATM    2  N   UNL     1      -8.218   3.851 -33.966  1.00  0.00    -0.357 N 
HETATM    3  O   UNL     1      -6.016   4.390 -34.335  1.00  0.00    -0.268 OA
HETATM    4  H   UNL     1      -8.844   3.161 -33.577  1.00  0.00     0.162 HD
ENDROOT
BRANCH   1   5
HETATM    5  C   UNL     1      -6.488   2.122 -33.940  1.00  0.00     0.032 A 
HETATM    6  C   UNL     1      -5.514   1.708 -33.028  1.00  0.00     0.017 A 
HETATM    7  C   UNL     1      -5.193   0.349 -32.910  1.00  0.00     0.008 A 
HETATM    8  C   UNL     1      -5.846  -0.618 -33.690  1.00  0.00    -0.052 A 
HETATM    9  C   UNL     1      -6.833  -0.194 -34.592  1.00  0.00     0.008 A 
HETATM   10  C   UNL     1      -7.155   1.161 -34.710  1.00  0.00     0.017 A 
BRANCH   8  11
HETATM   11  C   UNL     1      -5.454  -2.078 -33.560  1.00  0.00     0.044 C 
HETATM   12  C   UNL     1      -3.978  -2.202 -33.153  1.00  0.00     0.241 C 
HETATM   13  N   UNL     1      -3.607  -3.649 -33.018  1.00  0.00    -0.074 N 
HETATM   14  H   UNL     1      -4.129  -4.069 -32.236  1.00  0.00     0.277 HD
HETATM   15  H   UNL     1      -2.615  -3.714 -32.751  1.00  0.00     0.277 HD
HETATM   16  C   UNL     1      -3.831  -4.450 -34.258  1.00  0.00     0.232 C 
HETATM   17  C   UNL     1      -5.294  -4.355 -34.660  1.00  0.00     0.028 C 
HETATM   18  C   UNL     1      -5.741  -2.902 -34.829  1.00  0.00     0.013 C 
ENDBRANCH   8  11
ENDBRANCH   1   5
BRANCH   2  19
HETATM   19  C   UNL     1      -8.699   5.219 -34.020  1.00  0.00     0.123 C 
BRANCH  19  20
HETATM   20  C   UNL     1     -10.197   5.336 -34.291  1.00  0.00     0.026 C 
BRANCH  20  21
HETATM   21  C   UNL     1     -10.651   4.447 -35.448  1.00  0.00     0.061 C 
BRANCH  21  22
HETATM   22  C   UNL     1     -11.430   3.263 -34.973  1.00  0.00     0.044 A 
HETATM   23  N   UNL     1     -10.778   2.298 -34.222  1.00  0.00    -0.229 NA
HETATM   24  C   UNL     1     -11.613   1.352 -33.873  1.00  0.00     0.164 A 
HETATM   25  N   UNL     1     -11.254   0.292 -33.134  1.00  0.00    -0.378 N 
HETATM   26  S   UNL     1     -13.219   1.539 -34.449  1.00  0.00    -0.062 SA
HETATM   27  H   UNL     1     -10.259   0.119 -33.064  1.00  0.00     0.158 HD
HETATM   28  H   UNL     1     -11.828  -0.541 -33.179  1.00  0.00     0.158 HD
HETATM   29  C   UNL     1     -12.769   3.010 -35.200  1.00  0.00     0.080 A 
ENDBRANCH  21  22
ENDBRANCH  20  21
ENDBRANCH  19  20
ENDBRANCH   2  19
TORSDOF 6
ENDMDL
MODEL 4
REMARK VINA RESULT:      -7.5      5.210      9.589
REMARK  6 active torsions:
REMARK  status: ('A' for Active; 'I' for Inactive)
REMARK    1  A    between atoms: C_2  and  C_3 
REMARK    2  A    between atoms: C_13  and  C_14 
REMARK       I    between atoms: C_14  and  N_15 
REMARK    3  A    between atoms: N_15  and  C_16 
REMARK    4  A    between atoms: C_16  and  C_17 
REMARK    5  A    between atoms: C_17  and  C_18 
REMARK    6  A    between atoms: C_18  and  C_19 
ROOT
HETATM    1  C   UNL     1      -1.429   6.908 -33.265  1.00  0.00     0.251 C 
HETATM    2  N   UNL     1      -1.656   5.593 -33.618  1.00  0.00    -0.357 N 
HETATM    3  O   UNL     1      -1.571   7.851 -34.034  1.00  0.00    -0.268 OA
HETATM    4  H   UNL     1      -1.727   4.890 -32.897  1.00  0.00     0.162 HD
ENDROOT
BRANCH   1   5
HETATM    5  C   UNL     1      -1.022   7.165 -31.854  1.00  0.00     0.032 A 
HETATM    6  C   UNL     1      -1.706   8.055 -31.021  1.00  0.00     0.017 A 
HETATM    7  C   UNL     1      -1.280   8.251 -29.701  1.00  0.00     0.008 A 
HETATM    8  C   UNL     1      -0.173   7.556 -29.188  1.00  0.00    -0.052 A 
HETATM    9  C   UNL     1       0.497   6.653 -30.027  1.00  0.00     0.008 A 
HETATM   10  C   UNL     1       0.072   6.456 -31.344  1.00  0.00     0.017 A 
BRANCH   8  11
HETATM   11  C   UNL     1       0.281   7.813 -27.763  1.00  0.00     0.044 C 
HETATM   12  C   UNL     1      -0.823   8.527 -26.970  1.00  0.00     0.241 C 
HETATM   13  N   UNL     1      -0.365   8.766 -25.562  1.00  0.00    -0.074 N 
HETATM   14  H   UNL     1      -0.238   7.865 -25.080  1.00  0.00     0.277 HD
HETATM   15  H   UNL     1      -1.113   9.250 -25.046  1.00  0.00     0.277 HD
HETATM   16  C   UNL     1       0.891   9.568 -25.462  1.00  0.00     0.232 C 
HETATM   17  C   UNL     1       2.001   8.861 -26.224  1.00  0.00     0.028 C 
HETATM   18  C   UNL     1       1.607   8.594 -27.678  1.00  0.00     0.013 C 
ENDBRANCH   8  11
ENDBRANCH   1   5
BRANCH   2  19
HETATM   19  C   UNL     1      -2.142   5.235 -34.937  1.00  0.00     0.123 C 
BRANCH  19  20
HETATM   20  C   UNL     1      -3.662   5.300 -35.072  1.00  0.00     0.026 C 
BRANCH  20  21
HETATM   21  C   UNL     1      -4.380   4.600 -33.919  1.00  0.00     0.061 C 
BRANCH  21  22
HETATM   22  C   UNL     1      -5.277   5.531 -33.170  1.00  0.00     0.044 A 
HETATM   23  N   UNL     1      -4.707   6.435 -32.288  1.00  0.00    -0.229 NA
HETATM   24  C   UNL     1      -5.633   7.183 -31.741  1.00  0.00     0.164 A 
HETATM   25  N   UNL     1      -5.363   8.150 -30.852  1.00  0.00    -0.378 N 
HETATM   26  S   UNL     1      -7.242   6.829 -32.220  1.00  0.00    -0.062 SA
HETATM   27  H   UNL     1      -4.445   8.118 -30.428  1.00  0.00     0.158 HD
HETATM   28  H   UNL     1      -6.106   8.453 -30.234  1.00  0.00     0.158 HD
HETATM   29  C   UNL     1      -6.654   5.600 -33.256  1.00  0.00     0.080 A 
ENDBRANCH  21  22
ENDBRANCH  20  21
ENDBRANCH  19  20
ENDBRANCH   2  19
TORSDOF 6
ENDMDL
MODEL 5
REMARK VINA RESULT:      -7.3      3.743      5.228
REMARK  6 active torsions:
REMARK  status: ('A' for Active; 'I' for Inactive)
REMARK    1  A    between atoms: C_2  and  C_3 
REMARK    2  A    between atoms: C_13  and  C_14 
REMARK       I    between atoms: C_14  and  N_15 
REMARK    3  A    between atoms: N_15  and  C_16 
REMARK    4  A    between atoms: C_16  and  C_17 
REMARK    5  A    between atoms: C_17  and  C_18 
REMARK    6  A    between atoms: C_18  and  C_19 
ROOT
HETATM    1  C   UNL     1      -8.674   2.382 -33.294  1.00  0.00     0.251 C 
HETATM    2  N   UNL     1      -9.679   2.262 -32.357  1.00  0.00    -0.357 N 
HETATM    3  O   UNL     1      -8.371   3.439 -33.833  1.00  0.00    -0.268 OA
HETATM    4  H   UNL     1      -9.742   1.422 -31.800  1.00  0.00     0.162 HD
ENDROOT
BRANCH   1   5
HETATM    5  C   UNL     1      -7.910   1.144 -33.624  1.00  0.00     0.032 A 
HETATM    6  C   UNL     1      -7.235   0.393 -32.658  1.00  0.00     0.017 A 
HETATM    7  C   UNL     1      -6.540  -0.766 -33.027  1.00  0.00     0.008 A 
HETATM    8  C   UNL     1      -6.514  -1.198 -34.362  1.00  0.00    -0.052 A 
HETATM    9  C   UNL     1      -7.207  -0.446 -35.322  1.00  0.00     0.008 A 
HETATM   10  C   UNL     1      -7.903   0.709 -34.954  1.00  0.00     0.017 A 
BRANCH   8  11
HETATM   11  C   UNL     1      -5.725  -2.440 -34.734  1.00  0.00     0.044 C 
HETATM   12  C   UNL     1      -6.656  -3.659 -34.822  1.00  0.00     0.241 C 
HETATM   13  N   UNL     1      -5.866  -4.876 -35.201  1.00  0.00    -0.074 N 
HETATM   14  H   UNL     1      -5.491  -4.764 -36.153  1.00  0.00     0.277 HD
HETATM   15  H   UNL     1      -6.502  -5.684 -35.250  1.00  0.00     0.277 HD
HETATM   16  C   UNL     1      -4.752  -5.192 -34.258  1.00  0.00     0.232 C 
HETATM   17  C   UNL     1      -3.809  -4.002 -34.178  1.00  0.00     0.028 C 
HETATM   18  C   UNL     1      -4.546  -2.721 -33.783  1.00  0.00     0.013 C 
ENDBRANCH   8  11
ENDBRANCH   1   5
BRANCH   2  19
HETATM   19  C   UNL     1     -10.426   3.417 -31.894  1.00  0.00     0.123 C 
BRANCH  19  20
HETATM   20  C   UNL     1     -10.069   3.853 -30.475  1.00  0.00     0.026 C 
BRANCH  20  21
HETATM   21  C   UNL     1      -8.959   4.903 -30.449  1.00  0.00     0.061 C 
BRANCH  21  22
HETATM   22  C   UNL     1      -7.604   4.283 -30.330  1.00  0.00     0.044 A 
HETATM   23  N   UNL     1      -6.494   5.053 -30.634  1.00  0.00    -0.229 NA
HETATM   24  C   UNL     1      -5.396   4.361 -30.453  1.00  0.00     0.164 A 
HETATM   25  N   UNL     1      -4.171   4.861 -30.666  1.00  0.00    -0.378 N 
HETATM   26  S   UNL     1      -5.626   2.739 -29.941  1.00  0.00    -0.062 SA
HETATM   27  H   UNL     1      -4.129   5.713 -31.211  1.00  0.00     0.158 HD
HETATM   28  H   UNL     1      -3.411   4.213 -30.832  1.00  0.00     0.158 HD
HETATM   29  C   UNL     1      -7.320   2.989 -29.938  1.00  0.00     0.080 A 
ENDBRANCH  21  22
ENDBRANCH  20  21
ENDBRANCH  19  20
ENDBRANCH   2  19
TORSDOF 6
ENDMDL
MODEL 6
REMARK VINA RESULT:      -7.2      1.704      2.599
REMARK  6 active torsions:
REMARK  status: ('A' for Active; 'I' for Inactive)
REMARK    1  A    between atoms: C_2  and  C_3 
REMARK    2  A    between atoms: C_13  and  C_14 
REMARK       I    between atoms: C_14  and  N_15 
REMARK    3  A    between atoms: N_15  and  C_16 
REMARK    4  A    between atoms: C_16  and  C_17 
REMARK    5  A    between atoms: C_17  and  C_18 
REMARK    6  A    between atoms: C_18  and  C_19 
ROOT
HETATM    1  C   UNL     1      -5.292   2.935 -31.740  1.00  0.00     0.251 C 
HETATM    2  N   UNL     1      -6.157   3.768 -32.420  1.00  0.00    -0.357 N 
HETATM    3  O   UNL     1      -4.751   3.236 -30.683  1.00  0.00    -0.268 OA
HETATM    4  H   UNL     1      -6.728   3.392 -33.163  1.00  0.00     0.162 HD
ENDROOT
BRANCH   1   5
HETATM    5  C   UNL     1      -5.048   1.589 -32.333  1.00  0.00     0.032 A 
HETATM    6  C   UNL     1      -3.785   0.992 -32.358  1.00  0.00     0.017 A 
HETATM    7  C   UNL     1      -3.620  -0.279 -32.923  1.00  0.00     0.008 A 
HETATM    8  C   UNL     1      -4.711  -0.978 -33.463  1.00  0.00    -0.052 A 
HETATM    9  C   UNL     1      -5.977  -0.376 -33.420  1.00  0.00     0.008 A 
HETATM   10  C   UNL     1      -6.144   0.891 -32.855  1.00  0.00     0.017 A 
BRANCH   8  11
HETATM   11  C   UNL     1      -4.492  -2.340 -34.096  1.00  0.00     0.044 C 
HETATM   12  C   UNL     1      -5.830  -2.937 -34.558  1.00  0.00     0.241 C 
HETATM   13  N   UNL     1      -5.598  -4.277 -35.190  1.00  0.00    -0.074 N 
HETATM   14  H   UNL     1      -5.051  -4.162 -36.055  1.00  0.00     0.277 HD
HETATM   15  H   UNL     1      -6.504  -4.665 -35.488  1.00  0.00     0.277 HD
HETATM   16  C   UNL     1      -4.919  -5.260 -34.295  1.00  0.00     0.232 C 
HETATM   17  C   UNL     1      -3.581  -4.691 -33.848  1.00  0.00     0.028 C 
HETATM   18  C   UNL     1      -3.742  -3.325 -33.180  1.00  0.00     0.013 C 
ENDBRANCH   8  11
ENDBRANCH   1   5
BRANCH   2  19
HETATM   19  C   UNL     1      -6.537   5.064 -31.889  1.00  0.00     0.123 C 
BRANCH  19  20
HETATM   20  C   UNL     1      -5.898   6.241 -32.623  1.00  0.00     0.026 C 
BRANCH  20  21
HETATM   21  C   UNL     1      -4.824   6.937 -31.787  1.00  0.00     0.061 C 
BRANCH  21  22
HETATM   22  C   UNL     1      -3.495   6.265 -31.911  1.00  0.00     0.044 A 
HETATM   23  N   UNL     1      -2.715   6.122 -30.774  1.00  0.00    -0.229 NA
HETATM   24  C   UNL     1      -1.602   5.495 -31.062  1.00  0.00     0.164 A 
HETATM   25  N   UNL     1      -0.662   5.214 -30.148  1.00  0.00    -0.378 N 
HETATM   26  S   UNL     1      -1.404   5.068 -32.712  1.00  0.00    -0.062 SA
HETATM   27  H   UNL     1      -0.727   5.722 -29.275  1.00  0.00     0.158 HD
HETATM   28  H   UNL     1       0.282   5.041 -30.469  1.00  0.00     0.158 HD
HETATM   29  C   UNL     1      -2.933   5.752 -33.064  1.00  0.00     0.080 A 
ENDBRANCH  21  22
ENDBRANCH  20  21
ENDBRANCH  19  20
ENDBRANCH   2  19
TORSDOF 6
ENDMDL
MODEL 7
REMARK VINA RESULT:      -7.2      1.895      2.485
REMARK  6 active torsions:
REMARK  status: ('A' for Active; 'I' for Inactive)
REMARK    1  A    between atoms: C_2  and  C_3 
REMARK    2  A    between atoms: C_13  and  C_14 
REMARK       I    between atoms: C_14  and  N_15 
REMARK    3  A    between atoms: N_15  and  C_16 
REMARK    4  A    between atoms: C_16  and  C_17 
REMARK    5  A    between atoms: C_17  and  C_18 
REMARK    6  A    between atoms: C_18  and  C_19 
ROOT
HETATM    1  C   UNL     1      -3.890   5.180 -31.236  1.00  0.00     0.251 C 
HETATM    2  N   UNL     1      -2.563   5.436 -30.957  1.00  0.00    -0.357 N 
HETATM    3  O   UNL     1      -4.770   6.031 -31.190  1.00  0.00    -0.268 OA
HETATM    4  H   UNL     1      -1.861   4.757 -31.213  1.00  0.00     0.162 HD
ENDROOT
BRANCH   1   5
HETATM    5  C   UNL     1      -4.234   3.788 -31.646  1.00  0.00     0.032 A 
HETATM    6  C   UNL     1      -5.496   3.433 -32.130  1.00  0.00     0.017 A 
HETATM    7  C   UNL     1      -5.758   2.109 -32.506  1.00  0.00     0.008 A 
HETATM    8  C   UNL     1      -4.765   1.122 -32.413  1.00  0.00    -0.052 A 
HETATM    9  C   UNL     1      -3.498   1.491 -31.940  1.00  0.00     0.008 A 
HETATM   10  C   UNL     1      -3.234   2.812 -31.566  1.00  0.00     0.017 A 
BRANCH   8  11
HETATM   11  C   UNL     1      -5.091  -0.310 -32.799  1.00  0.00     0.044 C 
HETATM   12  C   UNL     1      -3.800  -1.104 -33.048  1.00  0.00     0.241 C 
HETATM   13  N   UNL     1      -4.136  -2.518 -33.418  1.00  0.00    -0.074 N 
HETATM   14  H   UNL     1      -4.583  -2.989 -32.618  1.00  0.00     0.277 HD
HETATM   15  H   UNL     1      -3.262  -3.034 -33.587  1.00  0.00     0.277 HD
HETATM   16  C   UNL     1      -5.012  -2.637 -34.621  1.00  0.00     0.232 C 
HETATM   17  C   UNL     1      -6.305  -1.874 -34.380  1.00  0.00     0.028 C 
HETATM   18  C   UNL     1      -6.039  -0.414 -34.009  1.00  0.00     0.013 C 
ENDBRANCH   8  11
ENDBRANCH   1   5
BRANCH   2  19
HETATM   19  C   UNL     1      -2.101   6.774 -30.637  1.00  0.00     0.123 C 
BRANCH  19  20
HETATM   20  C   UNL     1      -0.836   7.184 -31.387  1.00  0.00     0.026 C 
BRANCH  20  21
HETATM   21  C   UNL     1       0.437   6.698 -30.695  1.00  0.00     0.061 C 
BRANCH  21  22
HETATM   22  C   UNL     1       0.386   6.908 -29.216  1.00  0.00     0.044 A 
HETATM   23  N   UNL     1      -0.241   5.952 -28.433  1.00  0.00    -0.229 NA
HETATM   24  C   UNL     1      -0.170   6.285 -27.167  1.00  0.00     0.164 A 
HETATM   25  N   UNL     1      -0.690   5.537 -26.183  1.00  0.00    -0.378 N 
HETATM   26  S   UNL     1       0.618   7.773 -26.840  1.00  0.00    -0.062 SA
HETATM   27  H   UNL     1      -1.357   4.831 -26.468  1.00  0.00     0.158 HD
HETATM   28  H   UNL     1      -0.898   5.984 -25.299  1.00  0.00     0.158 HD
HETATM   29  C   UNL     1       0.909   7.977 -28.515  1.00  0.00     0.080 A 
ENDBRANCH  21  22
ENDBRANCH  20  21
ENDBRANCH  19  20
ENDBRANCH   2  19
TORSDOF 6
ENDMDL
MODEL 8
REMARK VINA RESULT:      -7.1      4.473     10.516
REMARK  6 active torsions:
REMARK  status: ('A' for Active; 'I' for Inactive)
REMARK    1  A    between atoms: C_2  and  C_3 
REMARK    2  A    between atoms: C_13  and  C_14 
REMARK       I    between atoms: C_14  and  N_15 
REMARK    3  A    between atoms: N_15  and  C_16 
REMARK    4  A    between atoms: C_16  and  C_17 
REMARK    5  A    between atoms: C_17  and  C_18 
REMARK    6  A    between atoms: C_18  and  C_19 
ROOT
HETATM    1  C   UNL     1      -0.593   5.233 -30.637  1.00  0.00     0.251 C 
HETATM    2  N   UNL     1      -1.939   5.077 -30.897  1.00  0.00    -0.357 N 
HETATM    3  O   UNL     1       0.287   4.610 -31.219  1.00  0.00    -0.268 OA
HETATM    4  H   UNL     1      -2.596   5.757 -30.544  1.00  0.00     0.162 HD
ENDROOT
BRANCH   1   5
HETATM    5  C   UNL     1      -0.220   6.248 -29.610  1.00  0.00     0.032 A 
HETATM    6  C   UNL     1      -0.717   7.554 -29.623  1.00  0.00     0.017 A 
HETATM    7  C   UNL     1      -0.334   8.462 -28.627  1.00  0.00     0.008 A 
HETATM    8  C   UNL     1       0.541   8.079 -27.599  1.00  0.00    -0.052 A 
HETATM    9  C   UNL     1       1.023   6.762 -27.586  1.00  0.00     0.008 A 
HETATM   10  C   UNL     1       0.641   5.855 -28.579  1.00  0.00     0.017 A 
BRANCH   8  11
HETATM   11  C   UNL     1       0.960   9.095 -26.552  1.00  0.00     0.044 C 
HETATM   12  C   UNL     1       2.272   8.663 -25.880  1.00  0.00     0.241 C 
HETATM   13  N   UNL     1       2.680   9.680 -24.857  1.00  0.00    -0.074 N 
HETATM   14  H   UNL     1       2.906  10.570 -25.323  1.00  0.00     0.277 HD
HETATM   15  H   UNL     1       3.556   9.373 -24.413  1.00  0.00     0.277 HD
HETATM   16  C   UNL     1       1.655   9.918 -23.798  1.00  0.00     0.232 C 
HETATM   17  C   UNL     1       0.356  10.370 -24.447  1.00  0.00     0.028 C 
HETATM   18  C   UNL     1      -0.129   9.370 -25.498  1.00  0.00     0.013 C 
ENDBRANCH   8  11
ENDBRANCH   1   5
BRANCH   2  19
HETATM   19  C   UNL     1      -2.411   4.184 -31.939  1.00  0.00     0.123 C 
BRANCH  19  20
HETATM   20  C   UNL     1      -3.923   3.969 -31.927  1.00  0.00     0.026 C 
BRANCH  20  21
HETATM   21  C   UNL     1      -4.342   2.824 -31.005  1.00  0.00     0.061 C 
BRANCH  21  22
HETATM   22  C   UNL     1      -4.066   1.486 -31.611  1.00  0.00     0.044 A 
HETATM   23  N   UNL     1      -2.992   0.752 -31.135  1.00  0.00    -0.229 NA
HETATM   24  C   UNL     1      -2.914  -0.397 -31.759  1.00  0.00     0.164 A 
HETATM   25  N   UNL     1      -1.971  -1.313 -31.494  1.00  0.00    -0.378 N 
HETATM   26  S   UNL     1      -4.097  -0.655 -32.975  1.00  0.00    -0.062 SA
HETATM   27  H   UNL     1      -1.170  -0.984 -30.970  1.00  0.00     0.158 HD
HETATM   28  H   UNL     1      -1.759  -2.002 -32.205  1.00  0.00     0.158 HD
HETATM   29  C   UNL     1      -4.780   0.875 -32.623  1.00  0.00     0.080 A 
ENDBRANCH  21  22
ENDBRANCH  20  21
ENDBRANCH  19  20
ENDBRANCH   2  19
TORSDOF 6
ENDMDL
MODEL 9
REMARK VINA RESULT:      -7.1      3.981     10.274
REMARK  6 active torsions:
REMARK  status: ('A' for Active; 'I' for Inactive)
REMARK    1  A    between atoms: C_2  and  C_3 
REMARK    2  A    between atoms: C_13  and  C_14 
REMARK       I    between atoms: C_14  and  N_15 
REMARK    3  A    between atoms: N_15  and  C_16 
REMARK    4  A    between atoms: C_16  and  C_17 
REMARK    5  A    between atoms: C_17  and  C_18 
REMARK    6  A    between atoms: C_18  and  C_19 
ROOT
HETATM    1  C   UNL     1      -1.567   4.840 -31.753  1.00  0.00     0.251 C 
HETATM    2  N   UNL     1      -2.529   3.969 -31.284  1.00  0.00    -0.357 N 
HETATM    3  O   UNL     1      -1.269   4.947 -32.937  1.00  0.00    -0.268 OA
HETATM    4  H   UNL     1      -2.877   4.073 -30.342  1.00  0.00     0.162 HD
ENDROOT
BRANCH   1   5
HETATM    5  C   UNL     1      -0.897   5.708 -30.744  1.00  0.00     0.032 A 
HETATM    6  C   UNL     1      -1.224   7.056 -30.570  1.00  0.00     0.017 A 
HETATM    7  C   UNL     1      -0.563   7.820 -29.600  1.00  0.00     0.008 A 
HETATM    8  C   UNL     1       0.427   7.252 -28.782  1.00  0.00    -0.052 A 
HETATM    9  C   UNL     1       0.737   5.895 -28.954  1.00  0.00     0.008 A 
HETATM   10  C   UNL     1       0.077   5.131 -29.921  1.00  0.00     0.017 A 
BRANCH   8  11
HETATM   11  C   UNL     1       1.145   8.115 -27.762  1.00  0.00     0.044 C 
HETATM   12  C   UNL     1       1.482   7.295 -26.508  1.00  0.00     0.241 C 
HETATM   13  N   UNL     1       2.201   8.156 -25.513  1.00  0.00    -0.074 N 
HETATM   14  H   UNL     1       3.115   8.438 -25.895  1.00  0.00     0.277 HD
HETATM   15  H   UNL     1       2.414   7.594 -24.678  1.00  0.00     0.277 HD
HETATM   16  C   UNL     1       1.436   9.370 -25.100  1.00  0.00     0.232 C 
HETATM   17  C   UNL     1       1.115  10.205 -26.330  1.00  0.00     0.028 C 
HETATM   18  C   UNL     1       0.368   9.391 -27.387  1.00  0.00     0.013 C 
ENDBRANCH   8  11
ENDBRANCH   1   5
BRANCH   2  19
HETATM   19  C   UNL     1      -3.308   3.141 -32.187  1.00  0.00     0.123 C 
BRANCH  19  20
HETATM   20  C   UNL     1      -4.493   2.448 -31.519  1.00  0.00     0.026 C 
BRANCH  20  21
HETATM   21  C   UNL     1      -4.298   0.936 -31.408  1.00  0.00     0.061 C 
BRANCH  21  22
HETATM   22  C   UNL     1      -4.981   0.200 -32.515  1.00  0.00     0.044 A 
HETATM   23  N   UNL     1      -5.773   0.917 -33.398  1.00  0.00    -0.229 NA
HETATM   24  C   UNL     1      -6.271   0.121 -34.311  1.00  0.00     0.164 A 
HETATM   25  N   UNL     1      -7.070   0.548 -35.300  1.00  0.00    -0.378 N 
HETATM   26  S   UNL     1      -5.852  -1.536 -34.151  1.00  0.00    -0.062 SA
HETATM   27  H   UNL     1      -7.479   1.465 -35.173  1.00  0.00     0.158 HD
HETATM   28  H   UNL     1      -7.673  -0.126 -35.754  1.00  0.00     0.158 HD
HETATM   29  C   UNL     1      -4.914  -1.156 -32.770  1.00  0.00     0.080 A 
ENDBRANCH  21  22
ENDBRANCH  20  21
ENDBRANCH  19  20
ENDBRANCH   2  19
TORSDOF 6
ENDMDL
MODEL 10
REMARK VINA RESULT:      -7.1      4.357      6.329
REMARK  6 active torsions:
REMARK  status: ('A' for Active; 'I' for Inactive)
REMARK    1  A    between atoms: C_2  and  C_3 
REMARK    2  A    between atoms: C_13  and  C_14 
REMARK       I    between atoms: C_14  and  N_15 
REMARK    3  A    between atoms: N_15  and  C_16 
REMARK    4  A    between atoms: C_16  and  C_17 
REMARK    5  A    between atoms: C_17  and  C_18 
REMARK    6  A    between atoms: C_18  and  C_19 
ROOT
HETATM    1  C   UNL     1      -5.110   2.909 -31.661  1.00  0.00     0.251 C 
HETATM    2  N   UNL     1      -6.347   3.498 -31.824  1.00  0.00    -0.357 N 
HETATM    3  O   UNL     1      -4.197   3.413 -31.018  1.00  0.00    -0.268 OA
HETATM    4  H   UNL     1      -7.116   2.949 -32.179  1.00  0.00     0.162 HD
ENDROOT
BRANCH   1   5
HETATM    5  C   UNL     1      -4.916   1.568 -32.285  1.00  0.00     0.032 A 
HETATM    6  C   UNL     1      -3.730   0.841 -32.160  1.00  0.00     0.017 A 
HETATM    7  C   UNL     1      -3.609  -0.417 -32.765  1.00  0.00     0.008 A 
HETATM    8  C   UNL     1      -4.671  -0.973 -33.494  1.00  0.00    -0.052 A 
HETATM    9  C   UNL     1      -5.863  -0.242 -33.601  1.00  0.00     0.008 A 
HETATM   10  C   UNL     1      -5.986   1.013 -32.997  1.00  0.00     0.017 A 
BRANCH   8  11
HETATM   11  C   UNL     1      -4.497  -2.324 -34.163  1.00  0.00     0.044 C 
HETATM   12  C   UNL     1      -5.857  -2.878 -34.614  1.00  0.00     0.241 C 
HETATM   13  N   UNL     1      -5.670  -4.207 -35.282  1.00  0.00    -0.074 N 
HETATM   14  H   UNL     1      -5.135  -4.085 -36.153  1.00  0.00     0.277 HD
HETATM   15  H   UNL     1      -6.589  -4.566 -35.573  1.00  0.00     0.277 HD
HETATM   16  C   UNL     1      -4.999  -5.227 -34.422  1.00  0.00     0.232 C 
HETATM   17  C   UNL     1      -3.640  -4.702 -33.986  1.00  0.00     0.028 C 
HETATM   18  C   UNL     1      -3.755  -3.349 -33.283  1.00  0.00     0.013 C 
ENDBRANCH   8  11
ENDBRANCH   1   5
BRANCH   2  19
HETATM   19  C   UNL     1      -6.676   4.759 -31.184  1.00  0.00     0.123 C 
BRANCH  19  20
HETATM   20  C   UNL     1      -8.063   4.781 -30.545  1.00  0.00     0.026 C 
BRANCH  20  21
HETATM   21  C   UNL     1      -8.716   3.400 -30.519  1.00  0.00     0.061 C 
BRANCH  21  22
HETATM   22  C   UNL     1      -9.686   3.217 -31.640  1.00  0.00     0.044 A 
HETATM   23  N   UNL     1      -9.331   2.393 -32.697  1.00  0.00    -0.229 NA
HETATM   24  C   UNL     1     -10.304   2.331 -33.571  1.00  0.00     0.164 A 
HETATM   25  N   UNL     1     -10.235   1.599 -34.693  1.00  0.00    -0.378 N 
HETATM   26  S   UNL     1     -11.687   3.277 -33.203  1.00  0.00    -0.062 SA
HETATM   27  H   UNL     1      -9.310   1.293 -34.966  1.00  0.00     0.158 HD
HETATM   28  H   UNL     1     -10.846   1.843 -35.463  1.00  0.00     0.158 HD
HETATM   29  C   UNL     1     -10.938   3.790 -31.751  1.00  0.00     0.080 A 
ENDBRANCH  21  22
ENDBRANCH  20  21
ENDBRANCH  19  20
ENDBRANCH   2  19
TORSDOF 6
ENDMDL
