MODEL 1
REMARK VINA RESULT:      -8.7      0.000      0.000
REMARK  6 active torsions:
REMARK  status: ('A' for Active; 'I' for Inactive)
REMARK    1  A    between atoms: C_2  and  O_3 
REMARK    2  A    between atoms: O_3  and  C_4 
REMARK    3  A    between atoms: C_8  and  C_9 
REMARK    4  A    between atoms: C_9  and  N_10 
REMARK       I    between atoms: N_10  and  C_11 
REMARK       I    between atoms: C_11  and  N_12 
REMARK    5  A    between atoms: N_12  and  C_13 
REMARK    6  A    between atoms: C_14  and  C_15 
ROOT
HETATM    1  N   UNL     1      -5.640   2.748 -32.746  1.00  0.00    -0.339 N 
HETATM    2  C   UNL     1      -6.411   2.795 -33.869  1.00  0.00     0.316 C 
HETATM    3  N   UNL     1      -6.838   1.601 -34.361  1.00  0.00    -0.338 N 
HETATM    4  O   UNL     1      -6.717   3.838 -34.440  1.00  0.00    -0.247 OA
HETATM    5  H   UNL     1      -5.751   1.931 -32.167  1.00  0.00     0.164 HD
HETATM    6  H   UNL     1      -7.401   1.706 -35.197  1.00  0.00     0.164 HD
ENDROOT
BRANCH   1   7
HETATM    7  C   UNL     1      -5.277   3.988 -32.104  1.00  0.00     0.163 C 
BRANCH   7   8
HETATM    8  C   UNL     1      -3.878   4.425 -32.432  1.00  0.00    -0.035 A 
HETATM    9  C   UNL     1      -3.527   4.773 -33.738  1.00  0.00     0.028 A 
HETATM   10  C   UNL     1      -2.207   5.096 -34.009  1.00  0.00     0.120 A 
HETATM   11  N   UNL     1      -1.226   5.085 -33.084  1.00  0.00    -0.237 NA
HETATM   12  C   UNL     1      -1.575   4.734 -31.832  1.00  0.00     0.165 A 
HETATM   13  C   UNL     1      -2.873   4.421 -31.458  1.00  0.00     0.066 A 
BRANCH  12  14
HETATM   14  O   UNL     1      -0.632   4.721 -30.832  1.00  0.00    -0.324 OA
BRANCH  14  15
HETATM   15  C   UNL     1      -0.245   5.969 -30.226  1.00  0.00     0.058 C 
HETATM   16  C   UNL     1      -1.445   6.799 -29.747  1.00  0.00     0.045 C 
HETATM   17  C   UNL     1       0.704   6.789 -31.114  1.00  0.00     0.045 C 
HETATM   18  C   UNL     1       0.546   5.538 -28.975  1.00  0.00     0.045 C 
ENDBRANCH  14  15
ENDBRANCH  12  14
ENDBRANCH   7   8
ENDBRANCH   1   7
BRANCH   3  19
HETATM   19  C   UNL     1      -6.581   0.283 -33.879  1.00  0.00     0.095 A 
HETATM   20  C   UNL     1      -7.035  -0.962 -34.613  1.00  0.00     0.043 A 
HETATM   21  C   UNL     1      -7.748  -0.509 -33.360  1.00  0.00     0.037 A 
BRANCH  20  22
HETATM   22  C   UNL     1      -6.243  -2.249 -34.550  1.00  0.00    -0.052 A 
HETATM   23  C   UNL     1      -6.839  -3.477 -34.890  1.00  0.00     0.007 A 
HETATM   24  C   UNL     1      -6.127  -4.678 -34.830  1.00  0.00     0.001 A 
HETATM   25  C   UNL     1      -4.793  -4.675 -34.435  1.00  0.00     0.000 A 
HETATM   26  C   UNL     1      -4.173  -3.472 -34.112  1.00  0.00     0.001 A 
HETATM   27  C   UNL     1      -4.890  -2.273 -34.174  1.00  0.00     0.007 A 
ENDBRANCH  20  22
ENDBRANCH   3  19
TORSDOF 6
ENDMDL
MODEL 2
REMARK VINA RESULT:      -8.6      1.125      1.634
REMARK  6 active torsions:
REMARK  status: ('A' for Active; 'I' for Inactive)
REMARK    1  A    between atoms: C_2  and  O_3 
REMARK    2  A    between atoms: O_3  and  C_4 
REMARK    3  A    between atoms: C_8  and  C_9 
REMARK    4  A    between atoms: C_9  and  N_10 
REMARK       I    between atoms: N_10  and  C_11 
REMARK       I    between atoms: C_11  and  N_12 
REMARK    5  A    between atoms: N_12  and  C_13 
REMARK    6  A    between atoms: C_14  and  C_15 
ROOT
HETATM    1  N   UNL     1      -5.881   3.604 -34.033  1.00  0.00    -0.339 N 
HETATM    2  C   UNL     1      -7.202   3.275 -33.959  1.00  0.00     0.316 C 
HETATM    3  N   UNL     1      -7.490   1.949 -33.856  1.00  0.00    -0.338 N 
HETATM    4  O   UNL     1      -8.112   4.099 -33.991  1.00  0.00    -0.247 OA
HETATM    5  H   UNL     1      -5.237   2.938 -33.640  1.00  0.00     0.164 HD
HETATM    6  H   UNL     1      -8.487   1.773 -33.809  1.00  0.00     0.164 HD
ENDROOT
BRANCH   1   7
HETATM    7  C   UNL     1      -5.514   4.999 -34.004  1.00  0.00     0.163 C 
BRANCH   7   8
HETATM    8  C   UNL     1      -4.031   5.209 -33.898  1.00  0.00    -0.035 A 
HETATM    9  C   UNL     1      -3.230   5.232 -35.042  1.00  0.00     0.028 A 
HETATM   10  C   UNL     1      -1.857   5.350 -34.891  1.00  0.00     0.120 A 
HETATM   11  N   UNL     1      -1.238   5.437 -33.696  1.00  0.00    -0.237 NA
HETATM   12  C   UNL     1      -2.020   5.399 -32.602  1.00  0.00     0.165 A 
HETATM   13  C   UNL     1      -3.403   5.310 -32.651  1.00  0.00     0.066 A 
BRANCH  12  14
HETATM   14  O   UNL     1      -1.460   5.502 -31.351  1.00  0.00    -0.324 OA
BRANCH  14  15
HETATM   15  C   UNL     1      -0.921   6.772 -30.934  1.00  0.00     0.058 C 
HETATM   16  C   UNL     1      -1.602   7.965 -31.620  1.00  0.00     0.045 C 
HETATM   17  C   UNL     1       0.609   6.834 -31.056  1.00  0.00     0.045 C 
HETATM   18  C   UNL     1      -1.271   6.842 -29.434  1.00  0.00     0.045 C 
ENDBRANCH  14  15
ENDBRANCH  12  14
ENDBRANCH   7   8
ENDBRANCH   1   7
BRANCH   3  19
HETATM   19  C   UNL     1      -6.603   0.832 -33.829  1.00  0.00     0.095 A 
HETATM   20  C   UNL     1      -7.016  -0.530 -33.312  1.00  0.00     0.043 A 
HETATM   21  C   UNL     1      -6.116   0.361 -32.489  1.00  0.00     0.037 A 
BRANCH  20  22
HETATM   22  C   UNL     1      -6.424  -1.802 -33.879  1.00  0.00    -0.052 A 
HETATM   23  C   UNL     1      -5.032  -2.007 -33.883  1.00  0.00     0.007 A 
HETATM   24  C   UNL     1      -4.466  -3.170 -34.410  1.00  0.00     0.001 A 
HETATM   25  C   UNL     1      -5.284  -4.164 -34.938  1.00  0.00     0.000 A 
HETATM   26  C   UNL     1      -6.666  -3.995 -34.929  1.00  0.00     0.001 A 
HETATM   27  C   UNL     1      -7.227  -2.829 -34.401  1.00  0.00     0.007 A 
ENDBRANCH  20  22
ENDBRANCH   3  19
TORSDOF 6
ENDMDL
MODEL 3
REMARK VINA RESULT:      -8.4      4.777      8.576
REMARK  6 active torsions:
REMARK  status: ('A' for Active; 'I' for Inactive)
REMARK    1  A    between atoms: C_2  and  O_3 
REMARK    2  A    between atoms: O_3  and  C_4 
REMARK    3  A    between atoms: C_8  and  C_9 
REMARK    4  A    between atoms: C_9  and  N_10 
REMARK       I    between atoms: N_10  and  C_11 
REMARK       I    between atoms: C_11  and  N_12 
REMARK    5  A    between atoms: N_12  and  C_13 
REMARK    6  A    between atoms: C_14  and  C_15 
ROOT
HETATM    1  N   UNL     1      -8.745   1.914 -32.463  1.00  0.00    -0.339 N 
HETATM    2  C   UNL     1      -7.470   2.332 -32.704  1.00  0.00     0.316 C 
HETATM    3  N   UNL     1      -6.616   1.406 -33.218  1.00  0.00    -0.338 N 
HETATM    4  O   UNL     1      -7.072   3.471 -32.473  1.00  0.00    -0.247 OA
HETATM    5  H   UNL     1      -9.062   1.126 -33.004  1.00  0.00     0.164 HD
HETATM    6  H   UNL     1      -5.686   1.779 -33.369  1.00  0.00     0.164 HD
ENDROOT
BRANCH   1   7
HETATM    7  C   UNL     1      -9.725   2.888 -32.050  1.00  0.00     0.163 C 
BRANCH   7   8
HETATM    8  C   UNL     1     -10.743   3.179 -33.115  1.00  0.00    -0.035 A 
HETATM    9  C   UNL     1     -10.899   4.473 -33.619  1.00  0.00     0.028 A 
HETATM   10  C   UNL     1     -11.904   4.710 -34.544  1.00  0.00     0.120 A 
HETATM   11  N   UNL     1     -12.756   3.763 -34.987  1.00  0.00    -0.237 NA
HETATM   12  C   UNL     1     -12.603   2.525 -34.483  1.00  0.00     0.165 A 
HETATM   13  C   UNL     1     -11.612   2.183 -33.574  1.00  0.00     0.066 A 
BRANCH  12  14
HETATM   14  O   UNL     1     -13.423   1.504 -34.903  1.00  0.00    -0.324 OA
BRANCH  14  15
HETATM   15  C   UNL     1     -14.246   0.830 -33.932  1.00  0.00     0.058 C 
HETATM   16  C   UNL     1     -14.582   1.708 -32.718  1.00  0.00     0.045 C 
HETATM   17  C   UNL     1     -13.671  -0.533 -33.514  1.00  0.00     0.045 C 
HETATM   18  C   UNL     1     -15.563   0.566 -34.689  1.00  0.00     0.045 C 
ENDBRANCH  14  15
ENDBRANCH  12  14
ENDBRANCH   7   8
ENDBRANCH   1   7
BRANCH   3  19
HETATM   19  C   UNL     1      -6.856   0.035 -33.534  1.00  0.00     0.095 A 
HETATM   20  C   UNL     1      -6.160  -0.677 -34.676  1.00  0.00     0.043 A 
HETATM   21  C   UNL     1      -7.610  -0.269 -34.797  1.00  0.00     0.037 A 
BRANCH  20  22
HETATM   22  C   UNL     1      -5.846  -2.155 -34.609  1.00  0.00    -0.052 A 
HETATM   23  C   UNL     1      -4.558  -2.601 -34.257  1.00  0.00     0.007 A 
HETATM   24  C   UNL     1      -4.245  -3.961 -34.199  1.00  0.00     0.001 A 
HETATM   25  C   UNL     1      -5.220  -4.911 -34.483  1.00  0.00     0.000 A 
HETATM   26  C   UNL     1      -6.508  -4.498 -34.816  1.00  0.00     0.001 A 
HETATM   27  C   UNL     1      -6.815  -3.136 -34.872  1.00  0.00     0.007 A 
ENDBRANCH  20  22
ENDBRANCH   3  19
TORSDOF 6
ENDMDL
MODEL 4
REMARK VINA RESULT:      -8.1      2.245      3.003
REMARK  6 active torsions:
REMARK  status: ('A' for Active; 'I' for Inactive)
REMARK    1  A    between atoms: C_2  and  O_3 
REMARK    2  A    between atoms: O_3  and  C_4 
REMARK    3  A    between atoms: C_8  and  C_9 
REMARK    4  A    between atoms: C_9  and  N_10 
REMARK       I    between atoms: N_10  and  C_11 
REMARK       I    between atoms: C_11  and  N_12 
REMARK    5  A    between atoms: N_12  and  C_13 
REMARK    6  A    between atoms: C_14  and  C_15 
ROOT
HETATM    1  N   UNL     1      -7.404   2.929 -31.124  1.00  0.00    -0.339 N 
HETATM    2  C   UNL     1      -8.726   2.857 -30.799  1.00  0.00     0.316 C 
HETATM    3  N   UNL     1      -9.354   1.681 -31.072  1.00  0.00    -0.338 N 
HETATM    4  O   UNL     1      -9.354   3.784 -30.294  1.00  0.00    -0.247 OA
HETATM    5  H   UNL     1      -6.913   2.051 -31.176  1.00  0.00     0.164 HD
HETATM    6  H   UNL     1     -10.333   1.695 -30.810  1.00  0.00     0.164 HD
ENDROOT
BRANCH   1   7
HETATM    7  C   UNL     1      -6.659   4.099 -30.731  1.00  0.00     0.163 C 
BRANCH   7   8
HETATM    8  C   UNL     1      -5.889   4.709 -31.867  1.00  0.00    -0.035 A 
HETATM    9  C   UNL     1      -6.195   4.385 -33.191  1.00  0.00     0.028 A 
HETATM   10  C   UNL     1      -5.408   4.910 -34.203  1.00  0.00     0.120 A 
HETATM   11  N   UNL     1      -4.347   5.715 -33.989  1.00  0.00    -0.237 NA
HETATM   12  C   UNL     1      -4.055   6.008 -32.709  1.00  0.00     0.165 A 
HETATM   13  C   UNL     1      -4.798   5.553 -31.630  1.00  0.00     0.066 A 
BRANCH  12  14
HETATM   14  O   UNL     1      -3.000   6.839 -32.416  1.00  0.00    -0.324 OA
BRANCH  14  15
HETATM   15  C   UNL     1      -1.658   6.350 -32.605  1.00  0.00     0.058 C 
HETATM   16  C   UNL     1      -1.129   6.587 -34.027  1.00  0.00     0.045 C 
HETATM   17  C   UNL     1      -1.495   4.886 -32.167  1.00  0.00     0.045 C 
HETATM   18  C   UNL     1      -0.814   7.217 -31.650  1.00  0.00     0.045 C 
ENDBRANCH  14  15
ENDBRANCH  12  14
ENDBRANCH   7   8
ENDBRANCH   1   7
BRANCH   3  19
HETATM   19  C   UNL     1      -8.830   0.497 -31.673  1.00  0.00     0.095 A 
HETATM   20  C   UNL     1      -8.256   0.475 -33.075  1.00  0.00     0.043 A 
HETATM   21  C   UNL     1      -9.616  -0.121 -32.795  1.00  0.00     0.037 A 
BRANCH  20  22
HETATM   22  C   UNL     1      -7.136  -0.468 -33.453  1.00  0.00    -0.052 A 
HETATM   23  C   UNL     1      -7.397  -1.630 -34.203  1.00  0.00     0.007 A 
HETATM   24  C   UNL     1      -6.378  -2.519 -34.555  1.00  0.00     0.001 A 
HETATM   25  C   UNL     1      -5.067  -2.258 -34.172  1.00  0.00     0.000 A 
HETATM   26  C   UNL     1      -4.777  -1.106 -33.447  1.00  0.00     0.001 A 
HETATM   27  C   UNL     1      -5.801  -0.220 -33.097  1.00  0.00     0.007 A 
ENDBRANCH  20  22
ENDBRANCH   3  19
TORSDOF 6
ENDMDL
MODEL 5
REMARK VINA RESULT:      -8.1      2.095      2.834
REMARK  6 active torsions:
REMARK  status: ('A' for Active; 'I' for Inactive)
REMARK    1  A    between atoms: C_2  and  O_3 
REMARK    2  A    between atoms: O_3  and  C_4 
REMARK    3  A    between atoms: C_8  and  C_9 
REMARK    4  A    between atoms: C_9  and  N_10 
REMARK       I    between atoms: N_10  and  C_11 
REMARK       I    between atoms: C_11  and  N_12 
REMARK    5  A    between atoms: N_12  and  C_13 
REMARK    6  A    between atoms: C_14  and  C_15 
ROOT
HETATM    1  N   UNL     1      -4.877   3.726 -33.590  1.00  0.00    -0.339 N 
HETATM    2  C   UNL     1      -5.136   3.563 -32.262  1.00  0.00     0.316 C 
HETATM    3  N   UNL     1      -4.985   2.305 -31.766  1.00  0.00    -0.338 N 
HETATM    4  O   UNL     1      -5.498   4.473 -31.522  1.00  0.00    -0.247 OA
HETATM    5  H   UNL     1      -4.258   3.050 -34.007  1.00  0.00     0.164 HD
HETATM    6  H   UNL     1      -5.196   2.251 -30.776  1.00  0.00     0.164 HD
ENDROOT
BRANCH   1   7
HETATM    7  C   UNL     1      -4.888   5.061 -34.136  1.00  0.00     0.163 C 
BRANCH   7   8
HETATM    8  C   UNL     1      -3.541   5.724 -34.080  1.00  0.00    -0.035 A 
HETATM    9  C   UNL     1      -2.437   5.151 -34.716  1.00  0.00     0.028 A 
HETATM   10  C   UNL     1      -1.198   5.756 -34.572  1.00  0.00     0.120 A 
HETATM   11  N   UNL     1      -0.987   6.870 -33.842  1.00  0.00    -0.237 NA
HETATM   12  C   UNL     1      -2.056   7.404 -33.224  1.00  0.00     0.165 A 
HETATM   13  C   UNL     1      -3.339   6.887 -33.329  1.00  0.00     0.066 A 
BRANCH  12  14
HETATM   14  O   UNL     1      -1.920   8.551 -32.479  1.00  0.00    -0.324 OA
BRANCH  14  15
HETATM   15  C   UNL     1      -2.205   8.500 -31.068  1.00  0.00     0.058 C 
HETATM   16  C   UNL     1      -1.107   7.792 -30.260  1.00  0.00     0.045 C 
HETATM   17  C   UNL     1      -3.600   7.929 -30.767  1.00  0.00     0.045 C 
HETATM   18  C   UNL     1      -2.208   9.982 -30.642  1.00  0.00     0.045 C 
ENDBRANCH  14  15
ENDBRANCH  12  14
ENDBRANCH   7   8
ENDBRANCH   1   7
BRANCH   3  19
HETATM   19  C   UNL     1      -4.604   1.108 -32.443  1.00  0.00     0.095 A 
HETATM   20  C   UNL     1      -5.160  -0.253 -32.077  1.00  0.00     0.043 A 
HETATM   21  C   UNL     1      -3.748   0.126 -31.696  1.00  0.00     0.037 A 
BRANCH  20  22
HETATM   22  C   UNL     1      -5.345  -1.336 -33.117  1.00  0.00    -0.052 A 
HETATM   23  C   UNL     1      -6.587  -1.517 -33.754  1.00  0.00     0.007 A 
HETATM   24  C   UNL     1      -6.781  -2.516 -34.710  1.00  0.00     0.001 A 
HETATM   25  C   UNL     1      -5.728  -3.355 -35.061  1.00  0.00     0.000 A 
HETATM   26  C   UNL     1      -4.483  -3.186 -34.461  1.00  0.00     0.001 A 
HETATM   27  C   UNL     1      -4.295  -2.184 -33.504  1.00  0.00     0.007 A 
ENDBRANCH  20  22
ENDBRANCH   3  19
TORSDOF 6
ENDMDL
MODEL 6
REMARK VINA RESULT:      -8.1      3.030      6.501
REMARK  6 active torsions:
REMARK  status: ('A' for Active; 'I' for Inactive)
REMARK    1  A    between atoms: C_2  and  O_3 
REMARK    2  A    between atoms: O_3  and  C_4 
REMARK    3  A    between atoms: C_8  and  C_9 
REMARK    4  A    between atoms: C_9  and  N_10 
REMARK       I    between atoms: N_10  and  C_11 
REMARK       I    between atoms: C_11  and  N_12 
REMARK    5  A    between atoms: N_12  and  C_13 
REMARK    6  A    between atoms: C_14  and  C_15 
ROOT
HETATM    1  N   UNL     1      -4.849   2.979 -32.761  1.00  0.00    -0.339 N 
HETATM    2  C   UNL     1      -4.021   2.863 -31.684  1.00  0.00     0.316 C 
HETATM    3  N   UNL     1      -3.377   1.673 -31.541  1.00  0.00    -0.338 N 
HETATM    4  O   UNL     1      -3.846   3.758 -30.861  1.00  0.00    -0.247 OA
HETATM    5  H   UNL     1      -4.649   2.373 -33.540  1.00  0.00     0.164 HD
HETATM    6  H   UNL     1      -2.782   1.652 -30.721  1.00  0.00     0.164 HD
ENDROOT
BRANCH   1   7
HETATM    7  C   UNL     1      -5.447   4.262 -33.037  1.00  0.00     0.163 C 
BRANCH   7   8
HETATM    8  C   UNL     1      -6.937   4.184 -33.216  1.00  0.00    -0.035 A 
HETATM    9  C   UNL     1      -7.647   5.256 -33.763  1.00  0.00     0.028 A 
HETATM   10  C   UNL     1      -9.028   5.170 -33.836  1.00  0.00     0.120 A 
HETATM   11  N   UNL     1      -9.739   4.111 -33.400  1.00  0.00    -0.237 NA
HETATM   12  C   UNL     1      -9.044   3.093 -32.861  1.00  0.00     0.165 A 
HETATM   13  C   UNL     1      -7.660   3.073 -32.769  1.00  0.00     0.066 A 
BRANCH  12  14
HETATM   14  O   UNL     1      -9.701   1.971 -32.413  1.00  0.00    -0.324 OA
BRANCH  14  15
HETATM   15  C   UNL     1     -10.119   0.981 -33.373  1.00  0.00     0.058 C 
HETATM   16  C   UNL     1      -9.183   0.892 -34.587  1.00  0.00     0.045 C 
HETATM   17  C   UNL     1     -11.589   1.147 -33.791  1.00  0.00     0.045 C 
HETATM   18  C   UNL     1     -10.002  -0.348 -32.602  1.00  0.00     0.045 C 
ENDBRANCH  14  15
ENDBRANCH  12  14
ENDBRANCH   7   8
ENDBRANCH   1   7
BRANCH   3  19
HETATM   19  C   UNL     1      -3.453   0.503 -32.354  1.00  0.00     0.095 A 
HETATM   20  C   UNL     1      -4.300  -0.698 -31.985  1.00  0.00     0.043 A 
HETATM   21  C   UNL     1      -2.796  -0.747 -31.839  1.00  0.00     0.037 A 
BRANCH  20  22
HETATM   22  C   UNL     1      -4.936  -1.570 -33.044  1.00  0.00    -0.052 A 
HETATM   23  C   UNL     1      -6.232  -1.295 -33.518  1.00  0.00     0.007 A 
HETATM   24  C   UNL     1      -6.841  -2.093 -34.490  1.00  0.00     0.001 A 
HETATM   25  C   UNL     1      -6.160  -3.184 -35.018  1.00  0.00     0.000 A 
HETATM   26  C   UNL     1      -4.869  -3.469 -34.581  1.00  0.00     0.001 A 
HETATM   27  C   UNL     1      -4.264  -2.666 -33.609  1.00  0.00     0.007 A 
ENDBRANCH  20  22
ENDBRANCH   3  19
TORSDOF 6
ENDMDL
MODEL 7
REMARK VINA RESULT:      -8.0      5.681      8.830
REMARK  6 active torsions:
REMARK  status: ('A' for Active; 'I' for Inactive)
REMARK    1  A    between atoms: C_2  and  O_3 
REMARK    2  A    between atoms: O_3  and  C_4 
REMARK    3  A    between atoms: C_8  and  C_9 
REMARK    4  A    between atoms: C_9  and  N_10 
REMARK       I    between atoms: N_10  and  C_11 
REMARK       I    between atoms: C_11  and  N_12 
REMARK    5  A    between atoms: N_12  and  C_13 
REMARK    6  A    between atoms: C_14  and  C_15 
ROOT
HETATM    1  N   UNL     1      -9.591   1.664 -34.332  1.00  0.00    -0.339 N 
HETATM    2  C   UNL     1      -8.717   1.879 -33.308  1.00  0.00     0.316 C 
HETATM    3  N   UNL     1      -7.750   0.939 -33.131  1.00  0.00    -0.338 N 
HETATM    4  O   UNL     1      -8.773   2.851 -32.559  1.00  0.00    -0.247 OA
HETATM    5  H   UNL     1      -9.259   1.079 -35.082  1.00  0.00     0.164 HD
HETATM    6  H   UNL     1      -7.137   1.157 -32.353  1.00  0.00     0.164 HD
ENDROOT
BRANCH   1   7
HETATM    7  C   UNL     1     -10.549   2.694 -34.651  1.00  0.00     0.163 C 
BRANCH   7   8
HETATM    8  C   UNL     1     -11.922   2.398 -34.121  1.00  0.00    -0.035 A 
HETATM    9  C   UNL     1     -12.749   1.471 -34.760  1.00  0.00     0.028 A 
HETATM   10  C   UNL     1     -14.036   1.287 -34.281  1.00  0.00     0.120 A 
HETATM   11  N   UNL     1     -14.551   1.960 -33.232  1.00  0.00    -0.237 NA
HETATM   12  C   UNL     1     -13.749   2.860 -32.635  1.00  0.00     0.165 A 
HETATM   13  C   UNL     1     -12.439   3.096 -33.023  1.00  0.00     0.066 A 
BRANCH  12  14
HETATM   14  O   UNL     1     -14.200   3.569 -31.547  1.00  0.00    -0.324 OA
BRANCH  14  15
HETATM   15  C   UNL     1     -14.954   4.776 -31.769  1.00  0.00     0.058 C 
HETATM   16  C   UNL     1     -16.472   4.546 -31.751  1.00  0.00     0.045 C 
HETATM   17  C   UNL     1     -14.502   5.532 -33.028  1.00  0.00     0.045 C 
HETATM   18  C   UNL     1     -14.607   5.654 -30.550  1.00  0.00     0.045 C 
ENDBRANCH  14  15
ENDBRANCH  12  14
ENDBRANCH   7   8
ENDBRANCH   1   7
BRANCH   3  19
HETATM   19  C   UNL     1      -7.519  -0.267 -33.858  1.00  0.00     0.095 A 
HETATM   20  C   UNL     1      -6.133  -0.729 -34.261  1.00  0.00     0.043 A 
HETATM   21  C   UNL     1      -7.075  -0.144 -35.288  1.00  0.00     0.037 A 
BRANCH  20  22
HETATM   22  C   UNL     1      -5.792  -2.198 -34.369  1.00  0.00    -0.052 A 
HETATM   23  C   UNL     1      -6.761  -3.132 -34.780  1.00  0.00     0.007 A 
HETATM   24  C   UNL     1      -6.469  -4.495 -34.878  1.00  0.00     0.001 A 
HETATM   25  C   UNL     1      -5.191  -4.954 -34.576  1.00  0.00     0.000 A 
HETATM   26  C   UNL     1      -4.208  -4.050 -34.187  1.00  0.00     0.001 A 
HETATM   27  C   UNL     1      -4.506  -2.687 -34.090  1.00  0.00     0.007 A 
ENDBRANCH  20  22
ENDBRANCH   3  19
TORSDOF 6
ENDMDL
MODEL 8
REMARK VINA RESULT:      -8.0      1.504      2.113
REMARK  6 active torsions:
REMARK  status: ('A' for Active; 'I' for Inactive)
REMARK    1  A    between atoms: C_2  and  O_3 
REMARK    2  A    between atoms: O_3  and  C_4 
REMARK    3  A    between atoms: C_8  and  C_9 
REMARK    4  A    between atoms: C_9  and  N_10 
REMARK       I    between atoms: N_10  and  C_11 
REMARK       I    between atoms: C_11  and  N_12 
REMARK    5  A    between atoms: N_12  and  C_13 
REMARK    6  A    between atoms: C_14  and  C_15 
ROOT
HETATM    1  N   UNL     1      -6.405   4.209 -33.337  1.00  0.00    -0.339 N 
HETATM    2  C   UNL     1      -7.646   3.984 -33.855  1.00  0.00     0.316 C 
HETATM    3  N   UNL     1      -8.069   2.691 -33.873  1.00  0.00    -0.338 N 
HETATM    4  O   UNL     1      -8.368   4.872 -34.300  1.00  0.00    -0.247 OA
HETATM    5  H   UNL     1      -6.064   3.518 -32.689  1.00  0.00     0.164 HD
HETATM    6  H   UNL     1      -8.995   2.593 -34.273  1.00  0.00     0.164 HD
ENDROOT
BRANCH   1   7
HETATM    7  C   UNL     1      -5.964   5.572 -33.167  1.00  0.00     0.163 C 
BRANCH   7   8
HETATM    8  C   UNL     1      -4.521   5.768 -33.536  1.00  0.00    -0.035 A 
HETATM    9  C   UNL     1      -3.994   5.182 -34.689  1.00  0.00     0.028 A 
HETATM   10  C   UNL     1      -2.640   5.325 -34.948  1.00  0.00     0.120 A 
HETATM   11  N   UNL     1      -1.787   5.992 -34.144  1.00  0.00    -0.237 NA
HETATM   12  C   UNL     1      -2.306   6.539 -33.029  1.00  0.00     0.165 A 
HETATM   13  C   UNL     1      -3.651   6.473 -32.697  1.00  0.00     0.066 A 
BRANCH  12  14
HETATM   14  O   UNL     1      -1.500   7.250 -32.172  1.00  0.00    -0.324 OA
BRANCH  14  15
HETATM   15  C   UNL     1      -0.823   6.548 -31.111  1.00  0.00     0.058 C 
HETATM   16  C   UNL     1       0.692   6.793 -31.102  1.00  0.00     0.045 C 
HETATM   17  C   UNL     1      -1.165   5.050 -31.083  1.00  0.00     0.045 C 
HETATM   18  C   UNL     1      -1.400   7.180 -29.829  1.00  0.00     0.045 C 
ENDBRANCH  14  15
ENDBRANCH  12  14
ENDBRANCH   7   8
ENDBRANCH   1   7
BRANCH   3  19
HETATM   19  C   UNL     1      -7.390   1.513 -33.438  1.00  0.00     0.095 A 
HETATM   20  C   UNL     1      -7.693   0.139 -33.998  1.00  0.00     0.043 A 
HETATM   21  C   UNL     1      -8.167   0.525 -32.616  1.00  0.00     0.037 A 
BRANCH  20  22
HETATM   22  C   UNL     1      -6.621  -0.923 -34.107  1.00  0.00    -0.052 A 
HETATM   23  C   UNL     1      -5.328  -0.692 -33.601  1.00  0.00     0.007 A 
HETATM   24  C   UNL     1      -4.322  -1.656 -33.700  1.00  0.00     0.001 A 
HETATM   25  C   UNL     1      -4.590  -2.881 -34.301  1.00  0.00     0.000 A 
HETATM   26  C   UNL     1      -5.866  -3.143 -34.792  1.00  0.00     0.001 A 
HETATM   27  C   UNL     1      -6.870  -2.175 -34.691  1.00  0.00     0.007 A 
ENDBRANCH  20  22
ENDBRANCH   3  19
TORSDOF 6
ENDMDL
MODEL 9
REMARK VINA RESULT:      -7.9      4.029      7.019
REMARK  6 active torsions:
REMARK  status: ('A' for Active; 'I' for Inactive)
REMARK    1  A    between atoms: C_2  and  O_3 
REMARK    2  A    between atoms: O_3  and  C_4 
REMARK    3  A    between atoms: C_8  and  C_9 
REMARK    4  A    between atoms: C_9  and  N_10 
REMARK       I    between atoms: N_10  and  C_11 
REMARK       I    between atoms: C_11  and  N_12 
REMARK    5  A    between atoms: N_12  and  C_13 
REMARK    6  A    between atoms: C_14  and  C_15 
ROOT
HETATM    1  N   UNL     1      -7.063   1.897 -30.972  1.00  0.00    -0.339 N 
HETATM    2  C   UNL     1      -6.060   2.297 -31.804  1.00  0.00     0.316 C 
HETATM    3  N   UNL     1      -5.633   1.385 -32.719  1.00  0.00    -0.338 N 
HETATM    4  O   UNL     1      -5.538   3.408 -31.757  1.00  0.00    -0.247 OA
HETATM    5  H   UNL     1      -7.651   1.155 -31.313  1.00  0.00     0.164 HD
HETATM    6  H   UNL     1      -4.885   1.743 -33.302  1.00  0.00     0.164 HD
ENDROOT
BRANCH   1   7
HETATM    7  C   UNL     1      -7.648   2.868 -30.080  1.00  0.00     0.163 C 
BRANCH   7   8
HETATM    8  C   UNL     1      -8.795   3.614 -30.700  1.00  0.00    -0.035 A 
HETATM    9  C   UNL     1      -8.986   4.973 -30.438  1.00  0.00     0.028 A 
HETATM   10  C   UNL     1     -10.101   5.601 -30.969  1.00  0.00     0.120 A 
HETATM   11  N   UNL     1     -11.029   4.976 -31.723  1.00  0.00    -0.237 NA
HETATM   12  C   UNL     1     -10.839   3.664 -31.955  1.00  0.00     0.165 A 
HETATM   13  C   UNL     1      -9.743   2.954 -31.490  1.00  0.00     0.066 A 
BRANCH  12  14
HETATM   14  O   UNL     1     -11.734   2.966 -32.731  1.00  0.00    -0.324 OA
BRANCH  14  15
HETATM   15  C   UNL     1     -11.597   3.019 -34.164  1.00  0.00     0.058 C 
HETATM   16  C   UNL     1     -11.825   1.658 -34.838  1.00  0.00     0.045 C 
HETATM   17  C   UNL     1     -10.277   3.668 -34.609  1.00  0.00     0.045 C 
HETATM   18  C   UNL     1     -12.744   3.950 -34.607  1.00  0.00     0.045 C 
ENDBRANCH  14  15
ENDBRANCH  12  14
ENDBRANCH   7   8
ENDBRANCH   1   7
BRANCH   3  19
HETATM   19  C   UNL     1      -6.073   0.044 -32.930  1.00  0.00     0.095 A 
HETATM   20  C   UNL     1      -5.997  -0.641 -34.278  1.00  0.00     0.043 A 
HETATM   21  C   UNL     1      -7.323  -0.160 -33.737  1.00  0.00     0.037 A 
BRANCH  20  22
HETATM   22  C   UNL     1      -5.781  -2.134 -34.394  1.00  0.00    -0.052 A 
HETATM   23  C   UNL     1      -4.521  -2.700 -34.123  1.00  0.00     0.007 A 
HETATM   24  C   UNL     1      -4.298  -4.075 -34.233  1.00  0.00     0.001 A 
HETATM   25  C   UNL     1      -5.337  -4.919 -34.608  1.00  0.00     0.000 A 
HETATM   26  C   UNL     1      -6.599  -4.388 -34.864  1.00  0.00     0.001 A 
HETATM   27  C   UNL     1      -6.816  -3.011 -34.753  1.00  0.00     0.007 A 
ENDBRANCH  20  22
ENDBRANCH   3  19
TORSDOF 6
ENDMDL
MODEL 10
REMARK VINA RESULT:      -7.8      1.611      2.089
REMARK  6 active torsions:
REMARK  status: ('A' for Active; 'I' for Inactive)
REMARK    1  A    between atoms: C_2  and  O_3 
REMARK    2  A    between atoms: O_3  and  C_4 
REMARK    3  A    between atoms: C_8  and  C_9 
REMARK    4  A    between atoms: C_9  and  N_10 
REMARK       I    between atoms: N_10  and  C_11 
REMARK       I    between atoms: C_11  and  N_12 
REMARK    5  A    between atoms: N_12  and  C_13 
REMARK    6  A    between atoms: C_14  and  C_15 
ROOT
HETATM    1  N   UNL     1      -6.864   3.224 -33.145  1.00  0.00    -0.339 N 
HETATM    2  C   UNL     1      -8.106   3.337 -33.696  1.00  0.00     0.316 C 
HETATM    3  N   UNL     1      -8.686   2.182 -34.121  1.00  0.00    -0.338 N 
HETATM    4  O   UNL     1      -8.697   4.405 -33.828  1.00  0.00    -0.247 OA
HETATM    5  H   UNL     1      -6.633   2.325 -32.755  1.00  0.00     0.164 HD
HETATM    6  H   UNL     1      -9.604   2.335 -34.522  1.00  0.00     0.164 HD
ENDROOT
BRANCH   1   7
HETATM    7  C   UNL     1      -6.262   4.394 -32.554  1.00  0.00     0.163 C 
BRANCH   7   8
HETATM    8  C   UNL     1      -4.824   4.181 -32.174  1.00  0.00    -0.035 A 
HETATM    9  C   UNL     1      -4.281   2.894 -32.131  1.00  0.00     0.028 A 
HETATM   10  C   UNL     1      -2.973   2.738 -31.700  1.00  0.00     0.120 A 
HETATM   11  N   UNL     1      -2.186   3.760 -31.306  1.00  0.00    -0.237 NA
HETATM   12  C   UNL     1      -2.726   4.991 -31.338  1.00  0.00     0.165 A 
HETATM   13  C   UNL     1      -4.015   5.252 -31.779  1.00  0.00     0.066 A 
BRANCH  12  14
HETATM   14  O   UNL     1      -1.975   6.083 -30.970  1.00  0.00    -0.324 OA
BRANCH  14  15
HETATM   15  C   UNL     1      -1.244   6.797 -31.985  1.00  0.00     0.058 C 
HETATM   16  C   UNL     1      -1.748   8.233 -32.187  1.00  0.00     0.045 C 
HETATM   17  C   UNL     1      -1.164   6.023 -33.311  1.00  0.00     0.045 C 
HETATM   18  C   UNL     1       0.184   6.887 -31.412  1.00  0.00     0.045 C 
ENDBRANCH  14  15
ENDBRANCH  12  14
ENDBRANCH   7   8
ENDBRANCH   1   7
BRANCH   3  19
HETATM   19  C   UNL     1      -8.174   0.850 -34.090  1.00  0.00     0.095 A 
HETATM   20  C   UNL     1      -7.000   0.403 -34.937  1.00  0.00     0.043 A 
HETATM   21  C   UNL     1      -8.407  -0.014 -35.297  1.00  0.00     0.037 A 
BRANCH  20  22
HETATM   22  C   UNL     1      -6.045  -0.668 -34.459  1.00  0.00    -0.052 A 
HETATM   23  C   UNL     1      -6.175  -1.997 -34.904  1.00  0.00     0.007 A 
HETATM   24  C   UNL     1      -5.310  -3.003 -34.468  1.00  0.00     0.001 A 
HETATM   25  C   UNL     1      -4.283  -2.699 -33.580  1.00  0.00     0.000 A 
HETATM   26  C   UNL     1      -4.119  -1.389 -33.139  1.00  0.00     0.001 A 
HETATM   27  C   UNL     1      -4.989  -0.386 -33.578  1.00  0.00     0.007 A 
ENDBRANCH  20  22
ENDBRANCH   3  19
TORSDOF 6
ENDMDL
