MODEL 1
REMARK VINA RESULT:      -8.7      0.000      0.000
REMARK  5 active torsions:
REMARK  status: ('A' for Active; 'I' for Inactive)
REMARK    1  A    between atoms: C_2  and  O_3 
REMARK    2  A    between atoms: O_3  and  C_4 
REMARK    3  A    between atoms: C_5  and  N_6 
REMARK       I    between atoms: N_6  and  C_7 
REMARK    4  A    between atoms: C_7  and  C_8 
REMARK    5  A    between atoms: C_9  and  C_10 
ROOT
HETATM    1  N   UNL     1      -3.796   3.152 -32.661  1.00  0.00    -0.321 N 
HETATM    2  C   UNL     1      -4.782   2.621 -31.856  1.00  0.00     0.245 C 
HETATM    3  O   UNL     1      -5.334   3.137 -30.895  1.00  0.00    -0.268 OA
HETATM    4  H   UNL     1      -3.671   2.714 -33.564  1.00  0.00     0.169 HD
ENDROOT
BRANCH   1   5
HETATM    5  C   UNL     1      -3.050   4.339 -32.463  1.00  0.00     0.071 A 
HETATM    6  C   UNL     1      -3.329   5.599 -33.041  1.00  0.00     0.096 A 
HETATM    7  C   UNL     1      -2.496   6.707 -32.812  1.00  0.00     0.049 A 
HETATM    8  C   UNL     1      -1.444   6.565 -31.930  1.00  0.00    -0.020 A 
HETATM    9  C   UNL     1      -1.206   5.354 -31.309  1.00  0.00     0.078 A 
HETATM   10  C   UNL     1      -0.412   7.543 -31.519  1.00  0.00     0.073 C 
HETATM   11  C   UNL     1      -1.980   4.237 -31.558  1.00  0.00     0.069 A 
HETATM   12  O   UNL     1      -0.141   5.375 -30.447  1.00  0.00    -0.345 OA
HETATM   13  C   UNL     1       0.193   6.784 -30.326  1.00  0.00     0.129 C 
HETATM   14  C   UNL     1      -0.324   7.291 -28.981  1.00  0.00     0.040 C 
BRANCH   6  15
HETATM   15  O   UNL     1      -4.435   5.796 -33.822  1.00  0.00    -0.349 OA
BRANCH  15  16
HETATM   16  C   UNL     1      -5.600   6.105 -33.049  1.00  0.00     0.171 C 
HETATM   17  C   UNL     1      -6.762   5.267 -33.550  1.00  0.00     0.034 C 
ENDBRANCH  15  16
ENDBRANCH   6  15
ENDBRANCH   1   5
BRANCH   2  18
HETATM   18  C   UNL     1      -5.209   1.277 -32.338  1.00  0.00     0.077 C 
HETATM   19  C   UNL     1      -4.326   0.489 -32.968  1.00  0.00     0.043 C 
BRANCH  19  20
HETATM   20  C   UNL     1      -4.714  -0.784 -33.467  1.00  0.00     0.077 A 
HETATM   21  O   UNL     1      -3.927  -1.916 -33.395  1.00  0.00    -0.310 OA
HETATM   22  C   UNL     1      -4.607  -2.948 -33.956  1.00  0.00     0.086 A 
HETATM   23  C   UNL     1      -5.846  -2.522 -34.403  1.00  0.00     0.000 A 
HETATM   24  C   UNL     1      -4.142  -4.256 -34.071  1.00  0.00     0.038 A 
HETATM   25  C   UNL     1      -5.904  -1.140 -34.093  1.00  0.00     0.051 A 
HETATM   26  C   UNL     1      -6.703  -3.457 -35.011  1.00  0.00     0.014 A 
HETATM   27  C   UNL     1      -6.265  -4.783 -35.140  1.00  0.00     0.001 A 
HETATM   28  C   UNL     1      -5.006  -5.174 -34.679  1.00  0.00     0.003 A 
ENDBRANCH  19  20
ENDBRANCH   2  18
TORSDOF 5
ENDMDL
MODEL 2
REMARK VINA RESULT:      -8.6      1.707      2.511
REMARK  5 active torsions:
REMARK  status: ('A' for Active; 'I' for Inactive)
REMARK    1  A    between atoms: C_2  and  O_3 
REMARK    2  A    between atoms: O_3  and  C_4 
REMARK    3  A    between atoms: C_5  and  N_6 
REMARK       I    between atoms: N_6  and  C_7 
REMARK    4  A    between atoms: C_7  and  C_8 
REMARK    5  A    between atoms: C_9  and  C_10 
ROOT
HETATM    1  N   UNL     1      -2.173   4.140 -31.832  1.00  0.00    -0.321 N 
HETATM    2  C   UNL     1      -3.449   3.671 -31.600  1.00  0.00     0.245 C 
HETATM    3  O   UNL     1      -4.329   4.175 -30.918  1.00  0.00    -0.268 OA
HETATM    4  H   UNL     1      -1.694   3.759 -32.636  1.00  0.00     0.169 HD
ENDROOT
BRANCH   1   5
HETATM    5  C   UNL     1      -1.507   5.214 -31.192  1.00  0.00     0.071 A 
HETATM    6  C   UNL     1      -1.660   6.585 -31.500  1.00  0.00     0.096 A 
HETATM    7  C   UNL     1      -0.915   7.571 -30.831  1.00  0.00     0.049 A 
HETATM    8  C   UNL     1      -0.093   7.180 -29.793  1.00  0.00    -0.020 A 
HETATM    9  C   UNL     1       0.008   5.848 -29.441  1.00  0.00     0.078 A 
HETATM   10  C   UNL     1       0.804   7.988 -28.937  1.00  0.00     0.073 C 
HETATM   11  C   UNL     1      -0.674   4.856 -30.118  1.00  0.00     0.069 A 
HETATM   12  O   UNL     1       0.845   5.619 -28.380  1.00  0.00    -0.345 OA
HETATM   13  C   UNL     1       1.126   6.944 -27.854  1.00  0.00     0.129 C 
HETATM   14  C   UNL     1       0.305   7.144 -26.581  1.00  0.00     0.040 C 
BRANCH   6  15
HETATM   15  O   UNL     1      -2.557   7.009 -32.442  1.00  0.00    -0.349 OA
BRANCH  15  16
HETATM   16  C   UNL     1      -1.960   7.161 -33.734  1.00  0.00     0.171 C 
HETATM   17  C   UNL     1      -2.403   6.012 -34.622  1.00  0.00     0.034 C 
ENDBRANCH  15  16
ENDBRANCH   6  15
ENDBRANCH   1   5
BRANCH   2  18
HETATM   18  C   UNL     1      -3.715   2.426 -32.375  1.00  0.00     0.077 C 
HETATM   19  C   UNL     1      -4.622   1.547 -31.923  1.00  0.00     0.043 C 
BRANCH  19  20
HETATM   20  C   UNL     1      -4.873   0.336 -32.624  1.00  0.00     0.077 A 
HETATM   21  O   UNL     1      -6.130  -0.099 -32.991  1.00  0.00    -0.310 OA
HETATM   22  C   UNL     1      -6.002  -1.279 -33.648  1.00  0.00     0.086 A 
HETATM   23  C   UNL     1      -4.668  -1.642 -33.729  1.00  0.00     0.000 A 
HETATM   24  C   UNL     1      -7.050  -2.031 -34.174  1.00  0.00     0.038 A 
HETATM   25  C   UNL     1      -3.956  -0.609 -33.070  1.00  0.00     0.051 A 
HETATM   26  C   UNL     1      -4.333  -2.840 -34.385  1.00  0.00     0.014 A 
HETATM   27  C   UNL     1      -5.365  -3.618 -34.929  1.00  0.00     0.001 A 
HETATM   28  C   UNL     1      -6.700  -3.220 -34.823  1.00  0.00     0.003 A 
ENDBRANCH  19  20
ENDBRANCH   2  18
TORSDOF 5
ENDMDL
MODEL 3
REMARK VINA RESULT:      -8.3      2.181      2.560
REMARK  5 active torsions:
REMARK  status: ('A' for Active; 'I' for Inactive)
REMARK    1  A    between atoms: C_2  and  O_3 
REMARK    2  A    between atoms: O_3  and  C_4 
REMARK    3  A    between atoms: C_5  and  N_6 
REMARK       I    between atoms: N_6  and  C_7 
REMARK    4  A    between atoms: C_7  and  C_8 
REMARK    5  A    between atoms: C_9  and  C_10 
ROOT
HETATM    1  N   UNL     1      -4.176   4.385 -31.871  1.00  0.00    -0.321 N 
HETATM    2  C   UNL     1      -3.457   3.212 -31.776  1.00  0.00     0.245 C 
HETATM    3  O   UNL     1      -2.375   3.029 -31.238  1.00  0.00    -0.268 OA
HETATM    4  H   UNL     1      -5.159   4.291 -32.086  1.00  0.00     0.169 HD
ENDROOT
BRANCH   1   5
HETATM    5  C   UNL     1      -3.759   5.696 -31.539  1.00  0.00     0.071 A 
HETATM    6  C   UNL     1      -3.347   6.691 -32.455  1.00  0.00     0.096 A 
HETATM    7  C   UNL     1      -2.908   7.952 -32.015  1.00  0.00     0.049 A 
HETATM    8  C   UNL     1      -2.976   8.235 -30.665  1.00  0.00    -0.020 A 
HETATM    9  C   UNL     1      -3.442   7.290 -29.772  1.00  0.00     0.078 A 
HETATM   10  C   UNL     1      -2.573   9.454 -29.930  1.00  0.00     0.073 C 
HETATM   11  C   UNL     1      -3.830   6.027 -30.175  1.00  0.00     0.069 A 
HETATM   12  O   UNL     1      -3.471   7.725 -28.473  1.00  0.00    -0.345 OA
HETATM   13  C   UNL     1      -3.220   9.153 -28.568  1.00  0.00     0.129 C 
HETATM   14  C   UNL     1      -4.542   9.891 -28.368  1.00  0.00     0.040 C 
BRANCH   6  15
HETATM   15  O   UNL     1      -3.385   6.477 -33.806  1.00  0.00    -0.349 OA
BRANCH  15  16
HETATM   16  C   UNL     1      -2.078   6.425 -34.386  1.00  0.00     0.171 C 
HETATM   17  C   UNL     1      -1.748   4.985 -34.733  1.00  0.00     0.034 C 
ENDBRANCH  15  16
ENDBRANCH   6  15
ENDBRANCH   1   5
BRANCH   2  18
HETATM   18  C   UNL     1      -4.204   2.069 -32.373  1.00  0.00     0.077 C 
HETATM   19  C   UNL     1      -3.625   0.861 -32.439  1.00  0.00     0.043 C 
BRANCH  19  20
HETATM   20  C   UNL     1      -4.302  -0.239 -33.032  1.00  0.00     0.077 A 
HETATM   21  O   UNL     1      -3.715  -1.460 -33.292  1.00  0.00    -0.310 OA
HETATM   22  C   UNL     1      -4.646  -2.275 -33.850  1.00  0.00     0.086 A 
HETATM   23  C   UNL     1      -5.857  -1.613 -33.966  1.00  0.00     0.000 A 
HETATM   24  C   UNL     1      -4.433  -3.591 -34.252  1.00  0.00     0.038 A 
HETATM   25  C   UNL     1      -5.628  -0.314 -33.447  1.00  0.00     0.051 A 
HETATM   26  C   UNL     1      -6.952  -2.301 -34.519  1.00  0.00     0.014 A 
HETATM   27  C   UNL     1      -6.771  -3.629 -34.930  1.00  0.00     0.001 A 
HETATM   28  C   UNL     1      -5.532  -4.261 -34.800  1.00  0.00     0.003 A 
ENDBRANCH  19  20
ENDBRANCH   2  18
TORSDOF 5
ENDMDL
MODEL 4
REMARK VINA RESULT:      -8.2      2.263      2.842
REMARK  5 active torsions:
REMARK  status: ('A' for Active; 'I' for Inactive)
REMARK    1  A    between atoms: C_2  and  O_3 
REMARK    2  A    between atoms: O_3  and  C_4 
REMARK    3  A    between atoms: C_5  and  N_6 
REMARK       I    between atoms: N_6  and  C_7 
REMARK    4  A    between atoms: C_7  and  C_8 
REMARK    5  A    between atoms: C_9  and  C_10 
ROOT
HETATM    1  N   UNL     1      -5.161   3.537 -32.750  1.00  0.00    -0.321 N 
HETATM    2  C   UNL     1      -6.262   3.306 -33.548  1.00  0.00     0.245 C 
HETATM    3  O   UNL     1      -7.055   4.120 -33.997  1.00  0.00    -0.268 OA
HETATM    4  H   UNL     1      -4.468   2.802 -32.719  1.00  0.00     0.169 HD
ENDROOT
BRANCH   1   5
HETATM    5  C   UNL     1      -4.789   4.739 -32.100  1.00  0.00     0.071 A 
HETATM    6  C   UNL     1      -4.164   5.851 -32.711  1.00  0.00     0.096 A 
HETATM    7  C   UNL     1      -3.796   6.982 -31.963  1.00  0.00     0.049 A 
HETATM    8  C   UNL     1      -4.143   7.027 -30.628  1.00  0.00    -0.020 A 
HETATM    9  C   UNL     1      -4.814   5.972 -30.041  1.00  0.00     0.078 A 
HETATM   10  C   UNL     1      -3.874   8.068 -29.612  1.00  0.00     0.073 C 
HETATM   11  C   UNL     1      -5.141   4.828 -30.743  1.00  0.00     0.069 A 
HETATM   12  O   UNL     1      -5.108   6.172 -28.718  1.00  0.00    -0.345 OA
HETATM   13  C   UNL     1      -4.804   7.574 -28.492  1.00  0.00     0.129 C 
HETATM   14  C   UNL     1      -6.119   8.351 -28.433  1.00  0.00     0.040 C 
BRANCH   6  15
HETATM   15  O   UNL     1      -3.918   5.881 -34.057  1.00  0.00    -0.349 OA
BRANCH  15  16
HETATM   16  C   UNL     1      -2.569   6.251 -34.356  1.00  0.00     0.171 C 
HETATM   17  C   UNL     1      -1.833   5.041 -34.903  1.00  0.00     0.034 C 
ENDBRANCH  15  16
ENDBRANCH   6  15
ENDBRANCH   1   5
BRANCH   2  18
HETATM   18  C   UNL     1      -6.374   1.865 -33.911  1.00  0.00     0.077 C 
HETATM   19  C   UNL     1      -5.501   0.984 -33.400  1.00  0.00     0.043 C 
BRANCH  19  20
HETATM   20  C   UNL     1      -5.565  -0.391 -33.753  1.00  0.00     0.077 A 
HETATM   21  O   UNL     1      -4.522  -1.280 -33.594  1.00  0.00    -0.310 OA
HETATM   22  C   UNL     1      -4.929  -2.502 -34.024  1.00  0.00     0.086 A 
HETATM   23  C   UNL     1      -6.238  -2.444 -34.470  1.00  0.00     0.000 A 
HETATM   24  C   UNL     1      -4.154  -3.659 -34.021  1.00  0.00     0.038 A 
HETATM   25  C   UNL     1      -6.635  -1.093 -34.299  1.00  0.00     0.051 A 
HETATM   26  C   UNL     1      -6.841  -3.620 -34.950  1.00  0.00     0.014 A 
HETATM   27  C   UNL     1      -6.089  -4.803 -34.959  1.00  0.00     0.001 A 
HETATM   28  C   UNL     1      -4.768  -4.821 -34.503  1.00  0.00     0.003 A 
ENDBRANCH  19  20
ENDBRANCH   2  18
TORSDOF 5
ENDMDL
MODEL 5
REMARK VINA RESULT:      -8.2      1.717      9.401
REMARK  5 active torsions:
REMARK  status: ('A' for Active; 'I' for Inactive)
REMARK    1  A    between atoms: C_2  and  O_3 
REMARK    2  A    between atoms: O_3  and  C_4 
REMARK    3  A    between atoms: C_5  and  N_6 
REMARK       I    between atoms: N_6  and  C_7 
REMARK    4  A    between atoms: C_7  and  C_8 
REMARK    5  A    between atoms: C_9  and  C_10 
ROOT
HETATM    1  N   UNL     1      -4.123   3.705 -31.883  1.00  0.00    -0.321 N 
HETATM    2  C   UNL     1      -2.870   4.159 -32.236  1.00  0.00     0.245 C 
HETATM    3  O   UNL     1      -2.275   3.998 -33.291  1.00  0.00    -0.268 OA
HETATM    4  H   UNL     1      -4.565   4.171 -31.102  1.00  0.00     0.169 HD
ENDROOT
BRANCH   1   5
HETATM    5  C   UNL     1      -4.948   2.788 -32.578  1.00  0.00     0.071 A 
HETATM    6  C   UNL     1      -5.800   3.097 -33.664  1.00  0.00     0.096 A 
HETATM    7  C   UNL     1      -6.613   2.116 -34.256  1.00  0.00     0.049 A 
HETATM    8  C   UNL     1      -6.494   0.813 -33.816  1.00  0.00    -0.020 A 
HETATM    9  C   UNL     1      -5.613   0.492 -32.802  1.00  0.00     0.078 A 
HETATM   10  C   UNL     1      -7.224  -0.402 -34.240  1.00  0.00     0.073 C 
HETATM   11  C   UNL     1      -4.841   1.448 -32.169  1.00  0.00     0.069 A 
HETATM   12  O   UNL     1      -5.592  -0.842 -32.490  1.00  0.00    -0.345 OA
HETATM   13  C   UNL     1      -6.355  -1.470 -33.555  1.00  0.00     0.129 C 
HETATM   14  C   UNL     1      -5.380  -2.143 -34.518  1.00  0.00     0.040 C 
BRANCH   6  15
HETATM   15  O   UNL     1      -5.846   4.356 -34.198  1.00  0.00    -0.349 OA
BRANCH  15  16
HETATM   16  C   UNL     1      -6.977   5.102 -33.736  1.00  0.00     0.171 C 
HETATM   17  C   UNL     1      -6.513   6.119 -32.709  1.00  0.00     0.034 C 
ENDBRANCH  15  16
ENDBRANCH   6  15
ENDBRANCH   1   5
BRANCH   2  18
HETATM   18  C   UNL     1      -2.275   4.997 -31.156  1.00  0.00     0.077 C 
HETATM   19  C   UNL     1      -0.953   5.223 -31.146  1.00  0.00     0.043 C 
BRANCH  19  20
HETATM   20  C   UNL     1      -0.355   5.992 -30.111  1.00  0.00     0.077 A 
HETATM   21  O   UNL     1      -0.374   5.641 -28.777  1.00  0.00    -0.310 OA
HETATM   22  C   UNL     1       0.294   6.590 -28.073  1.00  0.00     0.086 A 
HETATM   23  C   UNL     1       0.766   7.577 -28.923  1.00  0.00     0.000 A 
HETATM   24  C   UNL     1       0.489   6.587 -26.694  1.00  0.00     0.038 A 
HETATM   25  C   UNL     1       0.344   7.190 -30.220  1.00  0.00     0.051 A 
HETATM   26  C   UNL     1       1.494   8.648 -28.375  1.00  0.00     0.014 A 
HETATM   27  C   UNL     1       1.710   8.673 -26.991  1.00  0.00     0.001 A 
HETATM   28  C   UNL     1       1.214   7.661 -26.165  1.00  0.00     0.003 A 
ENDBRANCH  19  20
ENDBRANCH   2  18
TORSDOF 5
ENDMDL
MODEL 6
REMARK VINA RESULT:      -8.0      5.896      9.736
REMARK  5 active torsions:
REMARK  status: ('A' for Active; 'I' for Inactive)
REMARK    1  A    between atoms: C_2  and  O_3 
REMARK    2  A    between atoms: O_3  and  C_4 
REMARK    3  A    between atoms: C_5  and  N_6 
REMARK       I    between atoms: N_6  and  C_7 
REMARK    4  A    between atoms: C_7  and  C_8 
REMARK    5  A    between atoms: C_9  and  C_10 
ROOT
HETATM    1  N   UNL     1      -9.160   0.124 -33.135  1.00  0.00    -0.321 N 
HETATM    2  C   UNL     1      -9.628   1.314 -33.651  1.00  0.00     0.245 C 
HETATM    3  O   UNL     1      -9.025   2.136 -34.326  1.00  0.00    -0.268 OA
HETATM    4  H   UNL     1      -9.860  -0.551 -32.860  1.00  0.00     0.169 HD
ENDROOT
BRANCH   1   5
HETATM    5  C   UNL     1      -7.826  -0.349 -33.097  1.00  0.00     0.071 A 
HETATM    6  C   UNL     1      -6.884  -0.092 -32.074  1.00  0.00     0.096 A 
HETATM    7  C   UNL     1      -5.567  -0.575 -32.157  1.00  0.00     0.049 A 
HETATM    8  C   UNL     1      -5.233  -1.391 -33.219  1.00  0.00    -0.020 A 
HETATM    9  C   UNL     1      -6.169  -1.702 -34.187  1.00  0.00     0.078 A 
HETATM   10  C   UNL     1      -3.938  -2.018 -33.563  1.00  0.00     0.073 C 
HETATM   11  C   UNL     1      -7.455  -1.197 -34.154  1.00  0.00     0.069 A 
HETATM   12  O   UNL     1      -5.696  -2.537 -35.164  1.00  0.00    -0.345 OA
HETATM   13  C   UNL     1      -4.412  -2.990 -34.657  1.00  0.00     0.129 C 
HETATM   14  C   UNL     1      -4.571  -4.421 -34.145  1.00  0.00     0.040 C 
BRANCH   6  15
HETATM   15  O   UNL     1      -7.225   0.612 -30.952  1.00  0.00    -0.349 OA
BRANCH  15  16
HETATM   16  C   UNL     1      -6.898   2.001 -31.060  1.00  0.00     0.171 C 
HETATM   17  C   UNL     1      -8.128   2.827 -30.731  1.00  0.00     0.034 C 
ENDBRANCH  15  16
ENDBRANCH   6  15
ENDBRANCH   1   5
BRANCH   2  18
HETATM   18  C   UNL     1     -11.076   1.501 -33.352  1.00  0.00     0.077 C 
HETATM   19  C   UNL     1     -11.562   2.739 -33.181  1.00  0.00     0.043 C 
BRANCH  19  20
HETATM   20  C   UNL     1     -12.933   2.944 -32.864  1.00  0.00     0.077 A 
HETATM   21  O   UNL     1     -13.462   4.155 -32.467  1.00  0.00    -0.310 OA
HETATM   22  C   UNL     1     -14.793   3.994 -32.256  1.00  0.00     0.086 A 
HETATM   23  C   UNL     1     -15.165   2.685 -32.510  1.00  0.00     0.000 A 
HETATM   24  C   UNL     1     -15.673   4.992 -31.845  1.00  0.00     0.038 A 
HETATM   25  C   UNL     1     -13.973   2.021 -32.892  1.00  0.00     0.051 A 
HETATM   26  C   UNL     1     -16.515   2.324 -32.352  1.00  0.00     0.014 A 
HETATM   27  C   UNL     1     -17.428   3.306 -31.942  1.00  0.00     0.001 A 
HETATM   28  C   UNL     1     -17.013   4.617 -31.692  1.00  0.00     0.003 A 
ENDBRANCH  19  20
ENDBRANCH   2  18
TORSDOF 5
ENDMDL
MODEL 7
REMARK VINA RESULT:      -7.9      2.184      9.845
REMARK  5 active torsions:
REMARK  status: ('A' for Active; 'I' for Inactive)
REMARK    1  A    between atoms: C_2  and  O_3 
REMARK    2  A    between atoms: O_3  and  C_4 
REMARK    3  A    between atoms: C_5  and  N_6 
REMARK       I    between atoms: N_6  and  C_7 
REMARK    4  A    between atoms: C_7  and  C_8 
REMARK    5  A    between atoms: C_9  and  C_10 
ROOT
HETATM    1  N   UNL     1      -2.644   4.230 -31.074  1.00  0.00    -0.321 N 
HETATM    2  C   UNL     1      -1.557   4.844 -31.660  1.00  0.00     0.245 C 
HETATM    3  O   UNL     1      -1.236   4.850 -32.839  1.00  0.00    -0.268 OA
HETATM    4  H   UNL     1      -2.910   4.569 -30.159  1.00  0.00     0.169 HD
ENDROOT
BRANCH   1   5
HETATM    5  C   UNL     1      -3.544   3.305 -31.655  1.00  0.00     0.071 A 
HETATM    6  C   UNL     1      -4.572   3.615 -32.575  1.00  0.00     0.096 A 
HETATM    7  C   UNL     1      -5.442   2.623 -33.059  1.00  0.00     0.049 A 
HETATM    8  C   UNL     1      -5.213   1.313 -32.690  1.00  0.00    -0.020 A 
HETATM    9  C   UNL     1      -4.167   0.994 -31.846  1.00  0.00     0.078 A 
HETATM   10  C   UNL     1      -5.965   0.086 -33.031  1.00  0.00     0.073 C 
HETATM   11  C   UNL     1      -3.331   1.958 -31.316  1.00  0.00     0.069 A 
HETATM   12  O   UNL     1      -4.054  -0.347 -31.588  1.00  0.00    -0.345 OA
HETATM   13  C   UNL     1      -4.964  -0.970 -32.534  1.00  0.00     0.129 C 
HETATM   14  C   UNL     1      -4.141  -1.580 -33.667  1.00  0.00     0.040 C 
BRANCH   6  15
HETATM   15  O   UNL     1      -4.744   4.887 -33.050  1.00  0.00    -0.349 OA
BRANCH  15  16
HETATM   16  C   UNL     1      -4.980   4.913 -34.461  1.00  0.00     0.171 C 
HETATM   17  C   UNL     1      -3.680   5.238 -35.175  1.00  0.00     0.034 C 
ENDBRANCH  15  16
ENDBRANCH   6  15
ENDBRANCH   1   5
BRANCH   2  18
HETATM   18  C   UNL     1      -0.776   5.630 -30.663  1.00  0.00     0.077 C 
HETATM   19  C   UNL     1      -1.417   6.453 -29.820  1.00  0.00     0.043 C 
BRANCH  19  20
HETATM   20  C   UNL     1      -0.696   7.237 -28.880  1.00  0.00     0.077 A 
HETATM   21  O   UNL     1       0.308   6.746 -28.071  1.00  0.00    -0.310 OA
HETATM   22  C   UNL     1       0.782   7.764 -27.308  1.00  0.00     0.086 A 
HETATM   23  C   UNL     1       0.107   8.938 -27.598  1.00  0.00     0.000 A 
HETATM   24  C   UNL     1       1.802   7.661 -26.365  1.00  0.00     0.038 A 
HETATM   25  C   UNL     1      -0.837   8.592 -28.598  1.00  0.00     0.051 A 
HETATM   26  C   UNL     1       0.465  10.110 -26.909  1.00  0.00     0.014 A 
HETATM   27  C   UNL     1       1.490  10.041 -25.955  1.00  0.00     0.001 A 
HETATM   28  C   UNL     1       2.145   8.836 -25.688  1.00  0.00     0.003 A 
ENDBRANCH  19  20
ENDBRANCH   2  18
TORSDOF 5
ENDMDL
MODEL 8
REMARK VINA RESULT:      -7.7      6.050      8.231
REMARK  5 active torsions:
REMARK  status: ('A' for Active; 'I' for Inactive)
REMARK    1  A    between atoms: C_2  and  O_3 
REMARK    2  A    between atoms: O_3  and  C_4 
REMARK    3  A    between atoms: C_5  and  N_6 
REMARK       I    between atoms: N_6  and  C_7 
REMARK    4  A    between atoms: C_7  and  C_8 
REMARK    5  A    between atoms: C_9  and  C_10 
ROOT
HETATM    1  N   UNL     1     -10.389   2.069 -32.683  1.00  0.00    -0.321 N 
HETATM    2  C   UNL     1      -9.450   2.006 -33.691  1.00  0.00     0.245 C 
HETATM    3  O   UNL     1      -9.242   2.814 -34.584  1.00  0.00    -0.268 OA
HETATM    4  H   UNL     1     -10.227   1.475 -31.882  1.00  0.00     0.169 HD
ENDROOT
BRANCH   1   5
HETATM    5  C   UNL     1     -11.462   2.983 -32.543  1.00  0.00     0.071 A 
HETATM    6  C   UNL     1     -12.686   2.939 -33.250  1.00  0.00     0.096 A 
HETATM    7  C   UNL     1     -13.670   3.924 -33.066  1.00  0.00     0.049 A 
HETATM    8  C   UNL     1     -13.457   4.893 -32.106  1.00  0.00    -0.020 A 
HETATM    9  C   UNL     1     -12.292   4.902 -31.364  1.00  0.00     0.078 A 
HETATM   10  C   UNL     1     -14.301   6.045 -31.717  1.00  0.00     0.073 C 
HETATM   11  C   UNL     1     -11.288   3.974 -31.563  1.00  0.00     0.069 A 
HETATM   12  O   UNL     1     -12.235   5.910 -30.438  1.00  0.00    -0.345 OA
HETATM   13  C   UNL     1     -13.581   6.458 -30.422  1.00  0.00     0.129 C 
HETATM   14  C   UNL     1     -14.293   5.958 -29.167  1.00  0.00     0.040 C 
BRANCH   6  15
HETATM   15  O   UNL     1     -12.971   1.920 -34.118  1.00  0.00    -0.349 OA
BRANCH  15  16
HETATM   16  C   UNL     1     -13.738   0.880 -33.504  1.00  0.00     0.171 C 
HETATM   17  C   UNL     1     -15.013   0.667 -34.300  1.00  0.00     0.034 C 
ENDBRANCH  15  16
ENDBRANCH   6  15
ENDBRANCH   1   5
BRANCH   2  18
HETATM   18  C   UNL     1      -8.585   0.800 -33.550  1.00  0.00     0.077 C 
HETATM   19  C   UNL     1      -7.830   0.403 -34.584  1.00  0.00     0.043 C 
BRANCH  19  20
HETATM   20  C   UNL     1      -7.020  -0.762 -34.488  1.00  0.00     0.077 A 
HETATM   21  O   UNL     1      -7.427  -2.021 -34.878  1.00  0.00    -0.310 OA
HETATM   22  C   UNL     1      -6.408  -2.890 -34.655  1.00  0.00     0.086 A 
HETATM   23  C   UNL     1      -5.317  -2.226 -34.120  1.00  0.00     0.000 A 
HETATM   24  C   UNL     1      -6.437  -4.257 -34.923  1.00  0.00     0.038 A 
HETATM   25  C   UNL     1      -5.718  -0.870 -34.011  1.00  0.00     0.051 A 
HETATM   26  C   UNL     1      -4.156  -2.962 -33.827  1.00  0.00     0.014 A 
HETATM   27  C   UNL     1      -4.151  -4.340 -34.087  1.00  0.00     0.001 A 
HETATM   28  C   UNL     1      -5.274  -4.975 -34.625  1.00  0.00     0.003 A 
ENDBRANCH  19  20
ENDBRANCH   2  18
TORSDOF 5
ENDMDL
MODEL 9
REMARK VINA RESULT:      -7.7      2.529      9.977
REMARK  5 active torsions:
REMARK  status: ('A' for Active; 'I' for Inactive)
REMARK    1  A    between atoms: C_2  and  O_3 
REMARK    2  A    between atoms: O_3  and  C_4 
REMARK    3  A    between atoms: C_5  and  N_6 
REMARK       I    between atoms: N_6  and  C_7 
REMARK    4  A    between atoms: C_7  and  C_8 
REMARK    5  A    between atoms: C_9  and  C_10 
ROOT
HETATM    1  N   UNL     1      -4.371   3.716 -31.768  1.00  0.00    -0.321 N 
HETATM    2  C   UNL     1      -3.280   4.409 -32.249  1.00  0.00     0.245 C 
HETATM    3  O   UNL     1      -2.786   4.365 -33.366  1.00  0.00    -0.268 OA
HETATM    4  H   UNL     1      -4.807   4.088 -30.936  1.00  0.00     0.169 HD
ENDROOT
BRANCH   1   5
HETATM    5  C   UNL     1      -5.069   2.649 -32.384  1.00  0.00     0.071 A 
HETATM    6  C   UNL     1      -4.585   1.331 -32.554  1.00  0.00     0.096 A 
HETATM    7  C   UNL     1      -5.345   0.355 -33.220  1.00  0.00     0.049 A 
HETATM    8  C   UNL     1      -6.622   0.683 -33.627  1.00  0.00    -0.020 A 
HETATM    9  C   UNL     1      -7.127   1.949 -33.403  1.00  0.00     0.078 A 
HETATM   10  C   UNL     1      -7.625  -0.127 -34.354  1.00  0.00     0.073 C 
HETATM   11  C   UNL     1      -6.380   2.941 -32.796  1.00  0.00     0.069 A 
HETATM   12  O   UNL     1      -8.414   2.117 -33.842  1.00  0.00    -0.345 OA
HETATM   13  C   UNL     1      -8.858   0.773 -34.170  1.00  0.00     0.129 C 
HETATM   14  C   UNL     1      -9.783   0.284 -33.057  1.00  0.00     0.040 C 
BRANCH   6  15
HETATM   15  O   UNL     1      -3.371   0.947 -32.053  1.00  0.00    -0.349 OA
BRANCH  15  16
HETATM   16  C   UNL     1      -3.467  -0.213 -31.220  1.00  0.00     0.171 C 
HETATM   17  C   UNL     1      -2.561  -1.297 -31.774  1.00  0.00     0.034 C 
ENDBRANCH  15  16
ENDBRANCH   6  15
ENDBRANCH   1   5
BRANCH   2  18
HETATM   18  C   UNL     1      -2.747   5.355 -31.227  1.00  0.00     0.077 C 
HETATM   19  C   UNL     1      -1.475   5.769 -31.308  1.00  0.00     0.043 C 
BRANCH  19  20
HETATM   20  C   UNL     1      -0.931   6.645 -30.330  1.00  0.00     0.077 A 
HETATM   21  O   UNL     1      -1.647   7.645 -29.704  1.00  0.00    -0.310 OA
HETATM   22  C   UNL     1      -0.825   8.277 -28.828  1.00  0.00     0.086 A 
HETATM   23  C   UNL     1       0.438   7.710 -28.857  1.00  0.00     0.000 A 
HETATM   24  C   UNL     1      -1.185   9.344 -28.007  1.00  0.00     0.038 A 
HETATM   25  C   UNL     1       0.363   6.674 -29.821  1.00  0.00     0.051 A 
HETATM   26  C   UNL     1       1.431   8.230 -28.008  1.00  0.00     0.014 A 
HETATM   27  C   UNL     1       1.100   9.302 -27.167  1.00  0.00     0.001 A 
HETATM   28  C   UNL     1      -0.185   9.850 -27.169  1.00  0.00     0.003 A 
ENDBRANCH  19  20
ENDBRANCH   2  18
TORSDOF 5
ENDMDL
MODEL 10
REMARK VINA RESULT:      -7.7      2.332      3.612
REMARK  5 active torsions:
REMARK  status: ('A' for Active; 'I' for Inactive)
REMARK    1  A    between atoms: C_2  and  O_3 
REMARK    2  A    between atoms: O_3  and  C_4 
REMARK    3  A    between atoms: C_5  and  N_6 
REMARK       I    between atoms: N_6  and  C_7 
REMARK    4  A    between atoms: C_7  and  C_8 
REMARK    5  A    between atoms: C_9  and  C_10 
ROOT
HETATM    1  N   UNL     1      -4.708   3.178 -31.529  1.00  0.00    -0.321 N 
HETATM    2  C   UNL     1      -3.497   2.522 -31.594  1.00  0.00     0.245 C 
HETATM    3  O   UNL     1      -2.392   2.938 -31.280  1.00  0.00    -0.268 OA
HETATM    4  H   UNL     1      -5.534   2.597 -31.549  1.00  0.00     0.169 HD
ENDROOT
BRANCH   1   5
HETATM    5  C   UNL     1      -4.946   4.549 -31.263  1.00  0.00     0.071 A 
HETATM    6  C   UNL     1      -4.628   5.626 -32.121  1.00  0.00     0.096 A 
HETATM    7  C   UNL     1      -4.868   6.957 -31.740  1.00  0.00     0.049 A 
HETATM    8  C   UNL     1      -5.512   7.191 -30.541  1.00  0.00    -0.020 A 
HETATM    9  C   UNL     1      -5.887   6.138 -29.730  1.00  0.00     0.078 A 
HETATM   10  C   UNL     1      -5.873   8.470 -29.892  1.00  0.00     0.073 C 
HETATM   11  C   UNL     1      -5.615   4.824 -30.058  1.00  0.00     0.069 A 
HETATM   12  O   UNL     1      -6.534   6.526 -28.586  1.00  0.00    -0.345 OA
HETATM   13  C   UNL     1      -6.806   7.939 -28.790  1.00  0.00     0.129 C 
HETATM   14  C   UNL     1      -8.284   8.102 -29.141  1.00  0.00     0.040 C 
BRANCH   6  15
HETATM   15  O   UNL     1      -4.100   5.415 -33.366  1.00  0.00    -0.349 OA
BRANCH  15  16
HETATM   16  C   UNL     1      -2.997   6.284 -33.644  1.00  0.00     0.171 C 
HETATM   17  C   UNL     1      -1.827   5.454 -34.139  1.00  0.00     0.034 C 
ENDBRANCH  15  16
ENDBRANCH   6  15
ENDBRANCH   1   5
BRANCH   2  18
HETATM   18  C   UNL     1      -3.669   1.114 -32.053  1.00  0.00     0.077 C 
HETATM   19  C   UNL     1      -4.638   0.819 -32.932  1.00  0.00     0.043 C 
BRANCH  19  20
HETATM   20  C   UNL     1      -4.845  -0.520 -33.363  1.00  0.00     0.077 A 
HETATM   21  O   UNL     1      -6.027  -0.985 -33.902  1.00  0.00    -0.310 OA
HETATM   22  C   UNL     1      -5.873  -2.298 -34.208  1.00  0.00     0.086 A 
HETATM   23  C   UNL     1      -4.596  -2.722 -33.881  1.00  0.00     0.000 A 
HETATM   24  C   UNL     1      -6.848  -3.117 -34.772  1.00  0.00     0.038 A 
HETATM   25  C   UNL     1      -3.949  -1.583 -33.338  1.00  0.00     0.051 A 
HETATM   26  C   UNL     1      -4.243  -4.060 -34.133  1.00  0.00     0.014 A 
HETATM   27  C   UNL     1      -5.201  -4.910 -34.703  1.00  0.00     0.001 A 
HETATM   28  C   UNL     1      -6.482  -4.446 -35.016  1.00  0.00     0.003 A 
ENDBRANCH  19  20
ENDBRANCH   2  18
TORSDOF 5
ENDMDL
