MODEL 1
REMARK VINA RESULT:      -8.4      0.000      0.000
REMARK  3 active torsions:
REMARK  status: ('A' for Active; 'I' for Inactive)
REMARK    1  A    between atoms: C_6  and  N_7 
REMARK       I    between atoms: N_7  and  C_8 
REMARK    2  A    between atoms: C_8  and  C_9 
REMARK    3  A    between atoms: C_9  and  C_10 
ROOT
HETATM    1  C   UNL     1      -7.420   1.678 -31.510  1.00  0.00     0.286 C 
HETATM    2  N   UNL     1      -6.733   2.804 -32.271  1.00  0.00    -0.056 N 
HETATM    3  H   UNL     1      -6.216   2.341 -33.048  1.00  0.00     0.278 HD
HETATM    4  H   UNL     1      -7.426   3.416 -32.716  1.00  0.00     0.278 HD
HETATM    5  C   UNL     1      -5.785   3.586 -31.397  1.00  0.00     0.209 C 
HETATM    6  C   UNL     1      -4.718   2.625 -30.812  1.00  0.00     0.115 C 
HETATM    7  N   UNL     1      -5.313   1.424 -30.222  1.00  0.00    -0.353 N 
HETATM    8  C   UNL     1      -6.433   0.798 -30.714  1.00  0.00     0.249 C 
HETATM    9  O   UNL     1      -6.669  -0.367 -30.415  1.00  0.00    -0.271 OA
HETATM   10  C   UNL     1      -5.182   4.733 -32.208  1.00  0.00     0.035 C 
HETATM   11  C   UNL     1      -4.135   4.275 -33.220  1.00  0.00     0.002 C 
HETATM   12  C   UNL     1      -3.060   3.422 -32.558  1.00  0.00     0.002 C 
HETATM   13  C   UNL     1      -3.663   2.216 -31.850  1.00  0.00     0.027 C 
HETATM   14  H   UNL     1      -4.706   0.804 -29.687  1.00  0.00     0.163 HD
ENDROOT
BRANCH   1  15
HETATM   15  C   UNL     1      -8.336   0.843 -32.414  1.00  0.00     0.146 C 
BRANCH  15  16
HETATM   16  C   UNL     1      -8.141   1.167 -33.870  1.00  0.00     0.224 C 
HETATM   17  N   UNL     1      -7.363   0.415 -34.691  1.00  0.00    -0.327 N 
HETATM   18  H   UNL     1      -7.384   0.770 -35.644  1.00  0.00     0.169 HD
HETATM   19  O   UNL     1      -8.792   2.102 -34.361  1.00  0.00    -0.273 OA
BRANCH  17  20
HETATM   20  C   UNL     1      -6.577  -0.744 -34.522  1.00  0.00     0.035 A 
HETATM   21  C   UNL     1      -6.918  -2.039 -34.914  1.00  0.00     0.037 A 
HETATM   22  C   UNL     1      -6.052  -3.131 -34.694  1.00  0.00    -0.054 A 
HETATM   23  C   UNL     1      -4.795  -2.915 -34.101  1.00  0.00    -0.056 A 
HETATM   24  C   UNL     1      -6.484  -4.509 -35.120  1.00  0.00     0.049 C 
HETATM   25  C   UNL     1      -3.829  -4.041 -33.852  1.00  0.00     0.049 C 
HETATM   26  C   UNL     1      -4.456  -1.620 -33.695  1.00  0.00     0.009 A 
HETATM   27  C   UNL     1      -5.337  -0.555 -33.899  1.00  0.00     0.030 A 
ENDBRANCH  17  20
ENDBRANCH  15  16
ENDBRANCH   1  15
TORSDOF 3
ENDMDL
MODEL 2
REMARK VINA RESULT:      -8.2      2.803      4.703
REMARK  3 active torsions:
REMARK  status: ('A' for Active; 'I' for Inactive)
REMARK    1  A    between atoms: C_6  and  N_7 
REMARK       I    between atoms: N_7  and  C_8 
REMARK    2  A    between atoms: C_8  and  C_9 
REMARK    3  A    between atoms: C_9  and  C_10 
ROOT
HETATM    1  C   UNL     1      -9.734   0.972 -32.396  1.00  0.00     0.286 C 
HETATM    2  N   UNL     1     -10.533   0.942 -33.691  1.00  0.00    -0.056 N 
HETATM    3  H   UNL     1      -9.990   1.519 -34.368  1.00  0.00     0.278 HD
HETATM    4  H   UNL     1     -10.558  -0.006 -34.081  1.00  0.00     0.278 HD
HETATM    5  C   UNL     1     -11.923   1.502 -33.517  1.00  0.00     0.209 C 
HETATM    6  C   UNL     1     -11.824   2.961 -32.997  1.00  0.00     0.115 C 
HETATM    7  N   UNL     1     -10.919   3.085 -31.853  1.00  0.00    -0.353 N 
HETATM    8  C   UNL     1      -9.770   2.347 -31.695  1.00  0.00     0.249 C 
HETATM    9  O   UNL     1      -8.890   2.732 -30.934  1.00  0.00    -0.271 OA
HETATM   10  C   UNL     1     -12.684   1.385 -34.837  1.00  0.00     0.035 C 
HETATM   11  C   UNL     1     -12.230   2.391 -35.890  1.00  0.00     0.002 C 
HETATM   12  C   UNL     1     -12.258   3.814 -35.347  1.00  0.00     0.002 C 
HETATM   13  C   UNL     1     -11.401   3.948 -34.095  1.00  0.00     0.027 C 
HETATM   14  H   UNL     1     -10.899   3.974 -31.354  1.00  0.00     0.163 HD
ENDROOT
BRANCH   1  15
HETATM   15  C   UNL     1      -8.300   0.461 -32.588  1.00  0.00     0.146 C 
BRANCH  15  16
HETATM   16  C   UNL     1      -7.651   1.046 -33.813  1.00  0.00     0.224 C 
HETATM   17  N   UNL     1      -6.713   0.380 -34.535  1.00  0.00    -0.327 N 
HETATM   18  H   UNL     1      -6.420   0.921 -35.344  1.00  0.00     0.169 HD
HETATM   19  O   UNL     1      -8.057   2.140 -34.233  1.00  0.00    -0.273 OA
BRANCH  17  20
HETATM   20  C   UNL     1      -6.095  -0.884 -34.428  1.00  0.00     0.035 A 
HETATM   21  C   UNL     1      -6.577  -2.086 -34.948  1.00  0.00     0.037 A 
HETATM   22  C   UNL     1      -5.874  -3.299 -34.781  1.00  0.00    -0.054 A 
HETATM   23  C   UNL     1      -4.639  -3.301 -34.110  1.00  0.00    -0.056 A 
HETATM   24  C   UNL     1      -6.455  -4.568 -35.347  1.00  0.00     0.049 C 
HETATM   25  C   UNL     1      -3.844  -4.563 -33.912  1.00  0.00     0.049 C 
HETATM   26  C   UNL     1      -4.161  -2.100 -33.576  1.00  0.00     0.009 A 
HETATM   27  C   UNL     1      -4.881  -0.913 -33.730  1.00  0.00     0.030 A 
ENDBRANCH  17  20
ENDBRANCH  15  16
ENDBRANCH   1  15
TORSDOF 3
ENDMDL
MODEL 3
REMARK VINA RESULT:      -8.1      2.188      3.826
REMARK  3 active torsions:
REMARK  status: ('A' for Active; 'I' for Inactive)
REMARK    1  A    between atoms: C_6  and  N_7 
REMARK       I    between atoms: N_7  and  C_8 
REMARK    2  A    between atoms: C_8  and  C_9 
REMARK    3  A    between atoms: C_9  and  C_10 
ROOT
HETATM    1  C   UNL     1      -6.690   0.683 -30.702  1.00  0.00     0.286 C 
HETATM    2  N   UNL     1      -7.549   0.296 -31.897  1.00  0.00    -0.056 N 
HETATM    3  H   UNL     1      -7.168   0.837 -32.703  1.00  0.00     0.278 HD
HETATM    4  H   UNL     1      -7.420  -0.694 -32.133  1.00  0.00     0.278 HD
HETATM    5  C   UNL     1      -9.005   0.625 -31.682  1.00  0.00     0.209 C 
HETATM    6  C   UNL     1      -9.150   2.145 -31.404  1.00  0.00     0.115 C 
HETATM    7  N   UNL     1      -8.213   2.616 -30.382  1.00  0.00    -0.353 N 
HETATM    8  C   UNL     1      -6.939   2.128 -30.221  1.00  0.00     0.249 C 
HETATM    9  O   UNL     1      -6.101   2.783 -29.613  1.00  0.00    -0.271 OA
HETATM   10  C   UNL     1      -9.813   0.156 -32.892  1.00  0.00     0.035 C 
HETATM   11  C   UNL     1      -9.624   1.035 -34.125  1.00  0.00     0.002 C 
HETATM   12  C   UNL     1      -9.885   2.502 -33.806  1.00  0.00     0.002 C 
HETATM   13  C   UNL     1      -8.990   2.992 -32.675  1.00  0.00     0.027 C 
HETATM   14  H   UNL     1      -8.329   3.566 -30.030  1.00  0.00     0.163 HD
ENDROOT
BRANCH   1  15
HETATM   15  C   UNL     1      -5.200   0.406 -30.946  1.00  0.00     0.146 C 
BRANCH  15  16
HETATM   16  C   UNL     1      -4.704   1.057 -32.208  1.00  0.00     0.224 C 
HETATM   17  N   UNL     1      -4.659   0.406 -33.400  1.00  0.00    -0.327 N 
HETATM   18  H   UNL     1      -4.330   1.020 -34.141  1.00  0.00     0.169 HD
HETATM   19  O   UNL     1      -4.413   2.262 -32.178  1.00  0.00    -0.273 OA
BRANCH  17  20
HETATM   20  C   UNL     1      -4.995  -0.894 -33.831  1.00  0.00     0.035 A 
HETATM   21  C   UNL     1      -4.221  -2.044 -33.671  1.00  0.00     0.037 A 
HETATM   22  C   UNL     1      -4.655  -3.301 -34.144  1.00  0.00    -0.054 A 
HETATM   23  C   UNL     1      -5.915  -3.416 -34.759  1.00  0.00    -0.056 A 
HETATM   24  C   UNL     1      -3.766  -4.502 -33.960  1.00  0.00     0.049 C 
HETATM   25  C   UNL     1      -6.431  -4.732 -35.273  1.00  0.00     0.049 C 
HETATM   26  C   UNL     1      -6.686  -2.263 -34.933  1.00  0.00     0.009 A 
HETATM   27  C   UNL     1      -6.230  -1.023 -34.480  1.00  0.00     0.030 A 
ENDBRANCH  17  20
ENDBRANCH  15  16
ENDBRANCH   1  15
TORSDOF 3
ENDMDL
MODEL 4
REMARK VINA RESULT:      -8.1      1.750      2.212
REMARK  3 active torsions:
REMARK  status: ('A' for Active; 'I' for Inactive)
REMARK    1  A    between atoms: C_6  and  N_7 
REMARK       I    between atoms: N_7  and  C_8 
REMARK    2  A    between atoms: C_8  and  C_9 
REMARK    3  A    between atoms: C_9  and  C_10 
ROOT
HETATM    1  C   UNL     1      -5.377   3.230 -32.246  1.00  0.00     0.286 C 
HETATM    2  N   UNL     1      -4.455   3.795 -33.317  1.00  0.00    -0.056 N 
HETATM    3  H   UNL     1      -3.624   3.166 -33.332  1.00  0.00     0.278 HD
HETATM    4  H   UNL     1      -4.886   3.718 -34.245  1.00  0.00     0.278 HD
HETATM    5  C   UNL     1      -4.038   5.214 -33.020  1.00  0.00     0.209 C 
HETATM    6  C   UNL     1      -3.326   5.259 -31.641  1.00  0.00     0.115 C 
HETATM    7  N   UNL     1      -4.086   4.566 -30.599  1.00  0.00    -0.353 N 
HETATM    8  C   UNL     1      -4.836   3.435 -30.815  1.00  0.00     0.249 C 
HETATM    9  O   UNL     1      -5.145   2.712 -29.875  1.00  0.00    -0.271 OA
HETATM   10  C   UNL     1      -3.168   5.735 -34.163  1.00  0.00     0.035 C 
HETATM   11  C   UNL     1      -1.760   5.146 -34.170  1.00  0.00     0.002 C 
HETATM   12  C   UNL     1      -1.080   5.318 -32.818  1.00  0.00     0.002 C 
HETATM   13  C   UNL     1      -1.901   4.692 -31.698  1.00  0.00     0.027 C 
HETATM   14  H   UNL     1      -3.772   4.664 -29.635  1.00  0.00     0.163 HD
ENDROOT
BRANCH   1  15
HETATM   15  C   UNL     1      -5.750   1.766 -32.517  1.00  0.00     0.146 C 
BRANCH  15  16
HETATM   16  C   UNL     1      -6.637   1.623 -33.724  1.00  0.00     0.224 C 
HETATM   17  N   UNL     1      -6.718   0.473 -34.442  1.00  0.00    -0.327 N 
HETATM   18  H   UNL     1      -7.395   0.559 -35.196  1.00  0.00     0.169 HD
HETATM   19  O   UNL     1      -7.394   2.561 -34.017  1.00  0.00    -0.273 OA
BRANCH  17  20
HETATM   20  C   UNL     1      -6.107  -0.795 -34.352  1.00  0.00     0.035 A 
HETATM   21  C   UNL     1      -6.628  -2.000 -34.826  1.00  0.00     0.037 A 
HETATM   22  C   UNL     1      -5.928  -3.217 -34.681  1.00  0.00    -0.054 A 
HETATM   23  C   UNL     1      -4.657  -3.222 -34.080  1.00  0.00    -0.056 A 
HETATM   24  C   UNL     1      -6.551  -4.488 -35.195  1.00  0.00     0.049 C 
HETATM   25  C   UNL     1      -3.864  -4.489 -33.909  1.00  0.00     0.049 C 
HETATM   26  C   UNL     1      -4.138  -2.018 -33.592  1.00  0.00     0.009 A 
HETATM   27  C   UNL     1      -4.856  -0.827 -33.722  1.00  0.00     0.030 A 
ENDBRANCH  17  20
ENDBRANCH  15  16
ENDBRANCH   1  15
TORSDOF 3
ENDMDL
MODEL 5
REMARK VINA RESULT:      -8.0      3.074      4.639
REMARK  3 active torsions:
REMARK  status: ('A' for Active; 'I' for Inactive)
REMARK    1  A    between atoms: C_6  and  N_7 
REMARK       I    between atoms: N_7  and  C_8 
REMARK    2  A    between atoms: C_8  and  C_9 
REMARK    3  A    between atoms: C_9  and  C_10 
ROOT
HETATM    1  C   UNL     1      -3.534   4.183 -33.411  1.00  0.00     0.286 C 
HETATM    2  N   UNL     1      -2.711   4.635 -32.213  1.00  0.00    -0.056 N 
HETATM    3  H   UNL     1      -3.234   5.437 -31.800  1.00  0.00     0.278 HD
HETATM    4  H   UNL     1      -2.692   3.907 -31.490  1.00  0.00     0.278 HD
HETATM    5  C   UNL     1      -1.318   5.059 -32.605  1.00  0.00     0.209 C 
HETATM    6  C   UNL     1      -1.407   6.210 -33.642  1.00  0.00     0.115 C 
HETATM    7  N   UNL     1      -2.332   5.905 -34.735  1.00  0.00    -0.353 N 
HETATM    8  C   UNL     1      -3.493   5.185 -34.584  1.00  0.00     0.249 C 
HETATM    9  O   UNL     1      -4.382   5.267 -35.423  1.00  0.00    -0.271 OA
HETATM   10  C   UNL     1      -0.534   5.439 -31.350  1.00  0.00     0.035 C 
HETATM   11  C   UNL     1      -0.954   6.780 -30.756  1.00  0.00     0.002 C 
HETATM   12  C   UNL     1      -0.917   7.887 -31.802  1.00  0.00     0.002 C 
HETATM   13  C   UNL     1      -1.796   7.549 -33.000  1.00  0.00     0.027 C 
HETATM   14  H   UNL     1      -2.350   6.536 -35.535  1.00  0.00     0.163 HD
ENDROOT
BRANCH   1  15
HETATM   15  C   UNL     1      -4.971   3.813 -33.020  1.00  0.00     0.146 C 
BRANCH  15  16
HETATM   16  C   UNL     1      -5.049   3.241 -31.630  1.00  0.00     0.224 C 
HETATM   17  N   UNL     1      -5.069   1.905 -31.386  1.00  0.00    -0.327 N 
HETATM   18  H   UNL     1      -5.086   1.715 -30.387  1.00  0.00     0.169 HD
HETATM   19  O   UNL     1      -4.998   4.020 -30.666  1.00  0.00    -0.273 OA
BRANCH  17  20
HETATM   20  C   UNL     1      -5.036   0.751 -32.196  1.00  0.00     0.035 A 
HETATM   21  C   UNL     1      -6.051   0.306 -33.044  1.00  0.00     0.037 A 
HETATM   22  C   UNL     1      -5.911  -0.869 -33.812  1.00  0.00    -0.054 A 
HETATM   23  C   UNL     1      -4.709  -1.597 -33.760  1.00  0.00    -0.056 A 
HETATM   24  C   UNL     1      -7.050  -1.310 -34.694  1.00  0.00     0.049 C 
HETATM   25  C   UNL     1      -4.503  -2.851 -34.566  1.00  0.00     0.049 C 
HETATM   26  C   UNL     1      -3.695  -1.161 -32.901  1.00  0.00     0.009 A 
HETATM   27  C   UNL     1      -3.860  -0.008 -32.129  1.00  0.00     0.030 A 
ENDBRANCH  17  20
ENDBRANCH  15  16
ENDBRANCH   1  15
TORSDOF 3
ENDMDL
MODEL 6
REMARK VINA RESULT:      -7.8      2.552      3.433
REMARK  3 active torsions:
REMARK  status: ('A' for Active; 'I' for Inactive)
REMARK    1  A    between atoms: C_6  and  N_7 
REMARK       I    between atoms: N_7  and  C_8 
REMARK    2  A    between atoms: C_8  and  C_9 
REMARK    3  A    between atoms: C_9  and  C_10 
ROOT
HETATM    1  C   UNL     1      -4.414   3.989 -31.895  1.00  0.00     0.286 C 
HETATM    2  N   UNL     1      -4.092   5.386 -32.404  1.00  0.00    -0.056 N 
HETATM    3  H   UNL     1      -3.652   5.249 -33.339  1.00  0.00     0.278 HD
HETATM    4  H   UNL     1      -4.953   5.919 -32.571  1.00  0.00     0.278 HD
HETATM    5  C   UNL     1      -3.156   6.128 -31.482  1.00  0.00     0.209 C 
HETATM    6  C   UNL     1      -1.844   5.314 -31.325  1.00  0.00     0.115 C 
HETATM    7  N   UNL     1      -2.096   3.906 -31.011  1.00  0.00    -0.353 N 
HETATM    8  C   UNL     1      -3.157   3.185 -31.503  1.00  0.00     0.249 C 
HETATM    9  O   UNL     1      -3.121   1.959 -31.504  1.00  0.00    -0.271 OA
HETATM   10  C   UNL     1      -2.928   7.539 -32.023  1.00  0.00     0.035 C 
HETATM   11  C   UNL     1      -2.020   7.578 -33.249  1.00  0.00     0.002 C 
HETATM   12  C   UNL     1      -0.706   6.852 -32.990  1.00  0.00     0.002 C 
HETATM   13  C   UNL     1      -0.942   5.409 -32.564  1.00  0.00     0.027 C 
HETATM   14  H   UNL     1      -1.300   3.326 -30.748  1.00  0.00     0.163 HD
ENDROOT
BRANCH   1  15
HETATM   15  C   UNL     1      -5.316   3.213 -32.864  1.00  0.00     0.146 C 
BRANCH  15  16
HETATM   16  C   UNL     1      -6.578   2.733 -32.200  1.00  0.00     0.224 C 
HETATM   17  N   UNL     1      -7.016   1.451 -32.298  1.00  0.00    -0.327 N 
HETATM   18  H   UNL     1      -7.864   1.310 -31.754  1.00  0.00     0.169 HD
HETATM   19  O   UNL     1      -7.191   3.515 -31.457  1.00  0.00    -0.273 OA
BRANCH  17  20
HETATM   20  C   UNL     1      -6.545   0.290 -32.947  1.00  0.00     0.035 A 
HETATM   21  C   UNL     1      -5.440  -0.476 -32.573  1.00  0.00     0.037 A 
HETATM   22  C   UNL     1      -5.055  -1.623 -33.298  1.00  0.00    -0.054 A 
HETATM   23  C   UNL     1      -5.819  -2.037 -34.404  1.00  0.00    -0.056 A 
HETATM   24  C   UNL     1      -3.840  -2.397 -32.858  1.00  0.00     0.049 C 
HETATM   25  C   UNL     1      -5.459  -3.257 -35.206  1.00  0.00     0.049 C 
HETATM   26  C   UNL     1      -6.919  -1.264 -34.789  1.00  0.00     0.009 A 
HETATM   27  C   UNL     1      -7.271  -0.117 -34.074  1.00  0.00     0.030 A 
ENDBRANCH  17  20
ENDBRANCH  15  16
ENDBRANCH   1  15
TORSDOF 3
ENDMDL
MODEL 7
REMARK VINA RESULT:      -7.7      3.006      4.752
REMARK  3 active torsions:
REMARK  status: ('A' for Active; 'I' for Inactive)
REMARK    1  A    between atoms: C_6  and  N_7 
REMARK       I    between atoms: N_7  and  C_8 
REMARK    2  A    between atoms: C_8  and  C_9 
REMARK    3  A    between atoms: C_9  and  C_10 
ROOT
HETATM    1  C   UNL     1      -3.844   4.309 -33.329  1.00  0.00     0.286 C 
HETATM    2  N   UNL     1      -3.071   4.716 -32.083  1.00  0.00    -0.056 N 
HETATM    3  H   UNL     1      -3.417   5.669 -31.838  1.00  0.00     0.278 HD
HETATM    4  H   UNL     1      -3.316   4.113 -31.290  1.00  0.00     0.278 HD
HETATM    5  C   UNL     1      -1.581   4.740 -32.318  1.00  0.00     0.209 C 
HETATM    6  C   UNL     1      -1.263   5.723 -33.476  1.00  0.00     0.115 C 
HETATM    7  N   UNL     1      -2.109   5.495 -34.649  1.00  0.00    -0.353 N 
HETATM    8  C   UNL     1      -3.423   5.098 -34.586  1.00  0.00     0.249 C 
HETATM    9  O   UNL     1      -4.165   5.270 -35.546  1.00  0.00    -0.271 OA
HETATM   10  C   UNL     1      -0.869   5.096 -31.014  1.00  0.00     0.035 C 
HETATM   11  C   UNL     1      -1.000   6.568 -30.634  1.00  0.00     0.002 C 
HETATM   12  C   UNL     1      -0.571   7.477 -31.779  1.00  0.00     0.002 C 
HETATM   13  C   UNL     1      -1.369   7.192 -33.044  1.00  0.00     0.027 C 
HETATM   14  H   UNL     1      -1.879   5.994 -35.507  1.00  0.00     0.163 HD
ENDROOT
BRANCH   1  15
HETATM   15  C   UNL     1      -5.362   4.346 -33.106  1.00  0.00     0.146 C 
BRANCH  15  16
HETATM   16  C   UNL     1      -5.741   3.910 -31.717  1.00  0.00     0.224 C 
HETATM   17  N   UNL     1      -6.055   2.624 -31.412  1.00  0.00    -0.327 N 
HETATM   18  H   UNL     1      -6.247   2.519 -30.419  1.00  0.00     0.169 HD
HETATM   19  O   UNL     1      -5.671   4.738 -30.797  1.00  0.00    -0.273 OA
BRANCH  17  20
HETATM   20  C   UNL     1      -6.138   1.424 -32.149  1.00  0.00     0.035 A 
HETATM   21  C   UNL     1      -5.070   0.608 -32.524  1.00  0.00     0.037 A 
HETATM   22  C   UNL     1      -5.268  -0.576 -33.266  1.00  0.00    -0.054 A 
HETATM   23  C   UNL     1      -6.573  -0.974 -33.607  1.00  0.00    -0.056 A 
HETATM   24  C   UNL     1      -4.073  -1.405 -33.658  1.00  0.00     0.049 C 
HETATM   25  C   UNL     1      -6.841  -2.231 -34.388  1.00  0.00     0.049 C 
HETATM   26  C   UNL     1      -7.643  -0.151 -33.245  1.00  0.00     0.009 A 
HETATM   27  C   UNL     1      -7.427   1.031 -32.532  1.00  0.00     0.030 A 
ENDBRANCH  17  20
ENDBRANCH  15  16
ENDBRANCH   1  15
TORSDOF 3
ENDMDL
MODEL 8
REMARK VINA RESULT:      -7.7     14.380     16.736
REMARK  3 active torsions:
REMARK  status: ('A' for Active; 'I' for Inactive)
REMARK    1  A    between atoms: C_6  and  N_7 
REMARK       I    between atoms: N_7  and  C_8 
REMARK    2  A    between atoms: C_8  and  C_9 
REMARK    3  A    between atoms: C_9  and  C_10 
ROOT
HETATM    1  C   UNL     1      -3.991 -13.929 -39.805  1.00  0.00     0.286 C 
HETATM    2  N   UNL     1      -2.880 -14.146 -38.788  1.00  0.00    -0.056 N 
HETATM    3  H   UNL     1      -2.253 -13.318 -38.877  1.00  0.00     0.278 HD
HETATM    4  H   UNL     1      -3.251 -14.119 -37.832  1.00  0.00     0.278 HD
HETATM    5  C   UNL     1      -2.112 -15.419 -39.046  1.00  0.00     0.209 C 
HETATM    6  C   UNL     1      -1.511 -15.372 -40.475  1.00  0.00     0.115 C 
HETATM    7  N   UNL     1      -2.500 -14.988 -41.484  1.00  0.00    -0.353 N 
HETATM    8  C   UNL     1      -3.514 -14.087 -41.264  1.00  0.00     0.249 C 
HETATM    9  O   UNL     1      -4.072 -13.544 -42.211  1.00  0.00    -0.271 OA
HETATM   10  C   UNL     1      -1.057 -15.601 -37.955  1.00  0.00     0.035 C 
HETATM   11  C   UNL     1       0.133 -14.657 -38.099  1.00  0.00     0.002 C 
HETATM   12  C   UNL     1       0.741 -14.739 -39.494  1.00  0.00     0.002 C 
HETATM   13  C   UNL     1      -0.294 -14.441 -40.570  1.00  0.00     0.027 C 
HETATM   14  H   UNL     1      -2.238 -15.069 -42.465  1.00  0.00     0.163 HD
ENDROOT
BRANCH   1  15
HETATM   15  C   UNL     1      -4.731 -12.604 -39.580  1.00  0.00     0.146 C 
BRANCH  15  16
HETATM   16  C   UNL     1      -5.241 -12.473 -38.171  1.00  0.00     0.224 C 
HETATM   17  N   UNL     1      -6.545 -12.660 -37.842  1.00  0.00    -0.327 N 
HETATM   18  H   UNL     1      -6.688 -12.564 -36.840  1.00  0.00     0.169 HD
HETATM   19  O   UNL     1      -4.421 -12.279 -37.260  1.00  0.00    -0.273 OA
BRANCH  17  20
HETATM   20  C   UNL     1      -7.712 -12.984 -38.567  1.00  0.00     0.035 A 
HETATM   21  C   UNL     1      -8.579 -12.082 -39.185  1.00  0.00     0.037 A 
HETATM   22  C   UNL     1      -9.723 -12.518 -39.886  1.00  0.00    -0.054 A 
HETATM   23  C   UNL     1      -9.985 -13.894 -40.005  1.00  0.00    -0.056 A 
HETATM   24  C   UNL     1     -10.633 -11.495 -40.514  1.00  0.00     0.049 C 
HETATM   25  C   UNL     1     -11.185 -14.414 -40.749  1.00  0.00     0.049 C 
HETATM   26  C   UNL     1      -9.125 -14.799 -39.375  1.00  0.00     0.009 A 
HETATM   27  C   UNL     1      -8.010 -14.349 -38.664  1.00  0.00     0.030 A 
ENDBRANCH  17  20
ENDBRANCH  15  16
ENDBRANCH   1  15
TORSDOF 3
ENDMDL
MODEL 9
REMARK VINA RESULT:      -7.4      6.298     10.351
REMARK  3 active torsions:
REMARK  status: ('A' for Active; 'I' for Inactive)
REMARK    1  A    between atoms: C_6  and  N_7 
REMARK       I    between atoms: N_7  and  C_8 
REMARK    2  A    between atoms: C_8  and  C_9 
REMARK    3  A    between atoms: C_9  and  C_10 
ROOT
HETATM    1  C   UNL     1      -1.720   6.839 -31.412  1.00  0.00     0.286 C 
HETATM    2  N   UNL     1      -2.633   5.816 -30.752  1.00  0.00    -0.056 N 
HETATM    3  H   UNL     1      -2.200   4.888 -30.945  1.00  0.00     0.278 HD
HETATM    4  H   UNL     1      -2.625   5.926 -29.732  1.00  0.00     0.278 HD
HETATM    5  C   UNL     1      -4.037   5.867 -31.301  1.00  0.00     0.209 C 
HETATM    6  C   UNL     1      -3.996   5.620 -32.832  1.00  0.00     0.115 C 
HETATM    7  N   UNL     1      -2.998   6.455 -33.505  1.00  0.00    -0.353 N 
HETATM    8  C   UNL     1      -1.790   6.806 -32.953  1.00  0.00     0.249 C 
HETATM    9  O   UNL     1      -0.872   7.185 -33.671  1.00  0.00    -0.271 OA
HETATM   10  C   UNL     1      -4.909   4.859 -30.552  1.00  0.00     0.035 C 
HETATM   11  C   UNL     1      -4.631   3.410 -30.942  1.00  0.00     0.002 C 
HETATM   12  C   UNL     1      -4.711   3.216 -32.451  1.00  0.00     0.002 C 
HETATM   13  C   UNL     1      -3.752   4.146 -33.183  1.00  0.00     0.027 C 
HETATM   14  H   UNL     1      -2.996   6.468 -34.524  1.00  0.00     0.163 HD
ENDROOT
BRANCH   1  15
HETATM   15  C   UNL     1      -0.277   6.744 -30.898  1.00  0.00     0.146 C 
BRANCH  15  16
HETATM   16  C   UNL     1      -0.044   5.491 -30.098  1.00  0.00     0.224 C 
HETATM   17  N   UNL     1       0.105   5.500 -28.748  1.00  0.00    -0.327 N 
HETATM   18  H   UNL     1       0.217   4.557 -28.385  1.00  0.00     0.169 HD
HETATM   19  O   UNL     1      -0.083   4.399 -30.684  1.00  0.00    -0.273 OA
BRANCH  17  20
HETATM   20  C   UNL     1       0.103   6.506 -27.759  1.00  0.00     0.035 A 
HETATM   21  C   UNL     1       1.226   7.113 -27.194  1.00  0.00     0.037 A 
HETATM   22  C   UNL     1       1.108   8.114 -26.206  1.00  0.00    -0.054 A 
HETATM   23  C   UNL     1      -0.168   8.546 -25.801  1.00  0.00    -0.056 A 
HETATM   24  C   UNL     1       2.357   8.717 -25.619  1.00  0.00     0.049 C 
HETATM   25  C   UNL     1      -0.350   9.615 -24.759  1.00  0.00     0.049 C 
HETATM   26  C   UNL     1      -1.294   7.930 -26.355  1.00  0.00     0.009 A 
HETATM   27  C   UNL     1      -1.158   6.923 -27.314  1.00  0.00     0.030 A 
ENDBRANCH  17  20
ENDBRANCH  15  16
ENDBRANCH   1  15
TORSDOF 3
ENDMDL
MODEL 10
REMARK VINA RESULT:      -7.4      2.814      4.726
REMARK  3 active torsions:
REMARK  status: ('A' for Active; 'I' for Inactive)
REMARK    1  A    between atoms: C_6  and  N_7 
REMARK       I    between atoms: N_7  and  C_8 
REMARK    2  A    between atoms: C_8  and  C_9 
REMARK    3  A    between atoms: C_9  and  C_10 
ROOT
HETATM    1  C   UNL     1      -7.362   3.226 -33.373  1.00  0.00     0.286 C 
HETATM    2  N   UNL     1      -8.782   2.715 -33.572  1.00  0.00    -0.056 N 
HETATM    3  H   UNL     1      -8.881   2.554 -34.597  1.00  0.00     0.278 HD
HETATM    4  H   UNL     1      -8.904   1.799 -33.127  1.00  0.00     0.278 HD
HETATM    5  C   UNL     1      -9.816   3.703 -33.092  1.00  0.00     0.209 C 
HETATM    6  C   UNL     1      -9.632   5.044 -33.850  1.00  0.00     0.115 C 
HETATM    7  N   UNL     1      -8.240   5.499 -33.849  1.00  0.00    -0.353 N 
HETATM    8  C   UNL     1      -7.155   4.658 -33.910  1.00  0.00     0.249 C 
HETATM    9  O   UNL     1      -6.062   5.087 -34.263  1.00  0.00    -0.271 OA
HETATM   10  C   UNL     1     -11.209   3.100 -33.265  1.00  0.00     0.035 C 
HETATM   11  C   UNL     1     -11.677   3.063 -34.718  1.00  0.00     0.002 C 
HETATM   12  C   UNL     1     -11.570   4.435 -35.370  1.00  0.00     0.002 C 
HETATM   13  C   UNL     1     -10.148   4.977 -35.295  1.00  0.00     0.027 C 
HETATM   14  H   UNL     1      -8.044   6.437 -34.197  1.00  0.00     0.163 HD
ENDROOT
BRANCH   1  15
HETATM   15  C   UNL     1      -6.313   2.248 -33.919  1.00  0.00     0.146 C 
BRANCH  15  16
HETATM   16  C   UNL     1      -5.318   1.841 -32.867  1.00  0.00     0.224 C 
HETATM   17  N   UNL     1      -4.923   0.553 -32.691  1.00  0.00    -0.327 N 
HETATM   18  H   UNL     1      -4.221   0.482 -31.959  1.00  0.00     0.169 HD
HETATM   19  O   UNL     1      -4.767   2.728 -32.198  1.00  0.00    -0.273 OA
BRANCH  17  20
HETATM   20  C   UNL     1      -5.241  -0.674 -33.311  1.00  0.00     0.035 A 
HETATM   21  C   UNL     1      -4.393  -1.773 -33.454  1.00  0.00     0.037 A 
HETATM   22  C   UNL     1      -4.817  -2.956 -34.095  1.00  0.00    -0.054 A 
HETATM   23  C   UNL     1      -6.137  -3.056 -34.572  1.00  0.00    -0.056 A 
HETATM   24  C   UNL     1      -3.850  -4.101 -34.237  1.00  0.00     0.049 C 
HETATM   25  C   UNL     1      -6.644  -4.297 -35.254  1.00  0.00     0.049 C 
HETATM   26  C   UNL     1      -6.984  -1.951 -34.442  1.00  0.00     0.009 A 
HETATM   27  C   UNL     1      -6.540  -0.779 -33.826  1.00  0.00     0.030 A 
ENDBRANCH  17  20
ENDBRANCH  15  16
ENDBRANCH   1  15
TORSDOF 3
ENDMDL
