MODEL 1
REMARK VINA RESULT:      -9.9      0.000      0.000
REMARK  6 active torsions:
REMARK  status: ('A' for Active; 'I' for Inactive)
REMARK    1  A    between atoms: C_4  and  C_5 
REMARK    2  A    between atoms: C_5  and  N_6 
REMARK    3  A    between atoms: C_8  and  C_9 
REMARK       I    between atoms: C_9  and  N_10 
REMARK    4  A    between atoms: N_10  and  N_11 
REMARK    5  A    between atoms: C_12  and  C_13 
REMARK    6  A    between atoms: C_14  and  O_15 
ROOT
HETATM    1  C   UNL     1      -3.699   2.450 -31.877  1.00  0.00     0.273 C 
HETATM    2  N   UNL     1      -4.728   1.698 -32.420  1.00  0.00    -0.243 N 
HETATM    3  O   UNL     1      -2.801   2.003 -31.167  1.00  0.00    -0.266 OA
HETATM    4  H   UNL     1      -5.423   2.077 -33.051  1.00  0.00     0.192 HD
ENDROOT
BRANCH   2   5
HETATM    5  N   UNL     1      -4.692   0.350 -32.232  1.00  0.00    -0.183 NA
HETATM    6  C   UNL     1      -4.212  -0.362 -33.207  1.00  0.00     0.153 C 
BRANCH   6   7
HETATM    7  C   UNL     1      -4.063  -1.835 -33.080  1.00  0.00     0.027 A 
HETATM    8  C   UNL     1      -3.113  -2.352 -32.180  1.00  0.00     0.078 A 
HETATM    9  C   UNL     1      -2.895  -3.719 -32.089  1.00  0.00     0.038 A 
HETATM   10  C   UNL     1      -3.624  -4.590 -32.891  1.00  0.00     0.015 A 
HETATM   11  C   UNL     1      -4.589  -4.110 -33.786  1.00  0.00    -0.025 A 
HETATM   12  C   UNL     1      -4.838  -2.715 -33.896  1.00  0.00    -0.012 A 
HETATM   13  C   UNL     1      -5.309  -5.024 -34.573  1.00  0.00     0.012 A 
HETATM   14  C   UNL     1      -5.850  -2.315 -34.810  1.00  0.00     0.013 A 
HETATM   15  C   UNL     1      -6.560  -3.240 -35.582  1.00  0.00     0.001 A 
HETATM   16  C   UNL     1      -6.287  -4.594 -35.466  1.00  0.00     0.001 A 
BRANCH   8  17
HETATM   17  O   UNL     1      -2.338  -1.579 -31.356  1.00  0.00    -0.360 OA
HETATM   18  H   UNL     1      -1.653  -1.131 -31.898  1.00  0.00     0.217 HD
ENDBRANCH   8  17
ENDBRANCH   6   7
ENDBRANCH   2   5
BRANCH   1  19
HETATM   19  C   UNL     1      -3.634   3.892 -32.210  1.00  0.00     0.049 A 
HETATM   20  C   UNL     1      -2.372   4.484 -32.122  1.00  0.00     0.108 A 
HETATM   21  N   UNL     1      -2.183   5.785 -32.450  1.00  0.00    -0.361 N 
HETATM   22  C   UNL     1      -3.222   6.550 -32.853  1.00  0.00     0.090 A 
HETATM   23  C   UNL     1      -4.505   6.013 -32.931  1.00  0.00     0.018 A 
HETATM   24  C   UNL     1      -4.716   4.674 -32.607  1.00  0.00     0.020 A 
BRANCH  21  25
HETATM   25  C   UNL     1      -0.819   6.370 -32.370  1.00  0.00     0.166 C 
BRANCH  25  26
HETATM   26  C   UNL     1      -0.293   6.320 -30.960  1.00  0.00    -0.040 A 
HETATM   27  C   UNL     1      -0.556   7.375 -30.070  1.00  0.00     0.009 A 
HETATM   28  C   UNL     1      -0.083   7.329 -28.758  1.00  0.00     0.001 A 
HETATM   29  C   UNL     1       0.653   6.232 -28.317  1.00  0.00     0.000 A 
HETATM   30  C   UNL     1       0.913   5.175 -29.186  1.00  0.00     0.001 A 
HETATM   31  C   UNL     1       0.439   5.215 -30.498  1.00  0.00     0.009 A 
ENDBRANCH  25  26
ENDBRANCH  21  25
ENDBRANCH   1  19
TORSDOF 6
ENDMDL
MODEL 2
REMARK VINA RESULT:      -9.7      2.184      3.428
REMARK  6 active torsions:
REMARK  status: ('A' for Active; 'I' for Inactive)
REMARK    1  A    between atoms: C_4  and  C_5 
REMARK    2  A    between atoms: C_5  and  N_6 
REMARK    3  A    between atoms: C_8  and  C_9 
REMARK       I    between atoms: C_9  and  N_10 
REMARK    4  A    between atoms: N_10  and  N_11 
REMARK    5  A    between atoms: C_12  and  C_13 
REMARK    6  A    between atoms: C_14  and  O_15 
ROOT
HETATM    1  C   UNL     1      -1.985   4.874 -31.666  1.00  0.00     0.273 C 
HETATM    2  N   UNL     1      -2.949   4.010 -31.174  1.00  0.00    -0.243 N 
HETATM    3  O   UNL     1      -1.084   4.555 -32.438  1.00  0.00    -0.266 OA
HETATM    4  H   UNL     1      -3.718   4.307 -30.586  1.00  0.00     0.192 HD
ENDROOT
BRANCH   2   5
HETATM    5  N   UNL     1      -2.956   2.735 -31.649  1.00  0.00    -0.183 NA
HETATM    6  C   UNL     1      -4.093   2.107 -31.620  1.00  0.00     0.153 C 
BRANCH   6   7
HETATM    7  C   UNL     1      -4.228   0.737 -32.178  1.00  0.00     0.027 A 
HETATM    8  C   UNL     1      -3.314  -0.258 -31.782  1.00  0.00     0.078 A 
HETATM    9  C   UNL     1      -3.363  -1.528 -32.337  1.00  0.00     0.038 A 
HETATM   10  C   UNL     1      -4.328  -1.826 -33.293  1.00  0.00     0.015 A 
HETATM   11  C   UNL     1      -5.264  -0.865 -33.700  1.00  0.00    -0.025 A 
HETATM   12  C   UNL     1      -5.240   0.443 -33.143  1.00  0.00    -0.012 A 
HETATM   13  C   UNL     1      -6.227  -1.210 -34.662  1.00  0.00     0.012 A 
HETATM   14  C   UNL     1      -6.239   1.348 -33.591  1.00  0.00     0.013 A 
HETATM   15  C   UNL     1      -7.193   0.986 -34.548  1.00  0.00     0.001 A 
HETATM   16  C   UNL     1      -7.183  -0.291 -35.086  1.00  0.00     0.001 A 
BRANCH   8  17
HETATM   17  O   UNL     1      -2.322  -0.061 -30.857  1.00  0.00    -0.360 OA
HETATM   18  H   UNL     1      -1.749  -0.859 -30.836  1.00  0.00     0.217 HD
ENDBRANCH   8  17
ENDBRANCH   6   7
ENDBRANCH   2   5
BRANCH   1  19
HETATM   19  C   UNL     1      -2.066   6.304 -31.285  1.00  0.00     0.049 A 
HETATM   20  C   UNL     1      -2.077   6.571 -29.913  1.00  0.00     0.108 A 
HETATM   21  N   UNL     1      -2.099   7.842 -29.447  1.00  0.00    -0.361 N 
HETATM   22  C   UNL     1      -2.131   8.888 -30.303  1.00  0.00     0.090 A 
HETATM   23  C   UNL     1      -2.148   8.672 -31.679  1.00  0.00     0.018 A 
HETATM   24  C   UNL     1      -2.115   7.371 -32.177  1.00  0.00     0.020 A 
BRANCH  21  25
HETATM   25  C   UNL     1      -2.081   8.086 -27.981  1.00  0.00     0.166 C 
BRANCH  25  26
HETATM   26  C   UNL     1      -0.673   8.286 -27.485  1.00  0.00    -0.040 A 
HETATM   27  C   UNL     1      -0.165   9.583 -27.306  1.00  0.00     0.009 A 
HETATM   28  C   UNL     1       1.134   9.775 -26.834  1.00  0.00     0.001 A 
HETATM   29  C   UNL     1       1.939   8.679 -26.533  1.00  0.00     0.000 A 
HETATM   30  C   UNL     1       1.445   7.388 -26.697  1.00  0.00     0.001 A 
HETATM   31  C   UNL     1       0.145   7.190 -27.165  1.00  0.00     0.009 A 
ENDBRANCH  25  26
ENDBRANCH  21  25
ENDBRANCH   1  19
TORSDOF 6
ENDMDL
MODEL 3
REMARK VINA RESULT:      -9.3      1.991     10.093
REMARK  6 active torsions:
REMARK  status: ('A' for Active; 'I' for Inactive)
REMARK    1  A    between atoms: C_4  and  C_5 
REMARK    2  A    between atoms: C_5  and  N_6 
REMARK    3  A    between atoms: C_8  and  C_9 
REMARK       I    between atoms: C_9  and  N_10 
REMARK    4  A    between atoms: N_10  and  N_11 
REMARK    5  A    between atoms: C_12  and  C_13 
REMARK    6  A    between atoms: C_14  and  O_15 
ROOT
HETATM    1  C   UNL     1      -3.810   1.954 -31.502  1.00  0.00     0.273 C 
HETATM    2  N   UNL     1      -3.791   3.313 -31.766  1.00  0.00    -0.243 N 
HETATM    3  O   UNL     1      -2.876   1.318 -31.020  1.00  0.00    -0.266 OA
HETATM    4  H   UNL     1      -4.593   3.827 -32.108  1.00  0.00     0.192 HD
ENDROOT
BRANCH   2   5
HETATM    5  N   UNL     1      -2.692   4.016 -31.377  1.00  0.00    -0.183 NA
HETATM    6  C   UNL     1      -2.865   5.281 -31.132  1.00  0.00     0.153 C 
BRANCH   6   7
HETATM    7  C   UNL     1      -1.748   6.126 -30.635  1.00  0.00     0.027 A 
HETATM    8  C   UNL     1      -0.439   5.862 -31.081  1.00  0.00     0.078 A 
HETATM    9  C   UNL     1       0.637   6.582 -30.582  1.00  0.00     0.038 A 
HETATM   10  C   UNL     1       0.423   7.578 -29.635  1.00  0.00     0.015 A 
HETATM   11  C   UNL     1      -0.869   7.877 -29.181  1.00  0.00    -0.025 A 
HETATM   12  C   UNL     1      -1.991   7.159 -29.680  1.00  0.00    -0.012 A 
HETATM   13  C   UNL     1      -1.043   8.895 -28.230  1.00  0.00     0.012 A 
HETATM   14  C   UNL     1      -3.266   7.543 -29.186  1.00  0.00     0.013 A 
HETATM   15  C   UNL     1      -3.421   8.562 -28.242  1.00  0.00     0.001 A 
HETATM   16  C   UNL     1      -2.309   9.235 -27.761  1.00  0.00     0.001 A 
BRANCH   8  17
HETATM   17  O   UNL     1      -0.122   4.898 -32.001  1.00  0.00    -0.360 OA
HETATM   18  H   UNL     1      -0.915   4.718 -32.553  1.00  0.00     0.217 HD
ENDBRANCH   8  17
ENDBRANCH   6   7
ENDBRANCH   2   5
BRANCH   1  19
HETATM   19  C   UNL     1      -5.061   1.206 -31.768  1.00  0.00     0.049 A 
HETATM   20  C   UNL     1      -5.157   0.603 -33.025  1.00  0.00     0.108 A 
HETATM   21  N   UNL     1      -6.234  -0.147 -33.361  1.00  0.00    -0.361 N 
HETATM   22  C   UNL     1      -7.256  -0.313 -32.491  1.00  0.00     0.090 A 
HETATM   23  C   UNL     1      -7.218   0.291 -31.237  1.00  0.00     0.018 A 
HETATM   24  C   UNL     1      -6.114   1.057 -30.870  1.00  0.00     0.020 A 
BRANCH  21  25
HETATM   25  C   UNL     1      -6.286  -0.796 -34.697  1.00  0.00     0.166 C 
BRANCH  25  26
HETATM   26  C   UNL     1      -5.876  -2.243 -34.609  1.00  0.00    -0.040 A 
HETATM   27  C   UNL     1      -6.800  -3.259 -34.904  1.00  0.00     0.009 A 
HETATM   28  C   UNL     1      -6.422  -4.600 -34.838  1.00  0.00     0.001 A 
HETATM   29  C   UNL     1      -5.121  -4.944 -34.480  1.00  0.00     0.000 A 
HETATM   30  C   UNL     1      -4.192  -3.947 -34.194  1.00  0.00     0.001 A 
HETATM   31  C   UNL     1      -4.564  -2.604 -34.263  1.00  0.00     0.009 A 
ENDBRANCH  25  26
ENDBRANCH  21  25
ENDBRANCH   1  19
TORSDOF 6
ENDMDL
MODEL 4
REMARK VINA RESULT:      -9.2      1.837      3.091
REMARK  6 active torsions:
REMARK  status: ('A' for Active; 'I' for Inactive)
REMARK    1  A    between atoms: C_4  and  C_5 
REMARK    2  A    between atoms: C_5  and  N_6 
REMARK    3  A    between atoms: C_8  and  C_9 
REMARK       I    between atoms: C_9  and  N_10 
REMARK    4  A    between atoms: N_10  and  N_11 
REMARK    5  A    between atoms: C_12  and  C_13 
REMARK    6  A    between atoms: C_14  and  O_15 
ROOT
HETATM    1  C   UNL     1      -3.187   3.939 -32.386  1.00  0.00     0.273 C 
HETATM    2  N   UNL     1      -3.451   2.664 -31.916  1.00  0.00    -0.243 N 
HETATM    3  O   UNL     1      -3.225   4.276 -33.567  1.00  0.00    -0.266 OA
HETATM    4  H   UNL     1      -3.472   2.424 -30.933  1.00  0.00     0.192 HD
ENDROOT
BRANCH   2   5
HETATM    5  N   UNL     1      -3.875   1.735 -32.816  1.00  0.00    -0.183 NA
HETATM    6  C   UNL     1      -4.345   0.624 -32.332  1.00  0.00     0.153 C 
BRANCH   6   7
HETATM    7  C   UNL     1      -4.897  -0.428 -33.223  1.00  0.00     0.027 A 
HETATM    8  C   UNL     1      -5.938  -0.097 -34.111  1.00  0.00     0.078 A 
HETATM    9  C   UNL     1      -6.528  -1.070 -34.905  1.00  0.00     0.038 A 
HETATM   10  C   UNL     1      -6.087  -2.386 -34.826  1.00  0.00     0.015 A 
HETATM   11  C   UNL     1      -5.043  -2.748 -33.964  1.00  0.00    -0.025 A 
HETATM   12  C   UNL     1      -4.416  -1.771 -33.144  1.00  0.00    -0.012 A 
HETATM   13  C   UNL     1      -4.623  -4.088 -33.921  1.00  0.00     0.012 A 
HETATM   14  C   UNL     1      -3.350  -2.218 -32.318  1.00  0.00     0.013 A 
HETATM   15  C   UNL     1      -2.942  -3.555 -32.291  1.00  0.00     0.001 A 
HETATM   16  C   UNL     1      -3.581  -4.490 -33.089  1.00  0.00     0.001 A 
BRANCH   8  17
HETATM   17  O   UNL     1      -6.449   1.166 -34.255  1.00  0.00    -0.360 OA
HETATM   18  H   UNL     1      -5.706   1.792 -34.399  1.00  0.00     0.217 HD
ENDBRANCH   8  17
ENDBRANCH   6   7
ENDBRANCH   2   5
BRANCH   1  19
HETATM   19  C   UNL     1      -2.885   5.001 -31.397  1.00  0.00     0.049 A 
HETATM   20  C   UNL     1      -1.531   5.224 -31.133  1.00  0.00     0.108 A 
HETATM   21  N   UNL     1      -1.135   6.201 -30.284  1.00  0.00    -0.361 N 
HETATM   22  C   UNL     1      -2.046   6.976 -29.653  1.00  0.00     0.090 A 
HETATM   23  C   UNL     1      -3.408   6.775 -29.863  1.00  0.00     0.018 A 
HETATM   24  C   UNL     1      -3.834   5.781 -30.741  1.00  0.00     0.020 A 
BRANCH  21  25
HETATM   25  C   UNL     1       0.316   6.426 -30.051  1.00  0.00     0.166 C 
BRANCH  25  26
HETATM   26  C   UNL     1       0.558   7.014 -28.685  1.00  0.00    -0.040 A 
HETATM   27  C   UNL     1       0.123   6.334 -27.536  1.00  0.00     0.009 A 
HETATM   28  C   UNL     1       0.357   6.867 -26.268  1.00  0.00     0.001 A 
HETATM   29  C   UNL     1       1.027   8.080 -26.130  1.00  0.00     0.000 A 
HETATM   30  C   UNL     1       1.472   8.760 -27.261  1.00  0.00     0.001 A 
HETATM   31  C   UNL     1       1.245   8.229 -28.531  1.00  0.00     0.009 A 
ENDBRANCH  25  26
ENDBRANCH  21  25
ENDBRANCH   1  19
TORSDOF 6
ENDMDL
MODEL 5
REMARK VINA RESULT:      -9.2      2.049     10.256
REMARK  6 active torsions:
REMARK  status: ('A' for Active; 'I' for Inactive)
REMARK    1  A    between atoms: C_4  and  C_5 
REMARK    2  A    between atoms: C_5  and  N_6 
REMARK    3  A    between atoms: C_8  and  C_9 
REMARK       I    between atoms: C_9  and  N_10 
REMARK    4  A    between atoms: N_10  and  N_11 
REMARK    5  A    between atoms: C_12  and  C_13 
REMARK    6  A    between atoms: C_14  and  O_15 
ROOT
HETATM    1  C   UNL     1      -3.202   3.808 -31.927  1.00  0.00     0.273 C 
HETATM    2  N   UNL     1      -2.926   5.158 -32.064  1.00  0.00    -0.243 N 
HETATM    3  O   UNL     1      -2.536   3.018 -31.262  1.00  0.00    -0.266 OA
HETATM    4  H   UNL     1      -3.522   5.802 -32.568  1.00  0.00     0.192 HD
ENDROOT
BRANCH   2   5
HETATM    5  N   UNL     1      -1.896   5.669 -31.335  1.00  0.00    -0.183 NA
HETATM    6  C   UNL     1      -2.213   6.376 -30.292  1.00  0.00     0.153 C 
BRANCH   6   7
HETATM    7  C   UNL     1      -1.168   6.922 -29.388  1.00  0.00     0.027 A 
HETATM    8  C   UNL     1      -0.101   6.092 -28.995  1.00  0.00     0.078 A 
HETATM    9  C   UNL     1       0.852   6.544 -28.094  1.00  0.00     0.038 A 
HETATM   10  C   UNL     1       0.757   7.831 -27.575  1.00  0.00     0.015 A 
HETATM   11  C   UNL     1      -0.283   8.689 -27.957  1.00  0.00    -0.025 A 
HETATM   12  C   UNL     1      -1.270   8.255 -28.883  1.00  0.00    -0.012 A 
HETATM   13  C   UNL     1      -0.337   9.984 -27.415  1.00  0.00     0.012 A 
HETATM   14  C   UNL     1      -2.275   9.195 -29.235  1.00  0.00     0.013 A 
HETATM   15  C   UNL     1      -2.311  10.482 -28.690  1.00  0.00     0.001 A 
HETATM   16  C   UNL     1      -1.345  10.874 -27.776  1.00  0.00     0.001 A 
BRANCH   8  17
HETATM   17  O   UNL     1       0.075   4.808 -29.439  1.00  0.00    -0.360 OA
HETATM   18  H   UNL     1      -0.314   4.731 -30.338  1.00  0.00     0.217 HD
ENDBRANCH   8  17
ENDBRANCH   6   7
ENDBRANCH   2   5
BRANCH   1  19
HETATM   19  C   UNL     1      -4.418   3.272 -32.584  1.00  0.00     0.049 A 
HETATM   20  C   UNL     1      -4.851   2.020 -32.139  1.00  0.00     0.108 A 
HETATM   21  N   UNL     1      -5.978   1.454 -32.633  1.00  0.00    -0.361 N 
HETATM   22  C   UNL     1      -6.703   2.080 -33.587  1.00  0.00     0.090 A 
HETATM   23  C   UNL     1      -6.296   3.318 -34.081  1.00  0.00     0.018 A 
HETATM   24  C   UNL     1      -5.145   3.921 -33.578  1.00  0.00     0.020 A 
BRANCH  21  25
HETATM   25  C   UNL     1      -6.422   0.134 -32.113  1.00  0.00     0.166 C 
BRANCH  25  26
HETATM   26  C   UNL     1      -6.079  -0.969 -33.081  1.00  0.00    -0.040 A 
HETATM   27  C   UNL     1      -4.752  -1.411 -33.206  1.00  0.00     0.009 A 
HETATM   28  C   UNL     1      -4.430  -2.442 -34.090  1.00  0.00     0.001 A 
HETATM   29  C   UNL     1      -5.425  -3.044 -34.856  1.00  0.00     0.000 A 
HETATM   30  C   UNL     1      -6.746  -2.621 -34.735  1.00  0.00     0.001 A 
HETATM   31  C   UNL     1      -7.074  -1.594 -33.849  1.00  0.00     0.009 A 
ENDBRANCH  25  26
ENDBRANCH  21  25
ENDBRANCH   1  19
TORSDOF 6
ENDMDL
MODEL 6
REMARK VINA RESULT:      -9.1      2.552      3.251
REMARK  6 active torsions:
REMARK  status: ('A' for Active; 'I' for Inactive)
REMARK    1  A    between atoms: C_4  and  C_5 
REMARK    2  A    between atoms: C_5  and  N_6 
REMARK    3  A    between atoms: C_8  and  C_9 
REMARK       I    between atoms: C_9  and  N_10 
REMARK    4  A    between atoms: N_10  and  N_11 
REMARK    5  A    between atoms: C_12  and  C_13 
REMARK    6  A    between atoms: C_14  and  O_15 
ROOT
HETATM    1  C   UNL     1      -5.544   4.270 -29.874  1.00  0.00     0.273 C 
HETATM    2  N   UNL     1      -4.479   3.637 -30.492  1.00  0.00    -0.243 N 
HETATM    3  O   UNL     1      -6.628   3.745 -29.629  1.00  0.00    -0.266 OA
HETATM    4  H   UNL     1      -3.575   4.071 -30.631  1.00  0.00     0.192 HD
ENDROOT
BRANCH   2   5
HETATM    5  N   UNL     1      -4.605   2.309 -30.765  1.00  0.00    -0.183 NA
HETATM    6  C   UNL     1      -4.190   1.910 -31.929  1.00  0.00     0.153 C 
BRANCH   6   7
HETATM    7  C   UNL     1      -4.217   0.472 -32.303  1.00  0.00     0.027 A 
HETATM    8  C   UNL     1      -3.251  -0.396 -31.759  1.00  0.00     0.078 A 
HETATM    9  C   UNL     1      -3.201  -1.728 -32.142  1.00  0.00     0.038 A 
HETATM   10  C   UNL     1      -4.115  -2.215 -33.069  1.00  0.00     0.015 A 
HETATM   11  C   UNL     1      -5.100  -1.383 -33.619  1.00  0.00    -0.025 A 
HETATM   12  C   UNL     1      -5.179  -0.015 -33.240  1.00  0.00    -0.012 A 
HETATM   13  C   UNL     1      -6.009  -1.917 -34.547  1.00  0.00     0.012 A 
HETATM   14  C   UNL     1      -6.222   0.752 -33.826  1.00  0.00     0.013 A 
HETATM   15  C   UNL     1      -7.121   0.203 -34.745  1.00  0.00     0.001 A 
HETATM   16  C   UNL     1      -7.012  -1.130 -35.108  1.00  0.00     0.001 A 
BRANCH   8  17
HETATM   17  O   UNL     1      -2.303  -0.012 -30.848  1.00  0.00    -0.360 OA
HETATM   18  H   UNL     1      -2.199  -0.726 -30.182  1.00  0.00     0.217 HD
ENDBRANCH   8  17
ENDBRANCH   6   7
ENDBRANCH   2   5
BRANCH   1  19
HETATM   19  C   UNL     1      -5.361   5.670 -29.423  1.00  0.00     0.049 A 
HETATM   20  C   UNL     1      -4.485   6.448 -30.186  1.00  0.00     0.108 A 
HETATM   21  N   UNL     1      -4.278   7.755 -29.897  1.00  0.00    -0.361 N 
HETATM   22  C   UNL     1      -4.901   8.335 -28.846  1.00  0.00     0.090 A 
HETATM   23  C   UNL     1      -5.762   7.593 -28.041  1.00  0.00     0.018 A 
HETATM   24  C   UNL     1      -5.996   6.250 -28.329  1.00  0.00     0.020 A 
BRANCH  21  25
HETATM   25  C   UNL     1      -3.361   8.557 -30.749  1.00  0.00     0.166 C 
BRANCH  25  26
HETATM   26  C   UNL     1      -1.984   7.946 -30.781  1.00  0.00    -0.040 A 
HETATM   27  C   UNL     1      -1.458   7.454 -31.987  1.00  0.00     0.009 A 
HETATM   28  C   UNL     1      -0.178   6.900 -32.026  1.00  0.00     0.001 A 
HETATM   29  C   UNL     1       0.592   6.833 -30.868  1.00  0.00     0.000 A 
HETATM   30  C   UNL     1       0.086   7.325 -29.668  1.00  0.00     0.001 A 
HETATM   31  C   UNL     1      -1.192   7.884 -29.624  1.00  0.00     0.009 A 
ENDBRANCH  25  26
ENDBRANCH  21  25
ENDBRANCH   1  19
TORSDOF 6
ENDMDL
MODEL 7
REMARK VINA RESULT:      -9.0      5.263      7.997
REMARK  6 active torsions:
REMARK  status: ('A' for Active; 'I' for Inactive)
REMARK    1  A    between atoms: C_4  and  C_5 
REMARK    2  A    between atoms: C_5  and  N_6 
REMARK    3  A    between atoms: C_8  and  C_9 
REMARK       I    between atoms: C_9  and  N_10 
REMARK    4  A    between atoms: N_10  and  N_11 
REMARK    5  A    between atoms: C_12  and  C_13 
REMARK    6  A    between atoms: C_14  and  O_15 
ROOT
HETATM    1  C   UNL     1      -8.250   1.457 -32.045  1.00  0.00     0.273 C 
HETATM    2  N   UNL     1      -6.866   1.414 -32.072  1.00  0.00    -0.243 N 
HETATM    3  O   UNL     1      -8.982   0.473 -31.974  1.00  0.00    -0.266 OA
HETATM    4  H   UNL     1      -6.281   2.241 -32.071  1.00  0.00     0.192 HD
ENDROOT
BRANCH   2   5
HETATM    5  N   UNL     1      -6.268   0.201 -31.916  1.00  0.00    -0.183 NA
HETATM    6  C   UNL     1      -5.591  -0.251 -32.928  1.00  0.00     0.153 C 
BRANCH   6   7
HETATM    7  C   UNL     1      -4.842  -1.531 -32.840  1.00  0.00     0.027 A 
HETATM    8  C   UNL     1      -3.731  -1.618 -31.980  1.00  0.00     0.078 A 
HETATM    9  C   UNL     1      -2.965  -2.773 -31.928  1.00  0.00     0.038 A 
HETATM   10  C   UNL     1      -3.298  -3.860 -32.729  1.00  0.00     0.015 A 
HETATM   11  C   UNL     1      -4.407  -3.814 -33.585  1.00  0.00    -0.025 A 
HETATM   12  C   UNL     1      -5.213  -2.645 -33.654  1.00  0.00    -0.012 A 
HETATM   13  C   UNL     1      -4.712  -4.936 -34.371  1.00  0.00     0.012 A 
HETATM   14  C   UNL     1      -6.332  -2.691 -34.528  1.00  0.00     0.013 A 
HETATM   15  C   UNL     1      -6.625  -3.819 -35.301  1.00  0.00     0.001 A 
HETATM   16  C   UNL     1      -5.812  -4.940 -35.226  1.00  0.00     0.001 A 
BRANCH   8  17
HETATM   17  O   UNL     1      -3.316  -0.602 -31.161  1.00  0.00    -0.360 OA
HETATM   18  H   UNL     1      -2.672  -0.964 -30.513  1.00  0.00     0.217 HD
ENDBRANCH   8  17
ENDBRANCH   6   7
ENDBRANCH   2   5
BRANCH   1  19
HETATM   19  C   UNL     1      -8.909   2.784 -32.049  1.00  0.00     0.049 A 
HETATM   20  C   UNL     1      -9.951   2.946 -32.966  1.00  0.00     0.108 A 
HETATM   21  N   UNL     1     -10.659   4.100 -33.025  1.00  0.00    -0.361 N 
HETATM   22  C   UNL     1     -10.358   5.134 -32.208  1.00  0.00     0.090 A 
HETATM   23  C   UNL     1      -9.311   5.030 -31.296  1.00  0.00     0.018 A 
HETATM   24  C   UNL     1      -8.579   3.848 -31.213  1.00  0.00     0.020 A 
BRANCH  21  25
HETATM   25  C   UNL     1     -11.779   4.223 -33.995  1.00  0.00     0.166 C 
BRANCH  25  26
HETATM   26  C   UNL     1     -12.872   3.235 -33.682  1.00  0.00    -0.040 A 
HETATM   27  C   UNL     1     -13.640   3.377 -32.515  1.00  0.00     0.009 A 
HETATM   28  C   UNL     1     -14.664   2.474 -32.227  1.00  0.00     0.001 A 
HETATM   29  C   UNL     1     -14.936   1.422 -33.098  1.00  0.00     0.000 A 
HETATM   30  C   UNL     1     -14.188   1.275 -34.264  1.00  0.00     0.001 A 
HETATM   31  C   UNL     1     -13.166   2.178 -34.558  1.00  0.00     0.009 A 
ENDBRANCH  25  26
ENDBRANCH  21  25
ENDBRANCH   1  19
TORSDOF 6
ENDMDL
MODEL 8
REMARK VINA RESULT:      -8.9      2.630      4.359
REMARK  6 active torsions:
REMARK  status: ('A' for Active; 'I' for Inactive)
REMARK    1  A    between atoms: C_4  and  C_5 
REMARK    2  A    between atoms: C_5  and  N_6 
REMARK    3  A    between atoms: C_8  and  C_9 
REMARK       I    between atoms: C_9  and  N_10 
REMARK    4  A    between atoms: N_10  and  N_11 
REMARK    5  A    between atoms: C_12  and  C_13 
REMARK    6  A    between atoms: C_14  and  O_15 
ROOT
HETATM    1  C   UNL     1      -2.356   4.526 -32.582  1.00  0.00     0.273 C 
HETATM    2  N   UNL     1      -3.148   3.497 -32.100  1.00  0.00    -0.243 N 
HETATM    3  O   UNL     1      -2.350   4.922 -33.745  1.00  0.00    -0.266 OA
HETATM    4  H   UNL     1      -3.181   3.227 -31.125  1.00  0.00     0.192 HD
ENDROOT
BRANCH   2   5
HETATM    5  N   UNL     1      -4.055   2.946 -32.953  1.00  0.00    -0.183 NA
HETATM    6  C   UNL     1      -4.657   1.868 -32.548  1.00  0.00     0.153 C 
BRANCH   6   7
HETATM    7  C   UNL     1      -5.713   1.224 -33.370  1.00  0.00     0.027 A 
HETATM    8  C   UNL     1      -6.846   1.974 -33.740  1.00  0.00     0.078 A 
HETATM    9  C   UNL     1      -7.886   1.385 -34.444  1.00  0.00     0.038 A 
HETATM   10  C   UNL     1      -7.810   0.041 -34.792  1.00  0.00     0.015 A 
HETATM   11  C   UNL     1      -6.691  -0.731 -34.454  1.00  0.00    -0.025 A 
HETATM   12  C   UNL     1      -5.608  -0.152 -33.738  1.00  0.00    -0.012 A 
HETATM   13  C   UNL     1      -6.651  -2.083 -34.831  1.00  0.00     0.012 A 
HETATM   14  C   UNL     1      -4.502  -0.999 -33.457  1.00  0.00     0.013 A 
HETATM   15  C   UNL     1      -4.477  -2.342 -33.844  1.00  0.00     0.001 A 
HETATM   16  C   UNL     1      -5.554  -2.885 -34.528  1.00  0.00     0.001 A 
BRANCH   8  17
HETATM   17  O   UNL     1      -7.020   3.298 -33.436  1.00  0.00    -0.360 OA
HETATM   18  H   UNL     1      -7.824   3.624 -33.898  1.00  0.00     0.217 HD
ENDBRANCH   8  17
ENDBRANCH   6   7
ENDBRANCH   2   5
BRANCH   1  19
HETATM   19  C   UNL     1      -1.483   5.245 -31.624  1.00  0.00     0.049 A 
HETATM   20  C   UNL     1      -2.138   5.946 -30.608  1.00  0.00     0.108 A 
HETATM   21  N   UNL     1      -1.441   6.600 -29.648  1.00  0.00    -0.361 N 
HETATM   22  C   UNL     1      -0.089   6.606 -29.662  1.00  0.00     0.090 A 
HETATM   23  C   UNL     1       0.608   5.944 -30.669  1.00  0.00     0.018 A 
HETATM   24  C   UNL     1      -0.091   5.257 -31.660  1.00  0.00     0.020 A 
BRANCH  21  25
HETATM   25  C   UNL     1      -2.174   7.311 -28.568  1.00  0.00     0.166 C 
BRANCH  25  26
HETATM   26  C   UNL     1      -2.162   8.800 -28.798  1.00  0.00    -0.040 A 
HETATM   27  C   UNL     1      -1.695   9.666 -27.795  1.00  0.00     0.009 A 
HETATM   28  C   UNL     1      -1.668  11.045 -28.008  1.00  0.00     0.001 A 
HETATM   29  C   UNL     1      -2.102  11.575 -29.220  1.00  0.00     0.000 A 
HETATM   30  C   UNL     1      -2.559  10.727 -30.226  1.00  0.00     0.001 A 
HETATM   31  C   UNL     1      -2.583   9.348 -30.020  1.00  0.00     0.009 A 
ENDBRANCH  25  26
ENDBRANCH  21  25
ENDBRANCH   1  19
TORSDOF 6
ENDMDL
MODEL 9
REMARK VINA RESULT:      -8.8      5.572      8.491
REMARK  6 active torsions:
REMARK  status: ('A' for Active; 'I' for Inactive)
REMARK    1  A    between atoms: C_4  and  C_5 
REMARK    2  A    between atoms: C_5  and  N_6 
REMARK    3  A    between atoms: C_8  and  C_9 
REMARK       I    between atoms: C_9  and  N_10 
REMARK    4  A    between atoms: N_10  and  N_11 
REMARK    5  A    between atoms: C_12  and  C_13 
REMARK    6  A    between atoms: C_14  and  O_15 
ROOT
HETATM    1  C   UNL     1      -8.639   2.945 -31.020  1.00  0.00     0.273 C 
HETATM    2  N   UNL     1      -8.827   1.610 -31.332  1.00  0.00    -0.243 N 
HETATM    3  O   UNL     1      -7.590   3.428 -30.601  1.00  0.00    -0.266 OA
HETATM    4  H   UNL     1      -9.683   1.244 -31.733  1.00  0.00     0.192 HD
ENDROOT
BRANCH   2   5
HETATM    5  N   UNL     1      -7.746   0.786 -31.260  1.00  0.00    -0.183 NA
HETATM    6  C   UNL     1      -7.125   0.538 -32.374  1.00  0.00     0.153 C 
BRANCH   6   7
HETATM    7  C   UNL     1      -5.893  -0.292 -32.397  1.00  0.00     0.027 A 
HETATM    8  C   UNL     1      -4.800   0.081 -31.592  1.00  0.00     0.078 A 
HETATM    9  C   UNL     1      -3.608  -0.627 -31.644  1.00  0.00     0.038 A 
HETATM   10  C   UNL     1      -3.490  -1.720 -32.496  1.00  0.00     0.015 A 
HETATM   11  C   UNL     1      -4.563  -2.129 -33.299  1.00  0.00    -0.025 A 
HETATM   12  C   UNL     1      -5.798  -1.425 -33.262  1.00  0.00    -0.012 A 
HETATM   13  C   UNL     1      -4.405  -3.242 -34.140  1.00  0.00     0.012 A 
HETATM   14  C   UNL     1      -6.842  -1.921 -34.089  1.00  0.00     0.013 A 
HETATM   15  C   UNL     1      -6.668  -3.034 -34.917  1.00  0.00     0.001 A 
HETATM   16  C   UNL     1      -5.448  -3.692 -34.946  1.00  0.00     0.001 A 
BRANCH   8  17
HETATM   17  O   UNL     1      -4.812   1.145 -30.730  1.00  0.00    -0.360 OA
HETATM   18  H   UNL     1      -4.014   1.097 -30.160  1.00  0.00     0.217 HD
ENDBRANCH   8  17
ENDBRANCH   6   7
ENDBRANCH   2   5
BRANCH   1  19
HETATM   19  C   UNL     1      -9.762   3.884 -31.252  1.00  0.00     0.049 A 
HETATM   20  C   UNL     1     -10.492   3.686 -32.427  1.00  0.00     0.108 A 
HETATM   21  N   UNL     1     -11.570   4.452 -32.719  1.00  0.00    -0.361 N 
HETATM   22  C   UNL     1     -11.955   5.445 -31.886  1.00  0.00     0.090 A 
HETATM   23  C   UNL     1     -11.244   5.698 -30.716  1.00  0.00     0.018 A 
HETATM   24  C   UNL     1     -10.138   4.914 -30.393  1.00  0.00     0.020 A 
BRANCH  21  25
HETATM   25  C   UNL     1     -12.337   4.191 -33.965  1.00  0.00     0.166 C 
BRANCH  25  26
HETATM   26  C   UNL     1     -13.127   2.914 -33.854  1.00  0.00    -0.040 A 
HETATM   27  C   UNL     1     -12.786   1.801 -34.639  1.00  0.00     0.009 A 
HETATM   28  C   UNL     1     -13.506   0.610 -34.530  1.00  0.00     0.001 A 
HETATM   29  C   UNL     1     -14.570   0.514 -33.637  1.00  0.00     0.000 A 
HETATM   30  C   UNL     1     -14.913   1.607 -32.845  1.00  0.00     0.001 A 
HETATM   31  C   UNL     1     -14.194   2.798 -32.948  1.00  0.00     0.009 A 
ENDBRANCH  25  26
ENDBRANCH  21  25
ENDBRANCH   1  19
TORSDOF 6
ENDMDL
MODEL 10
REMARK VINA RESULT:      -8.8      1.911      2.797
REMARK  6 active torsions:
REMARK  status: ('A' for Active; 'I' for Inactive)
REMARK    1  A    between atoms: C_4  and  C_5 
REMARK    2  A    between atoms: C_5  and  N_6 
REMARK    3  A    between atoms: C_8  and  C_9 
REMARK       I    between atoms: C_9  and  N_10 
REMARK    4  A    between atoms: N_10  and  N_11 
REMARK    5  A    between atoms: C_12  and  C_13 
REMARK    6  A    between atoms: C_14  and  O_15 
ROOT
HETATM    1  C   UNL     1      -6.371   2.470 -31.276  1.00  0.00     0.273 C 
HETATM    2  N   UNL     1      -5.582   1.856 -32.234  1.00  0.00    -0.243 N 
HETATM    3  O   UNL     1      -6.859   1.905 -30.299  1.00  0.00    -0.266 OA
HETATM    4  H   UNL     1      -5.142   2.353 -32.998  1.00  0.00     0.192 HD
ENDROOT
BRANCH   2   5
HETATM    5  N   UNL     1      -5.243   0.553 -32.032  1.00  0.00    -0.183 NA
HETATM    6  C   UNL     1      -4.900  -0.130 -33.083  1.00  0.00     0.153 C 
BRANCH   6   7
HETATM    7  C   UNL     1      -4.445  -1.540 -32.967  1.00  0.00     0.027 A 
HETATM    8  C   UNL     1      -3.397  -1.851 -32.081  1.00  0.00     0.078 A 
HETATM    9  C   UNL     1      -2.898  -3.143 -32.001  1.00  0.00     0.038 A 
HETATM   10  C   UNL     1      -3.438  -4.143 -32.801  1.00  0.00     0.015 A 
HETATM   11  C   UNL     1      -4.493  -3.872 -33.683  1.00  0.00    -0.025 A 
HETATM   12  C   UNL     1      -5.029  -2.559 -33.781  1.00  0.00    -0.012 A 
HETATM   13  C   UNL     1      -5.015  -4.913 -34.468  1.00  0.00     0.012 A 
HETATM   14  C   UNL     1      -6.112  -2.376 -34.681  1.00  0.00     0.013 A 
HETATM   15  C   UNL     1      -6.623  -3.424 -35.452  1.00  0.00     0.001 A 
HETATM   16  C   UNL     1      -6.071  -4.692 -35.348  1.00  0.00     0.001 A 
BRANCH   8  17
HETATM   17  O   UNL     1      -2.792  -0.937 -31.260  1.00  0.00    -0.360 OA
HETATM   18  H   UNL     1      -3.261  -0.929 -30.397  1.00  0.00     0.217 HD
ENDBRANCH   8  17
ENDBRANCH   6   7
ENDBRANCH   2   5
BRANCH   1  19
HETATM   19  C   UNL     1      -6.612   3.927 -31.395  1.00  0.00     0.049 A 
HETATM   20  C   UNL     1      -5.499   4.749 -31.196  1.00  0.00     0.108 A 
HETATM   21  N   UNL     1      -5.589   6.094 -31.328  1.00  0.00    -0.361 N 
HETATM   22  C   UNL     1      -6.769   6.677 -31.639  1.00  0.00     0.090 A 
HETATM   23  C   UNL     1      -7.912   5.902 -31.821  1.00  0.00     0.018 A 
HETATM   24  C   UNL     1      -7.836   4.516 -31.699  1.00  0.00     0.020 A 
BRANCH  21  25
HETATM   25  C   UNL     1      -4.377   6.931 -31.136  1.00  0.00     0.166 C 
BRANCH  25  26
HETATM   26  C   UNL     1      -3.227   6.412 -31.959  1.00  0.00    -0.040 A 
HETATM   27  C   UNL     1      -3.193   6.634 -33.345  1.00  0.00     0.009 A 
HETATM   28  C   UNL     1      -2.124   6.168 -34.111  1.00  0.00     0.001 A 
HETATM   29  C   UNL     1      -1.077   5.477 -33.505  1.00  0.00     0.000 A 
HETATM   30  C   UNL     1      -1.094   5.258 -32.130  1.00  0.00     0.001 A 
HETATM   31  C   UNL     1      -2.158   5.726 -31.359  1.00  0.00     0.009 A 
ENDBRANCH  25  26
ENDBRANCH  21  25
ENDBRANCH   1  19
TORSDOF 6
ENDMDL
