MODEL 1
REMARK VINA RESULT:      -8.2      0.000      0.000
REMARK  9 active torsions:
REMARK  status: ('A' for Active; 'I' for Inactive)
REMARK    1  A    between atoms: C_2  and  C_3 
REMARK    2  A    between atoms: C_3  and  C_4 
REMARK    3  A    between atoms: C_7  and  C_8 
REMARK       I    between atoms: C_8  and  N_9 
REMARK    4  A    between atoms: C_13  and  O_14 
REMARK    5  A    between atoms: O_14  and  C_15 
REMARK    6  A    between atoms: C_15  and  C_16 
REMARK    7  A    between atoms: C_16  and  O_17 
REMARK    8  A    between atoms: C_19  and  N_20 
REMARK       I    between atoms: N_20  and  C_21 
REMARK    9  A    between atoms: C_21  and  C_22 
ROOT
HETATM    1  C   UNL     1     -11.150   3.006 -34.105  1.00  0.00     0.274 C 
HETATM    2  N   UNL     1     -10.068   3.216 -33.232  1.00  0.00    -0.347 N 
HETATM    3  C   UNL     1      -9.856   2.469 -31.990  1.00  0.00     0.127 C 
HETATM    4  C   UNL     1      -8.891   1.316 -32.262  1.00  0.00     0.037 C 
HETATM    5  C   UNL     1      -7.539   1.830 -32.811  1.00  0.00     0.019 C 
HETATM    6  C   UNL     1      -6.673   2.587 -31.727  1.00  0.00     0.162 C 
HETATM    7  C   UNL     1      -5.189   2.141 -31.937  1.00  0.00     0.148 C 
HETATM    8  C   UNL     1      -5.336   0.851 -32.688  1.00  0.00    -0.026 A 
HETATM    9  C   UNL     1      -6.627   0.679 -33.192  1.00  0.00    -0.038 A 
HETATM   10  C   UNL     1      -4.339  -0.088 -32.927  1.00  0.00     0.010 A 
HETATM   11  C   UNL     1      -4.647  -1.215 -33.689  1.00  0.00     0.001 A 
HETATM   12  C   UNL     1      -5.936  -1.386 -34.208  1.00  0.00     0.001 A 
HETATM   13  C   UNL     1      -6.932  -0.437 -33.964  1.00  0.00     0.009 A 
HETATM   14  C   UNL     1      -7.794   2.730 -34.051  1.00  0.00     0.037 C 
HETATM   15  C   UNL     1      -8.848   3.808 -33.772  1.00  0.00     0.127 C 
HETATM   16  O   UNL     1     -11.054   3.270 -35.306  1.00  0.00    -0.266 OA
ENDROOT
BRANCH   6  17
HETATM   17  O   UNL     1      -7.127   2.240 -30.402  1.00  0.00    -0.380 OA
BRANCH  17  18
HETATM   18  C   UNL     1      -7.151   3.355 -29.507  1.00  0.00     0.194 C 
BRANCH  18  19
HETATM   19  C   UNL     1      -7.510   4.614 -30.291  1.00  0.00     0.193 C 
BRANCH  19  20
HETATM   20  O   UNL     1      -8.789   5.087 -29.877  1.00  0.00    -0.394 OA
HETATM   21  C   UNL     1      -9.302   6.063 -30.774  1.00  0.00     0.201 C 
ENDBRANCH  19  20
ENDBRANCH  18  19
ENDBRANCH  17  18
ENDBRANCH   6  17
BRANCH   7  22
HETATM   22  N   UNL     1      -4.390   3.078 -32.705  1.00  0.00    -0.350 N 
HETATM   23  C   UNL     1      -3.097   3.377 -32.346  1.00  0.00     0.221 C 
HETATM   24  O   UNL     1      -2.604   3.003 -31.287  1.00  0.00    -0.273 OA
HETATM   25  H   UNL     1      -4.741   3.375 -33.606  1.00  0.00     0.163 HD
BRANCH  23  26
HETATM   26  C   UNL     1      -2.341   4.205 -33.380  1.00  0.00     0.070 C 
HETATM   27  C   UNL     1      -3.302   5.063 -34.201  1.00  0.00     0.019 C 
HETATM   28  C   UNL     1      -1.302   5.090 -32.692  1.00  0.00     0.019 C 
ENDBRANCH  23  26
ENDBRANCH   7  22
BRANCH   1  29
HETATM   29  C   UNL     1     -12.406   2.434 -33.594  1.00  0.00     0.154 A 
HETATM   30  N   UNL     1     -12.819   1.181 -33.851  1.00  0.00    -0.123 NA
HETATM   31  O   UNL     1     -14.051   1.045 -33.245  1.00  0.00    -0.217 OA
HETATM   32  C   UNL     1     -14.348   2.178 -32.556  1.00  0.00     0.081 A 
HETATM   33  C   UNL     1     -13.325   3.078 -32.720  1.00  0.00     0.074 A 
BRANCH  32  34
HETATM   34  C   UNL     1     -15.662   2.220 -31.866  1.00  0.00     0.071 C 
BRANCH  34  35
HETATM   35  C   UNL     1     -16.587   3.350 -32.354  1.00  0.00    -0.017 C 
HETATM   36  C   UNL     1     -16.295   4.684 -31.659  1.00  0.00     0.010 C 
HETATM   37  C   UNL     1     -18.048   2.960 -32.102  1.00  0.00     0.010 C 
ENDBRANCH  34  35
ENDBRANCH  32  34
ENDBRANCH   1  29
TORSDOF 9
ENDMDL
MODEL 2
REMARK VINA RESULT:      -8.2      2.783      8.674
REMARK  9 active torsions:
REMARK  status: ('A' for Active; 'I' for Inactive)
REMARK    1  A    between atoms: C_2  and  C_3 
REMARK    2  A    between atoms: C_3  and  C_4 
REMARK    3  A    between atoms: C_7  and  C_8 
REMARK       I    between atoms: C_8  and  N_9 
REMARK    4  A    between atoms: C_13  and  O_14 
REMARK    5  A    between atoms: O_14  and  C_15 
REMARK    6  A    between atoms: C_15  and  C_16 
REMARK    7  A    between atoms: C_16  and  O_17 
REMARK    8  A    between atoms: C_19  and  N_20 
REMARK       I    between atoms: N_20  and  C_21 
REMARK    9  A    between atoms: C_21  and  C_22 
ROOT
HETATM    1  C   UNL     1      -7.068   0.699 -31.791  1.00  0.00     0.274 C 
HETATM    2  N   UNL     1      -7.806   1.750 -32.364  1.00  0.00    -0.347 N 
HETATM    3  C   UNL     1      -8.075   1.881 -33.798  1.00  0.00     0.127 C 
HETATM    4  C   UNL     1      -9.449   1.286 -34.102  1.00  0.00     0.037 C 
HETATM    5  C   UNL     1     -10.561   1.989 -33.286  1.00  0.00     0.019 C 
HETATM    6  C   UNL     1     -10.851   3.465 -33.769  1.00  0.00     0.162 C 
HETATM    7  C   UNL     1     -12.401   3.661 -33.731  1.00  0.00     0.148 C 
HETATM    8  C   UNL     1     -12.912   2.251 -33.764  1.00  0.00    -0.026 A 
HETATM    9  C   UNL     1     -11.906   1.320 -33.500  1.00  0.00    -0.038 A 
HETATM   10  C   UNL     1     -14.225   1.850 -33.984  1.00  0.00     0.010 A 
HETATM   11  C   UNL     1     -14.528   0.489 -33.934  1.00  0.00     0.001 A 
HETATM   12  C   UNL     1     -13.525  -0.448 -33.656  1.00  0.00     0.001 A 
HETATM   13  C   UNL     1     -12.208  -0.036 -33.434  1.00  0.00     0.009 A 
HETATM   14  C   UNL     1     -10.192   1.957 -31.777  1.00  0.00     0.037 C 
HETATM   15  C   UNL     1      -8.766   2.459 -31.523  1.00  0.00     0.127 C 
HETATM   16  O   UNL     1      -7.261   0.353 -30.623  1.00  0.00    -0.266 OA
ENDROOT
BRANCH   6  17
HETATM   17  O   UNL     1     -10.346   3.655 -35.107  1.00  0.00    -0.380 OA
BRANCH  17  18
HETATM   18  C   UNL     1     -10.096   5.028 -35.424  1.00  0.00     0.194 C 
BRANCH  18  19
HETATM   19  C   UNL     1      -9.279   5.656 -34.300  1.00  0.00     0.193 C 
BRANCH  19  20
HETATM   20  O   UNL     1      -7.935   5.185 -34.364  1.00  0.00    -0.394 OA
HETATM   21  C   UNL     1      -7.200   5.538 -33.200  1.00  0.00     0.201 C 
ENDBRANCH  19  20
ENDBRANCH  18  19
ENDBRANCH  17  18
ENDBRANCH   6  17
BRANCH   7  22
HETATM   22  N   UNL     1     -12.886   4.340 -32.542  1.00  0.00    -0.350 N 
HETATM   23  C   UNL     1     -13.705   5.440 -32.632  1.00  0.00     0.221 C 
HETATM   24  O   UNL     1     -13.941   6.001 -33.696  1.00  0.00    -0.273 OA
HETATM   25  H   UNL     1     -12.751   3.887 -31.648  1.00  0.00     0.163 HD
BRANCH  23  26
HETATM   26  C   UNL     1     -14.288   5.890 -31.295  1.00  0.00     0.070 C 
HETATM   27  C   UNL     1     -15.782   5.581 -31.220  1.00  0.00     0.019 C 
HETATM   28  C   UNL     1     -13.551   5.211 -30.141  1.00  0.00     0.019 C 
ENDBRANCH  23  26
ENDBRANCH   7  22
BRANCH   1  29
HETATM   29  C   UNL     1      -6.073  -0.025 -32.599  1.00  0.00     0.154 A 
HETATM   30  N   UNL     1      -4.831   0.428 -32.844  1.00  0.00    -0.123 NA
HETATM   31  O   UNL     1      -4.235  -0.500 -33.672  1.00  0.00    -0.217 OA
HETATM   32  C   UNL     1      -5.076  -1.550 -33.861  1.00  0.00     0.081 A 
HETATM   33  C   UNL     1      -6.242  -1.313 -33.178  1.00  0.00     0.074 A 
BRANCH  32  34
HETATM   34  C   UNL     1      -4.606  -2.634 -34.760  1.00  0.00     0.071 C 
BRANCH  34  35
HETATM   35  C   UNL     1      -5.108  -4.034 -34.365  1.00  0.00    -0.017 C 
HETATM   36  C   UNL     1      -3.959  -5.018 -34.120  1.00  0.00     0.010 C 
HETATM   37  C   UNL     1      -6.014  -4.585 -35.472  1.00  0.00     0.010 C 
ENDBRANCH  34  35
ENDBRANCH  32  34
ENDBRANCH   1  29
TORSDOF 9
ENDMDL
MODEL 3
REMARK VINA RESULT:      -7.9      2.549      9.547
REMARK  9 active torsions:
REMARK  status: ('A' for Active; 'I' for Inactive)
REMARK    1  A    between atoms: C_2  and  C_3 
REMARK    2  A    between atoms: C_3  and  C_4 
REMARK    3  A    between atoms: C_7  and  C_8 
REMARK       I    between atoms: C_8  and  N_9 
REMARK    4  A    between atoms: C_13  and  O_14 
REMARK    5  A    between atoms: O_14  and  C_15 
REMARK    6  A    between atoms: C_15  and  C_16 
REMARK    7  A    between atoms: C_16  and  O_17 
REMARK    8  A    between atoms: C_19  and  N_20 
REMARK       I    between atoms: N_20  and  C_21 
REMARK    9  A    between atoms: C_21  and  C_22 
ROOT
HETATM    1  C   UNL     1      -3.521   5.129 -33.627  1.00  0.00     0.274 C 
HETATM    2  N   UNL     1      -4.436   4.091 -33.371  1.00  0.00    -0.347 N 
HETATM    3  C   UNL     1      -4.588   3.430 -32.073  1.00  0.00     0.127 C 
HETATM    4  C   UNL     1      -5.738   4.087 -31.312  1.00  0.00     0.037 C 
HETATM    5  C   UNL     1      -7.061   4.004 -32.109  1.00  0.00     0.019 C 
HETATM    6  C   UNL     1      -7.656   2.542 -32.181  1.00  0.00     0.162 C 
HETATM    7  C   UNL     1      -9.204   2.670 -31.998  1.00  0.00     0.148 C 
HETATM    8  C   UNL     1      -9.348   4.007 -31.334  1.00  0.00    -0.026 A 
HETATM    9  C   UNL     1      -8.174   4.760 -31.407  1.00  0.00    -0.038 A 
HETATM   10  C   UNL     1     -10.494   4.516 -30.733  1.00  0.00     0.010 A 
HETATM   11  C   UNL     1     -10.457   5.805 -30.203  1.00  0.00     0.001 A 
HETATM   12  C   UNL     1      -9.287   6.570 -30.285  1.00  0.00     0.001 A 
HETATM   13  C   UNL     1      -8.140   6.051 -30.891  1.00  0.00     0.009 A 
HETATM   14  C   UNL     1      -6.845   4.590 -33.531  1.00  0.00     0.037 C 
HETATM   15  C   UNL     1      -5.617   3.984 -34.222  1.00  0.00     0.127 C 
HETATM   16  O   UNL     1      -3.737   5.956 -34.515  1.00  0.00    -0.266 OA
ENDROOT
BRANCH   6  17
HETATM   17  O   UNL     1      -7.086   1.725 -31.137  1.00  0.00    -0.380 OA
BRANCH  17  18
HETATM   18  C   UNL     1      -7.107   0.328 -31.443  1.00  0.00     0.194 C 
BRANCH  18  19
HETATM   19  C   UNL     1      -6.529   0.116 -32.839  1.00  0.00     0.193 C 
BRANCH  19  20
HETATM   20  O   UNL     1      -7.483  -0.563 -33.653  1.00  0.00    -0.394 OA
HETATM   21  C   UNL     1      -7.528  -0.024 -34.967  1.00  0.00     0.201 C 
ENDBRANCH  19  20
ENDBRANCH  18  19
ENDBRANCH  17  18
ENDBRANCH   6  17
BRANCH   7  22
HETATM   22  N   UNL     1      -9.953   2.647 -33.241  1.00  0.00    -0.350 N 
HETATM   23  C   UNL     1     -10.661   1.534 -33.629  1.00  0.00     0.221 C 
HETATM   24  O   UNL     1     -10.576   0.461 -33.042  1.00  0.00    -0.273 OA
HETATM   25  H   UNL     1     -10.085   3.522 -33.733  1.00  0.00     0.163 HD
BRANCH  23  26
HETATM   26  C   UNL     1     -11.557   1.761 -34.843  1.00  0.00     0.070 C 
HETATM   27  C   UNL     1     -12.955   1.195 -34.603  1.00  0.00     0.019 C 
HETATM   28  C   UNL     1     -11.641   3.252 -35.168  1.00  0.00     0.019 C 
ENDBRANCH  23  26
ENDBRANCH   7  22
BRANCH   1  29
HETATM   29  C   UNL     1      -2.306   5.255 -32.807  1.00  0.00     0.154 A 
HETATM   30  N   UNL     1      -1.575   4.210 -32.382  1.00  0.00    -0.123 NA
HETATM   31  O   UNL     1      -0.561   4.734 -31.607  1.00  0.00    -0.217 OA
HETATM   32  C   UNL     1      -0.624   6.090 -31.630  1.00  0.00     0.081 A 
HETATM   33  C   UNL     1      -1.693   6.472 -32.400  1.00  0.00     0.074 A 
BRANCH  32  34
HETATM   34  C   UNL     1       0.379   6.823 -30.816  1.00  0.00     0.071 C 
BRANCH  34  35
HETATM   35  C   UNL     1       0.089   6.806 -29.304  1.00  0.00    -0.017 C 
HETATM   36  C   UNL     1       0.587   8.072 -28.601  1.00  0.00     0.010 C 
HETATM   37  C   UNL     1       0.757   5.582 -28.669  1.00  0.00     0.010 C 
ENDBRANCH  34  35
ENDBRANCH  32  34
ENDBRANCH   1  29
TORSDOF 9
ENDMDL
MODEL 4
REMARK VINA RESULT:      -7.8      1.954      2.398
REMARK  9 active torsions:
REMARK  status: ('A' for Active; 'I' for Inactive)
REMARK    1  A    between atoms: C_2  and  C_3 
REMARK    2  A    between atoms: C_3  and  C_4 
REMARK    3  A    between atoms: C_7  and  C_8 
REMARK       I    between atoms: C_8  and  N_9 
REMARK    4  A    between atoms: C_13  and  O_14 
REMARK    5  A    between atoms: O_14  and  C_15 
REMARK    6  A    between atoms: C_15  and  C_16 
REMARK    7  A    between atoms: C_16  and  O_17 
REMARK    8  A    between atoms: C_19  and  N_20 
REMARK       I    between atoms: N_20  and  C_21 
REMARK    9  A    between atoms: C_21  and  C_22 
ROOT
HETATM    1  C   UNL     1      -9.581   4.376 -34.164  1.00  0.00     0.274 C 
HETATM    2  N   UNL     1      -8.511   4.515 -33.262  1.00  0.00    -0.347 N 
HETATM    3  C   UNL     1      -8.443   3.852 -31.957  1.00  0.00     0.127 C 
HETATM    4  C   UNL     1      -7.632   2.564 -32.096  1.00  0.00     0.037 C 
HETATM    5  C   UNL     1      -6.205   2.851 -32.622  1.00  0.00     0.019 C 
HETATM    6  C   UNL     1      -5.283   3.576 -31.564  1.00  0.00     0.162 C 
HETATM    7  C   UNL     1      -3.866   2.924 -31.671  1.00  0.00     0.148 C 
HETATM    8  C   UNL     1      -4.158   1.606 -32.325  1.00  0.00    -0.026 A 
HETATM    9  C   UNL     1      -5.443   1.563 -32.871  1.00  0.00    -0.038 A 
HETATM   10  C   UNL     1      -3.288   0.528 -32.445  1.00  0.00     0.010 A 
HETATM   11  C   UNL     1      -3.718  -0.608 -33.130  1.00  0.00     0.001 A 
HETATM   12  C   UNL     1      -5.000  -0.652 -33.691  1.00  0.00     0.001 A 
HETATM   13  C   UNL     1      -5.868   0.436 -33.567  1.00  0.00     0.009 A 
HETATM   14  C   UNL     1      -6.295   3.670 -33.939  1.00  0.00     0.037 C 
HETATM   15  C   UNL     1      -7.205   4.896 -33.792  1.00  0.00     0.127 C 
HETATM   16  O   UNL     1      -9.410   4.523 -35.376  1.00  0.00    -0.266 OA
ENDROOT
BRANCH   6  17
HETATM   17  O   UNL     1      -5.824   3.402 -30.237  1.00  0.00    -0.380 OA
BRANCH  17  18
HETATM   18  C   UNL     1      -5.711   4.576 -29.427  1.00  0.00     0.194 C 
BRANCH  18  19
HETATM   19  C   UNL     1      -7.064   4.868 -28.785  1.00  0.00     0.193 C 
BRANCH  19  20
HETATM   20  O   UNL     1      -7.355   6.259 -28.896  1.00  0.00    -0.394 OA
HETATM   21  C   UNL     1      -6.575   6.879 -29.910  1.00  0.00     0.201 C 
ENDBRANCH  19  20
ENDBRANCH  18  19
ENDBRANCH  17  18
ENDBRANCH   6  17
BRANCH   7  22
HETATM   22  N   UNL     1      -2.923   3.681 -32.474  1.00  0.00    -0.350 N 
HETATM   23  C   UNL     1      -2.246   4.759 -31.955  1.00  0.00     0.221 C 
HETATM   24  O   UNL     1      -2.510   5.236 -30.856  1.00  0.00    -0.273 OA
HETATM   25  H   UNL     1      -2.644   3.298 -33.368  1.00  0.00     0.163 HD
BRANCH  23  26
HETATM   26  C   UNL     1      -1.145   5.297 -32.864  1.00  0.00     0.070 C 
HETATM   27  C   UNL     1      -1.583   5.270 -34.326  1.00  0.00     0.019 C 
HETATM   28  C   UNL     1      -0.767   6.720 -32.453  1.00  0.00     0.019 C 
ENDBRANCH  23  26
ENDBRANCH   7  22
BRANCH   1  29
HETATM   29  C   UNL     1     -10.919   4.016 -33.666  1.00  0.00     0.154 A 
HETATM   30  N   UNL     1     -11.665   4.810 -32.878  1.00  0.00    -0.123 NA
HETATM   31  O   UNL     1     -12.813   4.103 -32.589  1.00  0.00    -0.217 OA
HETATM   32  C   UNL     1     -12.804   2.923 -33.263  1.00  0.00     0.081 A 
HETATM   33  C   UNL     1     -11.640   2.832 -33.984  1.00  0.00     0.074 A 
BRANCH  32  34
HETATM   34  C   UNL     1     -13.956   2.013 -33.041  1.00  0.00     0.071 C 
BRANCH  34  35
HETATM   35  C   UNL     1     -14.084   0.898 -34.094  1.00  0.00    -0.017 C 
HETATM   36  C   UNL     1     -15.541   0.613 -34.469  1.00  0.00     0.010 C 
HETATM   37  C   UNL     1     -13.441  -0.387 -33.561  1.00  0.00     0.010 C 
ENDBRANCH  34  35
ENDBRANCH  32  34
ENDBRANCH   1  29
TORSDOF 9
ENDMDL
MODEL 5
REMARK VINA RESULT:      -7.8      4.544      7.618
REMARK  9 active torsions:
REMARK  status: ('A' for Active; 'I' for Inactive)
REMARK    1  A    between atoms: C_2  and  C_3 
REMARK    2  A    between atoms: C_3  and  C_4 
REMARK    3  A    between atoms: C_7  and  C_8 
REMARK       I    between atoms: C_8  and  N_9 
REMARK    4  A    between atoms: C_13  and  O_14 
REMARK    5  A    between atoms: O_14  and  C_15 
REMARK    6  A    between atoms: C_15  and  C_16 
REMARK    7  A    between atoms: C_16  and  O_17 
REMARK    8  A    between atoms: C_19  and  N_20 
REMARK       I    between atoms: N_20  and  C_21 
REMARK    9  A    between atoms: C_21  and  C_22 
ROOT
HETATM    1  C   UNL     1      -5.807   1.260 -31.298  1.00  0.00     0.274 C 
HETATM    2  N   UNL     1      -5.075   2.355 -31.792  1.00  0.00    -0.347 N 
HETATM    3  C   UNL     1      -5.348   3.019 -33.069  1.00  0.00     0.127 C 
HETATM    4  C   UNL     1      -6.231   4.239 -32.815  1.00  0.00     0.037 C 
HETATM    5  C   UNL     1      -5.558   5.228 -31.834  1.00  0.00     0.019 C 
HETATM    6  C   UNL     1      -4.319   5.983 -32.461  1.00  0.00     0.162 C 
HETATM    7  C   UNL     1      -4.396   7.468 -31.976  1.00  0.00     0.148 C 
HETATM    8  C   UNL     1      -5.839   7.614 -31.592  1.00  0.00    -0.026 A 
HETATM    9  C   UNL     1      -6.485   6.380 -31.492  1.00  0.00    -0.038 A 
HETATM   10  C   UNL     1      -6.507   8.801 -31.315  1.00  0.00     0.010 A 
HETATM   11  C   UNL     1      -7.846   8.743 -30.926  1.00  0.00     0.001 A 
HETATM   12  C   UNL     1      -8.494   7.508 -30.811  1.00  0.00     0.001 A 
HETATM   13  C   UNL     1      -7.815   6.319 -31.091  1.00  0.00     0.009 A 
HETATM   14  C   UNL     1      -5.155   4.476 -30.537  1.00  0.00     0.037 C 
HETATM   15  C   UNL     1      -4.363   3.197 -30.837  1.00  0.00     0.127 C 
HETATM   16  O   UNL     1      -5.886   1.046 -30.086  1.00  0.00    -0.266 OA
ENDROOT
BRANCH   6  17
HETATM   17  O   UNL     1      -4.376   5.914 -33.901  1.00  0.00    -0.380 OA
BRANCH  17  18
HETATM   18  C   UNL     1      -3.091   5.746 -34.507  1.00  0.00     0.194 C 
BRANCH  18  19
HETATM   19  C   UNL     1      -2.262   4.788 -33.657  1.00  0.00     0.193 C 
BRANCH  19  20
HETATM   20  O   UNL     1      -1.003   5.384 -33.356  1.00  0.00    -0.394 OA
HETATM   21  C   UNL     1      -0.695   5.288 -31.972  1.00  0.00     0.201 C 
ENDBRANCH  19  20
ENDBRANCH  18  19
ENDBRANCH  17  18
ENDBRANCH   6  17
BRANCH   7  22
HETATM   22  N   UNL     1      -3.544   7.767 -30.840  1.00  0.00    -0.350 N 
HETATM   23  C   UNL     1      -2.428   8.559 -30.972  1.00  0.00     0.221 C 
HETATM   24  O   UNL     1      -2.003   8.921 -32.063  1.00  0.00    -0.273 OA
HETATM   25  H   UNL     1      -3.880   7.524 -29.917  1.00  0.00     0.163 HD
BRANCH  23  26
HETATM   26  C   UNL     1      -1.779   8.942 -29.646  1.00  0.00     0.070 C 
HETATM   27  C   UNL     1      -2.822   9.035 -28.533  1.00  0.00     0.019 C 
HETATM   28  C   UNL     1      -0.699   7.927 -29.272  1.00  0.00     0.019 C 
ENDBRANCH  23  26
ENDBRANCH   7  22
BRANCH   1  29
HETATM   29  C   UNL     1      -6.520   0.372 -32.231  1.00  0.00     0.154 A 
HETATM   30  N   UNL     1      -7.859   0.305 -32.329  1.00  0.00    -0.123 NA
HETATM   31  O   UNL     1      -8.132  -0.670 -33.266  1.00  0.00    -0.217 OA
HETATM   32  C   UNL     1      -6.969  -1.133 -33.795  1.00  0.00     0.081 A 
HETATM   33  C   UNL     1      -5.919  -0.484 -33.195  1.00  0.00     0.074 A 
BRANCH  32  34
HETATM   34  C   UNL     1      -7.074  -2.219 -34.802  1.00  0.00     0.071 C 
BRANCH  34  35
HETATM   35  C   UNL     1      -6.128  -3.405 -34.542  1.00  0.00    -0.017 C 
HETATM   36  C   UNL     1      -4.671  -3.073 -34.877  1.00  0.00     0.010 C 
HETATM   37  C   UNL     1      -6.575  -4.609 -35.380  1.00  0.00     0.010 C 
ENDBRANCH  34  35
ENDBRANCH  32  34
ENDBRANCH   1  29
TORSDOF 9
ENDMDL
MODEL 6
REMARK VINA RESULT:      -7.6      4.730      7.744
REMARK  9 active torsions:
REMARK  status: ('A' for Active; 'I' for Inactive)
REMARK    1  A    between atoms: C_2  and  C_3 
REMARK    2  A    between atoms: C_3  and  C_4 
REMARK    3  A    between atoms: C_7  and  C_8 
REMARK       I    between atoms: C_8  and  N_9 
REMARK    4  A    between atoms: C_13  and  O_14 
REMARK    5  A    between atoms: O_14  and  C_15 
REMARK    6  A    between atoms: C_15  and  C_16 
REMARK    7  A    between atoms: C_16  and  O_17 
REMARK    8  A    between atoms: C_19  and  N_20 
REMARK       I    between atoms: N_20  and  C_21 
REMARK    9  A    between atoms: C_21  and  C_22 
ROOT
HETATM    1  C   UNL     1      -6.199   0.247 -31.679  1.00  0.00     0.274 C 
HETATM    2  N   UNL     1      -5.199   1.222 -31.509  1.00  0.00    -0.347 N 
HETATM    3  C   UNL     1      -4.542   1.928 -32.611  1.00  0.00     0.127 C 
HETATM    4  C   UNL     1      -5.244   3.267 -32.832  1.00  0.00     0.037 C 
HETATM    5  C   UNL     1      -5.217   4.136 -31.551  1.00  0.00     0.019 C 
HETATM    6  C   UNL     1      -3.780   4.698 -31.209  1.00  0.00     0.162 C 
HETATM    7  C   UNL     1      -3.970   6.173 -30.728  1.00  0.00     0.148 C 
HETATM    8  C   UNL     1      -5.311   6.535 -31.296  1.00  0.00    -0.026 A 
HETATM    9  C   UNL     1      -6.016   5.412 -31.736  1.00  0.00    -0.038 A 
HETATM   10  C   UNL     1      -5.865   7.808 -31.370  1.00  0.00     0.010 A 
HETATM   11  C   UNL     1      -7.151   7.951 -31.891  1.00  0.00     0.001 A 
HETATM   12  C   UNL     1      -7.867   6.828 -32.321  1.00  0.00     0.001 A 
HETATM   13  C   UNL     1      -7.303   5.551 -32.242  1.00  0.00     0.009 A 
HETATM   14  C   UNL     1      -5.796   3.322 -30.362  1.00  0.00     0.037 C 
HETATM   15  C   UNL     1      -5.142   1.940 -30.239  1.00  0.00     0.127 C 
HETATM   16  O   UNL     1      -7.036   0.040 -30.798  1.00  0.00    -0.266 OA
ENDROOT
BRANCH   6  17
HETATM   17  O   UNL     1      -2.938   4.648 -32.381  1.00  0.00    -0.380 OA
BRANCH  17  18
HETATM   18  C   UNL     1      -1.926   5.658 -32.388  1.00  0.00     0.194 C 
BRANCH  18  19
HETATM   19  C   UNL     1      -1.675   6.101 -33.826  1.00  0.00     0.193 C 
BRANCH  19  20
HETATM   20  O   UNL     1      -1.343   7.487 -33.848  1.00  0.00    -0.394 OA
HETATM   21  C   UNL     1      -1.686   8.128 -32.627  1.00  0.00     0.201 C 
ENDBRANCH  19  20
ENDBRANCH  18  19
ENDBRANCH  17  18
ENDBRANCH   6  17
BRANCH   7  22
HETATM   22  N   UNL     1      -3.980   6.332 -29.286  1.00  0.00    -0.350 N 
HETATM   23  C   UNL     1      -3.140   7.221 -28.659  1.00  0.00     0.221 C 
HETATM   24  O   UNL     1      -2.239   7.806 -29.250  1.00  0.00    -0.273 OA
HETATM   25  H   UNL     1      -4.734   5.903 -28.765  1.00  0.00     0.163 HD
BRANCH  23  26
HETATM   26  C   UNL     1      -3.435   7.413 -27.174  1.00  0.00     0.070 C 
HETATM   27  C   UNL     1      -3.001   8.800 -26.705  1.00  0.00     0.019 C 
HETATM   28  C   UNL     1      -4.925   7.206 -26.900  1.00  0.00     0.019 C 
ENDBRANCH  23  26
ENDBRANCH   7  22
BRANCH   1  29
HETATM   29  C   UNL     1      -6.274  -0.515 -32.935  1.00  0.00     0.154 A 
HETATM   30  N   UNL     1      -7.251  -0.366 -33.846  1.00  0.00    -0.123 NA
HETATM   31  O   UNL     1      -6.998  -1.286 -34.843  1.00  0.00    -0.217 OA
HETATM   32  C   UNL     1      -5.831  -1.931 -34.582  1.00  0.00     0.081 A 
HETATM   33  C   UNL     1      -5.317  -1.459 -33.401  1.00  0.00     0.074 A 
BRANCH  32  34
HETATM   34  C   UNL     1      -5.418  -2.987 -35.541  1.00  0.00     0.071 C 
BRANCH  34  35
HETATM   35  C   UNL     1      -5.854  -4.406 -35.132  1.00  0.00    -0.017 C 
HETATM   36  C   UNL     1      -7.203  -4.416 -34.405  1.00  0.00     0.010 C 
HETATM   37  C   UNL     1      -4.788  -5.027 -34.222  1.00  0.00     0.010 C 
ENDBRANCH  34  35
ENDBRANCH  32  34
ENDBRANCH   1  29
TORSDOF 9
ENDMDL
MODEL 7
REMARK VINA RESULT:      -7.6      2.728      5.767
REMARK  9 active torsions:
REMARK  status: ('A' for Active; 'I' for Inactive)
REMARK    1  A    between atoms: C_2  and  C_3 
REMARK    2  A    between atoms: C_3  and  C_4 
REMARK    3  A    between atoms: C_7  and  C_8 
REMARK       I    between atoms: C_8  and  N_9 
REMARK    4  A    between atoms: C_13  and  O_14 
REMARK    5  A    between atoms: O_14  and  C_15 
REMARK    6  A    between atoms: C_15  and  C_16 
REMARK    7  A    between atoms: C_16  and  O_17 
REMARK    8  A    between atoms: C_19  and  N_20 
REMARK       I    between atoms: N_20  and  C_21 
REMARK    9  A    between atoms: C_21  and  C_22 
ROOT
HETATM    1  C   UNL     1      -6.883   0.818 -32.236  1.00  0.00     0.274 C 
HETATM    2  N   UNL     1      -5.980   1.855 -32.532  1.00  0.00    -0.347 N 
HETATM    3  C   UNL     1      -6.368   3.145 -33.109  1.00  0.00     0.127 C 
HETATM    4  C   UNL     1      -6.540   4.161 -31.981  1.00  0.00     0.037 C 
HETATM    5  C   UNL     1      -5.239   4.315 -31.158  1.00  0.00     0.019 C 
HETATM    6  C   UNL     1      -4.087   5.057 -31.945  1.00  0.00     0.162 C 
HETATM    7  C   UNL     1      -3.389   6.021 -30.931  1.00  0.00     0.148 C 
HETATM    8  C   UNL     1      -4.429   6.186 -29.863  1.00  0.00    -0.026 A 
HETATM    9  C   UNL     1      -5.446   5.235 -29.969  1.00  0.00    -0.038 A 
HETATM   10  C   UNL     1      -4.424   7.124 -28.837  1.00  0.00     0.010 A 
HETATM   11  C   UNL     1      -5.458   7.100 -27.901  1.00  0.00     0.001 A 
HETATM   12  C   UNL     1      -6.473   6.140 -27.994  1.00  0.00     0.001 A 
HETATM   13  C   UNL     1      -6.470   5.200 -29.028  1.00  0.00     0.009 A 
HETATM   14  C   UNL     1      -4.770   2.919 -30.666  1.00  0.00     0.037 C 
HETATM   15  C   UNL     1      -4.713   1.897 -31.808  1.00  0.00     0.127 C 
HETATM   16  O   UNL     1      -6.633  -0.005 -31.353  1.00  0.00    -0.266 OA
ENDROOT
BRANCH   6  17
HETATM   17  O   UNL     1      -4.643   5.798 -33.052  1.00  0.00    -0.380 OA
BRANCH  17  18
HETATM   18  C   UNL     1      -3.991   5.525 -34.295  1.00  0.00     0.194 C 
BRANCH  18  19
HETATM   19  C   UNL     1      -2.710   4.743 -34.023  1.00  0.00     0.193 C 
BRANCH  19  20
HETATM   20  O   UNL     1      -1.618   5.362 -34.699  1.00  0.00    -0.394 OA
HETATM   21  C   UNL     1      -1.169   6.524 -34.014  1.00  0.00     0.201 C 
ENDBRANCH  19  20
ENDBRANCH  18  19
ENDBRANCH  17  18
ENDBRANCH   6  17
BRANCH   7  22
HETATM   22  N   UNL     1      -2.164   5.495 -30.357  1.00  0.00    -0.350 N 
HETATM   23  C   UNL     1      -1.072   6.301 -30.140  1.00  0.00     0.221 C 
HETATM   24  O   UNL     1      -1.010   7.453 -30.556  1.00  0.00    -0.273 OA
HETATM   25  H   UNL     1      -2.186   4.563 -29.962  1.00  0.00     0.163 HD
BRANCH  23  26
HETATM   26  C   UNL     1       0.042   5.635 -29.338  1.00  0.00     0.070 C 
HETATM   27  C   UNL     1       1.066   4.981 -30.263  1.00  0.00     0.019 C 
HETATM   28  C   UNL     1       0.727   6.659 -28.433  1.00  0.00     0.019 C 
ENDBRANCH  23  26
ENDBRANCH   7  22
BRANCH   1  29
HETATM   29  C   UNL     1      -8.160   0.727 -32.962  1.00  0.00     0.154 A 
HETATM   30  N   UNL     1      -8.259   0.649 -34.300  1.00  0.00    -0.123 NA
HETATM   31  O   UNL     1      -9.607   0.633 -34.590  1.00  0.00    -0.217 OA
HETATM   32  C   UNL     1     -10.323   0.618 -33.436  1.00  0.00     0.081 A 
HETATM   33  C   UNL     1      -9.453   0.646 -32.375  1.00  0.00     0.074 A 
BRANCH  32  34
HETATM   34  C   UNL     1     -11.802   0.635 -33.561  1.00  0.00     0.071 C 
BRANCH  34  35
HETATM   35  C   UNL     1     -12.395   2.041 -33.763  1.00  0.00    -0.017 C 
HETATM   36  C   UNL     1     -13.724   2.226 -33.023  1.00  0.00     0.010 C 
HETATM   37  C   UNL     1     -12.614   2.294 -35.259  1.00  0.00     0.010 C 
ENDBRANCH  34  35
ENDBRANCH  32  34
ENDBRANCH   1  29
TORSDOF 9
ENDMDL
MODEL 8
REMARK VINA RESULT:      -7.6      3.448      8.003
REMARK  9 active torsions:
REMARK  status: ('A' for Active; 'I' for Inactive)
REMARK    1  A    between atoms: C_2  and  C_3 
REMARK    2  A    between atoms: C_3  and  C_4 
REMARK    3  A    between atoms: C_7  and  C_8 
REMARK       I    between atoms: C_8  and  N_9 
REMARK    4  A    between atoms: C_13  and  O_14 
REMARK    5  A    between atoms: O_14  and  C_15 
REMARK    6  A    between atoms: C_15  and  C_16 
REMARK    7  A    between atoms: C_16  and  O_17 
REMARK    8  A    between atoms: C_19  and  N_20 
REMARK       I    between atoms: N_20  and  C_21 
REMARK    9  A    between atoms: C_21  and  C_22 
ROOT
HETATM    1  C   UNL     1      -6.096   0.185 -31.494  1.00  0.00     0.274 C 
HETATM    2  N   UNL     1      -6.014   1.547 -31.837  1.00  0.00    -0.347 N 
HETATM    3  C   UNL     1      -5.688   2.040 -33.177  1.00  0.00     0.127 C 
HETATM    4  C   UNL     1      -6.986   2.345 -33.923  1.00  0.00     0.037 C 
HETATM    5  C   UNL     1      -7.841   3.389 -33.165  1.00  0.00     0.019 C 
HETATM    6  C   UNL     1      -7.224   4.843 -33.198  1.00  0.00     0.162 C 
HETATM    7  C   UNL     1      -8.411   5.838 -33.410  1.00  0.00     0.148 C 
HETATM    8  C   UNL     1      -9.478   4.958 -33.993  1.00  0.00    -0.026 A 
HETATM    9  C   UNL     1      -9.180   3.602 -33.845  1.00  0.00    -0.038 A 
HETATM   10  C   UNL     1     -10.663   5.374 -34.588  1.00  0.00     0.010 A 
HETATM   11  C   UNL     1     -11.564   4.408 -35.036  1.00  0.00     0.001 A 
HETATM   12  C   UNL     1     -11.277   3.047 -34.878  1.00  0.00     0.001 A 
HETATM   13  C   UNL     1     -10.083   2.637 -34.278  1.00  0.00     0.009 A 
HETATM   14  C   UNL     1      -8.064   2.910 -31.704  1.00  0.00     0.037 C 
HETATM   15  C   UNL     1      -6.749   2.510 -31.023  1.00  0.00     0.127 C 
HETATM   16  O   UNL     1      -6.809  -0.191 -30.562  1.00  0.00    -0.266 OA
ENDROOT
BRANCH   6  17
HETATM   17  O   UNL     1      -6.271   4.951 -34.277  1.00  0.00    -0.380 OA
BRANCH  17  18
HETATM   18  C   UNL     1      -5.008   5.477 -33.860  1.00  0.00     0.194 C 
BRANCH  18  19
HETATM   19  C   UNL     1      -3.977   5.222 -34.956  1.00  0.00     0.193 C 
BRANCH  19  20
HETATM   20  O   UNL     1      -2.867   6.099 -34.781  1.00  0.00    -0.394 OA
HETATM   21  C   UNL     1      -1.644   5.382 -34.677  1.00  0.00     0.201 C 
ENDBRANCH  19  20
ENDBRANCH  18  19
ENDBRANCH  17  18
ENDBRANCH   6  17
BRANCH   7  22
HETATM   22  N   UNL     1      -8.891   6.460 -32.189  1.00  0.00    -0.350 N 
HETATM   23  C   UNL     1      -8.321   7.613 -31.703  1.00  0.00     0.221 C 
HETATM   24  O   UNL     1      -7.292   8.087 -32.172  1.00  0.00    -0.273 OA
HETATM   25  H   UNL     1      -9.762   6.127 -31.796  1.00  0.00     0.163 HD
BRANCH  23  26
HETATM   26  C   UNL     1      -9.084   8.240 -30.541  1.00  0.00     0.070 C 
HETATM   27  C   UNL     1      -8.714   9.712 -30.375  1.00  0.00     0.019 C 
HETATM   28  C   UNL     1     -10.591   8.097 -30.759  1.00  0.00     0.019 C 
ENDBRANCH  23  26
ENDBRANCH   7  22
BRANCH   1  29
HETATM   29  C   UNL     1      -5.349  -0.815 -32.275  1.00  0.00     0.154 A 
HETATM   30  N   UNL     1      -4.162  -1.324 -31.903  1.00  0.00    -0.123 NA
HETATM   31  O   UNL     1      -3.771  -2.177 -32.914  1.00  0.00    -0.217 OA
HETATM   32  C   UNL     1      -4.749  -2.250 -33.854  1.00  0.00     0.081 A 
HETATM   33  C   UNL     1      -5.784  -1.429 -33.482  1.00  0.00     0.074 A 
BRANCH  32  34
HETATM   34  C   UNL     1      -4.480  -3.103 -35.039  1.00  0.00     0.071 C 
BRANCH  34  35
HETATM   35  C   UNL     1      -5.135  -4.494 -34.968  1.00  0.00    -0.017 C 
HETATM   36  C   UNL     1      -6.658  -4.416 -34.822  1.00  0.00     0.010 C 
HETATM   37  C   UNL     1      -4.556  -5.273 -33.782  1.00  0.00     0.010 C 
ENDBRANCH  34  35
ENDBRANCH  32  34
ENDBRANCH   1  29
TORSDOF 9
ENDMDL
MODEL 9
REMARK VINA RESULT:      -7.4      4.324      7.885
REMARK  9 active torsions:
REMARK  status: ('A' for Active; 'I' for Inactive)
REMARK    1  A    between atoms: C_2  and  C_3 
REMARK    2  A    between atoms: C_3  and  C_4 
REMARK    3  A    between atoms: C_7  and  C_8 
REMARK       I    between atoms: C_8  and  N_9 
REMARK    4  A    between atoms: C_13  and  O_14 
REMARK    5  A    between atoms: O_14  and  C_15 
REMARK    6  A    between atoms: C_15  and  C_16 
REMARK    7  A    between atoms: C_16  and  O_17 
REMARK    8  A    between atoms: C_19  and  N_20 
REMARK       I    between atoms: N_20  and  C_21 
REMARK    9  A    between atoms: C_21  and  C_22 
ROOT
HETATM    1  C   UNL     1      -5.993   0.918 -31.417  1.00  0.00     0.274 C 
HETATM    2  N   UNL     1      -5.214   2.079 -31.569  1.00  0.00    -0.347 N 
HETATM    3  C   UNL     1      -4.948   2.729 -32.855  1.00  0.00     0.127 C 
HETATM    4  C   UNL     1      -5.952   3.863 -33.056  1.00  0.00     0.037 C 
HETATM    5  C   UNL     1      -5.870   4.899 -31.909  1.00  0.00     0.019 C 
HETATM    6  C   UNL     1      -4.550   5.768 -31.946  1.00  0.00     0.162 C 
HETATM    7  C   UNL     1      -4.960   7.234 -31.591  1.00  0.00     0.148 C 
HETATM    8  C   UNL     1      -6.431   7.247 -31.889  1.00  0.00    -0.026 A 
HETATM    9  C   UNL     1      -6.946   5.959 -32.047  1.00  0.00    -0.038 A 
HETATM   10  C   UNL     1      -7.250   8.366 -31.972  1.00  0.00     0.010 A 
HETATM   11  C   UNL     1      -8.612   8.184 -32.214  1.00  0.00     0.001 A 
HETATM   12  C   UNL     1      -9.137   6.895 -32.360  1.00  0.00     0.001 A 
HETATM   13  C   UNL     1      -8.306   5.775 -32.273  1.00  0.00     0.009 A 
HETATM   14  C   UNL     1      -6.021   4.172 -30.545  1.00  0.00     0.037 C 
HETATM   15  C   UNL     1      -5.072   2.973 -30.424  1.00  0.00     0.127 C 
HETATM   16  O   UNL     1      -6.582   0.686 -30.359  1.00  0.00    -0.266 OA
ENDROOT
BRANCH   6  17
HETATM   17  O   UNL     1      -3.958   5.708 -33.261  1.00  0.00    -0.380 OA
BRANCH  17  18
HETATM   18  C   UNL     1      -2.533   5.585 -33.229  1.00  0.00     0.194 C 
BRANCH  18  19
HETATM   19  C   UNL     1      -1.933   6.471 -34.317  1.00  0.00     0.193 C 
BRANCH  19  20
HETATM   20  O   UNL     1      -1.697   7.776 -33.795  1.00  0.00    -0.394 OA
HETATM   21  C   UNL     1      -1.306   7.731 -32.429  1.00  0.00     0.201 C 
ENDBRANCH  19  20
ENDBRANCH  18  19
ENDBRANCH  17  18
ENDBRANCH   6  17
BRANCH   7  22
HETATM   22  N   UNL     1      -4.728   7.597 -30.205  1.00  0.00    -0.350 N 
HETATM   23  C   UNL     1      -4.269   8.846 -29.860  1.00  0.00     0.221 C 
HETATM   24  O   UNL     1      -3.882   9.659 -30.693  1.00  0.00    -0.273 OA
HETATM   25  H   UNL     1      -5.074   6.974 -29.486  1.00  0.00     0.163 HD
BRANCH  23  26
HETATM   26  C   UNL     1      -4.290   9.122 -28.360  1.00  0.00     0.070 C 
HETATM   27  C   UNL     1      -5.633   9.709 -27.932  1.00  0.00     0.019 C 
HETATM   28  C   UNL     1      -4.003   7.839 -27.581  1.00  0.00     0.019 C 
ENDBRANCH  23  26
ENDBRANCH   7  22
BRANCH   1  29
HETATM   29  C   UNL     1      -6.140  -0.020 -32.541  1.00  0.00     0.154 A 
HETATM   30  N   UNL     1      -7.273  -0.173 -33.248  1.00  0.00    -0.123 NA
HETATM   31  O   UNL     1      -7.026  -1.171 -34.168  1.00  0.00    -0.217 OA
HETATM   32  C   UNL     1      -5.729  -1.563 -34.078  1.00  0.00     0.081 A 
HETATM   33  C   UNL     1      -5.115  -0.845 -33.083  1.00  0.00     0.074 A 
BRANCH  32  34
HETATM   34  C   UNL     1      -5.295  -2.662 -34.978  1.00  0.00     0.071 C 
BRANCH  34  35
HETATM   35  C   UNL     1      -5.771  -4.057 -34.535  1.00  0.00    -0.017 C 
HETATM   36  C   UNL     1      -4.605  -4.998 -34.217  1.00  0.00     0.010 C 
HETATM   37  C   UNL     1      -6.632  -4.679 -35.641  1.00  0.00     0.010 C 
ENDBRANCH  34  35
ENDBRANCH  32  34
ENDBRANCH   1  29
TORSDOF 9
ENDMDL
MODEL 10
REMARK VINA RESULT:      -7.4      3.754      9.406
REMARK  9 active torsions:
REMARK  status: ('A' for Active; 'I' for Inactive)
REMARK    1  A    between atoms: C_2  and  C_3 
REMARK    2  A    between atoms: C_3  and  C_4 
REMARK    3  A    between atoms: C_7  and  C_8 
REMARK       I    between atoms: C_8  and  N_9 
REMARK    4  A    between atoms: C_13  and  O_14 
REMARK    5  A    between atoms: O_14  and  C_15 
REMARK    6  A    between atoms: C_15  and  C_16 
REMARK    7  A    between atoms: C_16  and  O_17 
REMARK    8  A    between atoms: C_19  and  N_20 
REMARK       I    between atoms: N_20  and  C_21 
REMARK    9  A    between atoms: C_21  and  C_22 
ROOT
HETATM    1  C   UNL     1      -5.195   6.383 -27.988  1.00  0.00     0.274 C 
HETATM    2  N   UNL     1      -5.747   6.131 -29.257  1.00  0.00    -0.347 N 
HETATM    3  C   UNL     1      -5.042   6.361 -30.521  1.00  0.00     0.127 C 
HETATM    4  C   UNL     1      -4.407   5.050 -30.982  1.00  0.00     0.037 C 
HETATM    5  C   UNL     1      -5.470   3.940 -31.160  1.00  0.00     0.019 C 
HETATM    6  C   UNL     1      -6.414   4.174 -32.406  1.00  0.00     0.162 C 
HETATM    7  C   UNL     1      -6.626   2.782 -33.085  1.00  0.00     0.148 C 
HETATM    8  C   UNL     1      -5.458   1.987 -32.579  1.00  0.00    -0.026 A 
HETATM    9  C   UNL     1      -4.825   2.611 -31.502  1.00  0.00    -0.038 A 
HETATM   10  C   UNL     1      -5.028   0.753 -33.052  1.00  0.00     0.010 A 
HETATM   11  C   UNL     1      -3.944   0.136 -32.427  1.00  0.00     0.001 A 
HETATM   12  C   UNL     1      -3.313   0.750 -31.338  1.00  0.00     0.001 A 
HETATM   13  C   UNL     1      -3.753   1.990 -30.868  1.00  0.00     0.009 A 
HETATM   14  C   UNL     1      -6.296   3.801 -29.852  1.00  0.00     0.037 C 
HETATM   15  C   UNL     1      -6.826   5.154 -29.361  1.00  0.00     0.127 C 
HETATM   16  O   UNL     1      -5.579   5.759 -26.997  1.00  0.00    -0.266 OA
ENDROOT
BRANCH   6  17
HETATM   17  O   UNL     1      -5.798   5.100 -33.325  1.00  0.00    -0.380 OA
BRANCH  17  18
HETATM   18  C   UNL     1      -5.402   4.490 -34.556  1.00  0.00     0.194 C 
BRANCH  18  19
HETATM   19  C   UNL     1      -4.065   5.078 -34.996  1.00  0.00     0.193 C 
BRANCH  19  20
HETATM   20  O   UNL     1      -3.748   6.204 -34.181  1.00  0.00    -0.394 OA
HETATM   21  C   UNL     1      -2.348   6.450 -34.149  1.00  0.00     0.201 C 
ENDBRANCH  19  20
ENDBRANCH  18  19
ENDBRANCH  17  18
ENDBRANCH   6  17
BRANCH   7  22
HETATM   22  N   UNL     1      -7.870   2.127 -32.722  1.00  0.00    -0.350 N 
HETATM   23  C   UNL     1      -9.033   2.367 -33.415  1.00  0.00     0.221 C 
HETATM   24  O   UNL     1      -9.125   3.250 -34.260  1.00  0.00    -0.273 OA
HETATM   25  H   UNL     1      -7.829   1.362 -32.061  1.00  0.00     0.163 HD
BRANCH  23  26
HETATM   26  C   UNL     1     -10.183   1.438 -33.038  1.00  0.00     0.070 C 
HETATM   27  C   UNL     1     -11.225   1.379 -34.153  1.00  0.00     0.019 C 
HETATM   28  C   UNL     1      -9.653   0.035 -32.737  1.00  0.00     0.019 C 
ENDBRANCH  23  26
ENDBRANCH   7  22
BRANCH   1  29
HETATM   29  C   UNL     1      -4.121   7.378 -27.839  1.00  0.00     0.154 A 
HETATM   30  N   UNL     1      -4.333   8.701 -27.736  1.00  0.00    -0.123 NA
HETATM   31  O   UNL     1      -3.088   9.290 -27.666  1.00  0.00    -0.217 OA
HETATM   32  C   UNL     1      -2.129   8.329 -27.642  1.00  0.00     0.081 A 
HETATM   33  C   UNL     1      -2.732   7.098 -27.719  1.00  0.00     0.074 A 
BRANCH  32  34
HETATM   34  C   UNL     1      -0.717   8.788 -27.602  1.00  0.00     0.071 C 
BRANCH  34  35
HETATM   35  C   UNL     1       0.313   7.651 -27.725  1.00  0.00    -0.017 C 
HETATM   36  C   UNL     1       1.560   7.898 -26.871  1.00  0.00     0.010 C 
HETATM   37  C   UNL     1       0.731   7.495 -29.192  1.00  0.00     0.010 C 
ENDBRANCH  34  35
ENDBRANCH  32  34
ENDBRANCH   1  29
TORSDOF 9
ENDMDL
