MODEL 1
REMARK VINA RESULT:      -9.7      0.000      0.000
REMARK  6 active torsions:
REMARK  status: ('A' for Active; 'I' for Inactive)
REMARK    1  A    between atoms: C_4  and  N_5 
REMARK       I    between atoms: N_5  and  C_6 
REMARK       I    between atoms: C_6  and  N_16 
REMARK    2  A    between atoms: N_16  and  CA_17 
REMARK    3  A    between atoms: CA_17  and  C_18 
REMARK    4  A    between atoms: CA_17  and  CB_20 
REMARK    5  A    between atoms: C_18  and  O_19 
REMARK    6  A    between atoms: CB_20  and  CG_21 
ROOT
HETATM    1  N   UNK A   0      -3.424  -0.903 -32.573  1.00  0.00    -0.307 N 
HETATM    2  C   UNK A   0      -3.105   0.172 -31.812  1.00  0.00     0.321 C 
HETATM    3  O   UNK A   0      -2.201   0.085 -30.983  1.00  0.00    -0.247 OA
HETATM    4  H   UNK A   0      -2.800  -1.691 -32.402  1.00  0.00     0.170 HD
ATOM      5  N   TRP A   1      -3.804   1.317 -32.000  1.00  0.00    -0.336 N 
ATOM      6  H   TRP A   1      -3.977   1.539 -32.969  1.00  0.00     0.164 HD
ENDROOT
BRANCH   5   7
ATOM      7  CA  TRP A   1      -3.629   2.483 -31.123  1.00  0.00     0.114 C 
BRANCH   7   8
ATOM      8  C   TRP A   1      -2.891   3.606 -31.874  1.00  0.00     0.189 C 
BRANCH   8   9
ATOM      9  O   TRP A   1      -1.779   4.076 -31.108  1.00  0.00    -0.399 OA
ATOM     10  H   TRP A   1      -1.010   3.554 -31.399  1.00  0.00     0.209 HD
ENDBRANCH   8   9
ENDBRANCH   7   8
BRANCH   7  11
ATOM     11  CB  TRP A   1      -4.996   2.969 -30.595  1.00  0.00     0.068 C 
BRANCH  11  12
ATOM     12  CG  TRP A   1      -6.077   1.923 -30.686  1.00  0.00    -0.028 A 
ATOM     13  CD2 TRP A   1      -7.263   1.979 -31.493  1.00  0.00    -0.002 A 
ATOM     14  CE2 TRP A   1      -7.988   0.809 -31.258  1.00  0.00     0.042 A 
ATOM     15  CE3 TRP A   1      -7.793   2.918 -32.401  1.00  0.00     0.014 A 
ATOM     16  CZ2 TRP A   1      -9.211   0.532 -31.880  1.00  0.00     0.030 A 
ATOM     17  NE1 TRP A   1      -7.276   0.069 -30.346  1.00  0.00    -0.365 N 
ATOM     18  CH2 TRP A   1      -9.712   1.480 -32.775  1.00  0.00     0.002 A 
ATOM     19  CZ3 TRP A   1      -9.015   2.656 -33.035  1.00  0.00     0.001 A 
ATOM     20  HE1 TRP A   1      -7.571  -0.825 -29.978  1.00  0.00     0.165 HD
ATOM     21  CD1 TRP A   1      -6.125   0.722 -30.004  1.00  0.00     0.096 A 
ENDBRANCH  11  12
ENDBRANCH   7  11
ENDBRANCH   5   7
BRANCH   1  22
HETATM   22  C   UNK A   0      -4.497  -1.246 -33.435  1.00  0.00     0.066 A 
HETATM   23  C   UNK A   0      -5.464  -0.350 -33.906  1.00  0.00     0.038 A 
HETATM   24  C   UNK A   0      -6.500  -0.781 -34.745  1.00  0.00    -0.059 A 
HETATM   25  C   UNK A   0      -7.542   0.181 -35.235  1.00  0.00     0.048 C 
HETATM   26  C   UNK A   0      -6.581  -2.133 -35.081  1.00  0.00     0.020 A 
HETATM   27  C   UNK A   0      -5.635  -3.047 -34.596  1.00  0.00    -0.005 A 
HETATM   28  C   UNK A   0      -4.575  -2.610 -33.772  1.00  0.00     0.093 A 
HETATM   29  C   UNK A   0      -5.721  -4.412 -34.904  1.00  0.00     0.015 A 
HETATM   30  N   UNK A   0      -3.655  -3.480 -33.288  1.00  0.00    -0.258 NA
HETATM   31  C   UNK A   0      -3.773  -4.788 -33.604  1.00  0.00     0.117 A 
HETATM   32  C   UNK A   0      -4.779  -5.298 -34.399  1.00  0.00     0.020 A 
ENDBRANCH   1  22
TORSDOF 6
ENDMDL
MODEL 2
REMARK VINA RESULT:      -8.7      2.780      4.484
REMARK  6 active torsions:
REMARK  status: ('A' for Active; 'I' for Inactive)
REMARK    1  A    between atoms: C_4  and  N_5 
REMARK       I    between atoms: N_5  and  C_6 
REMARK       I    between atoms: C_6  and  N_16 
REMARK    2  A    between atoms: N_16  and  CA_17 
REMARK    3  A    between atoms: CA_17  and  C_18 
REMARK    4  A    between atoms: CA_17  and  CB_20 
REMARK    5  A    between atoms: C_18  and  O_19 
REMARK    6  A    between atoms: CB_20  and  CG_21 
ROOT
HETATM    1  N   UNK A   0      -6.202  -0.817 -34.587  1.00  0.00    -0.307 N 
HETATM    2  C   UNK A   0      -7.394  -0.184 -34.456  1.00  0.00     0.321 C 
HETATM    3  O   UNK A   0      -7.975   0.234 -35.455  1.00  0.00    -0.247 OA
HETATM    4  H   UNK A   0      -5.938  -0.934 -35.565  1.00  0.00     0.170 HD
ATOM      5  N   TRP A   1      -7.903  -0.037 -33.209  1.00  0.00    -0.336 N 
ATOM      6  H   TRP A   1      -7.809  -0.855 -32.627  1.00  0.00     0.164 HD
ENDROOT
BRANCH   5   7
ATOM      7  CA  TRP A   1      -9.111   0.762 -32.956  1.00  0.00     0.114 C 
BRANCH   7   8
ATOM      8  C   TRP A   1     -10.336  -0.158 -32.811  1.00  0.00     0.189 C 
BRANCH   8   9
ATOM      9  O   TRP A   1     -11.529   0.530 -33.193  1.00  0.00    -0.399 OA
ATOM     10  H   TRP A   1     -11.722   0.252 -34.106  1.00  0.00     0.209 HD
ENDBRANCH   8   9
ENDBRANCH   7   8
BRANCH   7  11
ATOM     11  CB  TRP A   1      -8.921   1.641 -31.701  1.00  0.00     0.068 C 
BRANCH  11  12
ATOM     12  CG  TRP A   1      -7.488   2.043 -31.466  1.00  0.00    -0.028 A 
ATOM     13  CD2 TRP A   1      -6.669   2.852 -32.323  1.00  0.00    -0.002 A 
ATOM     14  CE2 TRP A   1      -5.410   2.959 -31.727  1.00  0.00     0.042 A 
ATOM     15  CE3 TRP A   1      -6.876   3.502 -33.558  1.00  0.00     0.014 A 
ATOM     16  CZ2 TRP A   1      -4.354   3.677 -32.298  1.00  0.00     0.030 A 
ATOM     17  NE1 TRP A   1      -5.459   2.246 -30.553  1.00  0.00    -0.365 N 
ATOM     18  CH2 TRP A   1      -4.588   4.311 -33.521  1.00  0.00     0.002 A 
ATOM     19  CZ3 TRP A   1      -5.830   4.227 -34.143  1.00  0.00     0.001 A 
ATOM     20  HE1 TRP A   1      -4.681   2.136 -29.918  1.00  0.00     0.165 HD
ATOM     21  CD1 TRP A   1      -6.701   1.702 -30.382  1.00  0.00     0.096 A 
ENDBRANCH  11  12
ENDBRANCH   7  11
ENDBRANCH   5   7
BRANCH   1  22
HETATM   22  C   UNK A   0      -5.172  -1.222 -33.701  1.00  0.00     0.066 A 
HETATM   23  C   UNK A   0      -4.472  -0.366 -32.842  1.00  0.00     0.038 A 
HETATM   24  C   UNK A   0      -3.455  -0.852 -32.010  1.00  0.00    -0.059 A 
HETATM   25  C   UNK A   0      -2.699   0.072 -31.101  1.00  0.00     0.048 C 
HETATM   26  C   UNK A   0      -3.118  -2.205 -32.071  1.00  0.00     0.020 A 
HETATM   27  C   UNK A   0      -3.793  -3.070 -32.945  1.00  0.00    -0.005 A 
HETATM   28  C   UNK A   0      -4.835  -2.587 -33.766  1.00  0.00     0.093 A 
HETATM   29  C   UNK A   0      -3.446  -4.425 -33.036  1.00  0.00     0.015 A 
HETATM   30  N   UNK A   0      -5.494  -3.405 -34.623  1.00  0.00    -0.258 NA
HETATM   31  C   UNK A   0      -5.129  -4.705 -34.684  1.00  0.00     0.117 A 
HETATM   32  C   UNK A   0      -4.120  -5.256 -33.920  1.00  0.00     0.020 A 
ENDBRANCH   1  22
TORSDOF 6
ENDMDL
MODEL 3
REMARK VINA RESULT:      -8.7      2.986      5.590
REMARK  6 active torsions:
REMARK  status: ('A' for Active; 'I' for Inactive)
REMARK    1  A    between atoms: C_4  and  N_5 
REMARK       I    between atoms: N_5  and  C_6 
REMARK       I    between atoms: C_6  and  N_16 
REMARK    2  A    between atoms: N_16  and  CA_17 
REMARK    3  A    between atoms: CA_17  and  C_18 
REMARK    4  A    between atoms: CA_17  and  CB_20 
REMARK    5  A    between atoms: C_18  and  O_19 
REMARK    6  A    between atoms: CB_20  and  CG_21 
ROOT
HETATM    1  N   UNK A   0      -4.384   1.533 -32.279  1.00  0.00    -0.307 N 
HETATM    2  C   UNK A   0      -3.547   2.600 -32.264  1.00  0.00     0.321 C 
HETATM    3  O   UNK A   0      -2.761   2.743 -31.330  1.00  0.00    -0.247 OA
HETATM    4  H   UNK A   0      -4.211   0.901 -31.498  1.00  0.00     0.170 HD
ATOM      5  N   TRP A   1      -3.614   3.477 -33.295  1.00  0.00    -0.336 N 
ATOM      6  H   TRP A   1      -3.704   3.041 -34.200  1.00  0.00     0.164 HD
ENDROOT
BRANCH   5   7
ATOM      7  CA  TRP A   1      -2.854   4.735 -33.289  1.00  0.00     0.114 C 
BRANCH   7   8
ATOM      8  C   TRP A   1      -2.440   5.112 -34.722  1.00  0.00     0.189 C 
BRANCH   8   9
ATOM      9  O   TRP A   1      -3.505   5.792 -35.390  1.00  0.00    -0.399 OA
ATOM     10  H   TRP A   1      -4.221   5.141 -35.492  1.00  0.00     0.209 HD
ENDBRANCH   8   9
ENDBRANCH   7   8
BRANCH   7  11
ATOM     11  CB  TRP A   1      -3.682   5.860 -32.632  1.00  0.00     0.068 C 
BRANCH  11  12
ATOM     12  CG  TRP A   1      -3.194   6.235 -31.257  1.00  0.00    -0.028 A 
ATOM     13  CD2 TRP A   1      -1.846   6.554 -30.879  1.00  0.00    -0.002 A 
ATOM     14  CE2 TRP A   1      -1.845   6.825 -29.509  1.00  0.00     0.042 A 
ATOM     15  CE3 TRP A   1      -0.621   6.632 -31.573  1.00  0.00     0.014 A 
ATOM     16  CZ2 TRP A   1      -0.688   7.168 -28.801  1.00  0.00     0.030 A 
ATOM     17  NE1 TRP A   1      -3.138   6.680 -29.068  1.00  0.00    -0.365 N 
ATOM     18  CH2 TRP A   1       0.511   7.239 -29.514  1.00  0.00     0.002 A 
ATOM     19  CZ3 TRP A   1       0.547   6.976 -30.880  1.00  0.00     0.001 A 
ATOM     20  HE1 TRP A   1      -3.433   6.801 -28.109  1.00  0.00     0.165 HD
ATOM     21  CD1 TRP A   1      -3.956   6.337 -30.108  1.00  0.00     0.096 A 
ENDBRANCH  11  12
ENDBRANCH   7  11
ENDBRANCH   5   7
BRANCH   1  22
HETATM   22  C   UNK A   0      -5.528   1.159 -33.029  1.00  0.00     0.066 A 
HETATM   23  C   UNK A   0      -6.670   1.951 -33.197  1.00  0.00     0.038 A 
HETATM   24  C   UNK A   0      -7.763   1.494 -33.943  1.00  0.00    -0.059 A 
HETATM   25  C   UNK A   0      -8.990   2.342 -34.108  1.00  0.00     0.048 C 
HETATM   26  C   UNK A   0      -7.718   0.212 -34.495  1.00  0.00     0.020 A 
HETATM   27  C   UNK A   0      -6.592  -0.603 -34.314  1.00  0.00    -0.005 A 
HETATM   28  C   UNK A   0      -5.478  -0.134 -33.583  1.00  0.00     0.093 A 
HETATM   29  C   UNK A   0      -6.545  -1.902 -34.839  1.00  0.00     0.015 A 
HETATM   30  N   UNK A   0      -4.384  -0.910 -33.391  1.00  0.00    -0.258 NA
HETATM   31  C   UNK A   0      -4.378  -2.157 -33.910  1.00  0.00     0.117 A 
HETATM   32  C   UNK A   0      -5.424  -2.694 -34.633  1.00  0.00     0.020 A 
ENDBRANCH   1  22
TORSDOF 6
ENDMDL
MODEL 4
REMARK VINA RESULT:      -8.6      2.493      6.926
REMARK  6 active torsions:
REMARK  status: ('A' for Active; 'I' for Inactive)
REMARK    1  A    between atoms: C_4  and  N_5 
REMARK       I    between atoms: N_5  and  C_6 
REMARK       I    between atoms: C_6  and  N_16 
REMARK    2  A    between atoms: N_16  and  CA_17 
REMARK    3  A    between atoms: CA_17  and  C_18 
REMARK    4  A    between atoms: CA_17  and  CB_20 
REMARK    5  A    between atoms: C_18  and  O_19 
REMARK    6  A    between atoms: CB_20  and  CG_21 
ROOT
HETATM    1  N   UNK A   0      -5.598   2.622 -29.615  1.00  0.00    -0.307 N 
HETATM    2  C   UNK A   0      -6.157   1.533 -30.197  1.00  0.00     0.321 C 
HETATM    3  O   UNK A   0      -5.981   0.421 -29.703  1.00  0.00    -0.247 OA
HETATM    4  H   UNK A   0      -5.117   2.387 -28.747  1.00  0.00     0.170 HD
ATOM      5  N   TRP A   1      -6.898   1.718 -31.316  1.00  0.00    -0.336 N 
ATOM      6  H   TRP A   1      -7.510   2.519 -31.276  1.00  0.00     0.164 HD
ENDROOT
BRANCH   5   7
ATOM      7  CA  TRP A   1      -7.417   0.585 -32.095  1.00  0.00     0.114 C 
BRANCH   7   8
ATOM      8  C   TRP A   1      -8.941   0.711 -32.266  1.00  0.00     0.189 C 
BRANCH   8   9
ATOM      9  O   TRP A   1      -9.593   0.684 -30.994  1.00  0.00    -0.399 OA
ATOM     10  H   TRP A   1      -9.472  -0.217 -30.647  1.00  0.00     0.209 HD
ENDBRANCH   8   9
ENDBRANCH   7   8
BRANCH   7  11
ATOM     11  CB  TRP A   1      -6.706   0.504 -33.464  1.00  0.00     0.068 C 
BRANCH  11  12
ATOM     12  CG  TRP A   1      -5.649  -0.568 -33.524  1.00  0.00    -0.028 A 
ATOM     13  CD2 TRP A   1      -5.810  -1.911 -34.005  1.00  0.00    -0.002 A 
ATOM     14  CE2 TRP A   1      -4.582  -2.560 -33.865  1.00  0.00     0.042 A 
ATOM     15  CE3 TRP A   1      -6.890  -2.641 -34.543  1.00  0.00     0.014 A 
ATOM     16  CZ2 TRP A   1      -4.379  -3.895 -34.232  1.00  0.00     0.030 A 
ATOM     17  NE1 TRP A   1      -3.706  -1.652 -33.322  1.00  0.00    -0.365 N 
ATOM     18  CH2 TRP A   1      -5.466  -4.594 -34.763  1.00  0.00     0.002 A 
ATOM     19  CZ3 TRP A   1      -6.704  -3.978 -34.918  1.00  0.00     0.001 A 
ATOM     20  HE1 TRP A   1      -2.741  -1.852 -33.095  1.00  0.00     0.165 HD
ATOM     21  CD1 TRP A   1      -4.330  -0.453 -33.123  1.00  0.00     0.096 A 
ENDBRANCH  11  12
ENDBRANCH   7  11
ENDBRANCH   5   7
BRANCH   1  22
HETATM   22  C   UNK A   0      -5.396   3.975 -29.990  1.00  0.00     0.066 A 
HETATM   23  C   UNK A   0      -6.098   5.066 -29.464  1.00  0.00     0.038 A 
HETATM   24  C   UNK A   0      -5.842   6.371 -29.906  1.00  0.00    -0.059 A 
HETATM   25  C   UNK A   0      -6.607   7.535 -29.349  1.00  0.00     0.048 C 
HETATM   26  C   UNK A   0      -4.897   6.571 -30.914  1.00  0.00     0.020 A 
HETATM   27  C   UNK A   0      -4.204   5.485 -31.468  1.00  0.00    -0.005 A 
HETATM   28  C   UNK A   0      -4.442   4.173 -31.006  1.00  0.00     0.093 A 
HETATM   29  C   UNK A   0      -3.272   5.670 -32.499  1.00  0.00     0.015 A 
HETATM   30  N   UNK A   0      -3.788   3.110 -31.535  1.00  0.00    -0.258 NA
HETATM   31  C   UNK A   0      -2.899   3.328 -32.529  1.00  0.00     0.117 A 
HETATM   32  C   UNK A   0      -2.611   4.577 -33.041  1.00  0.00     0.020 A 
ENDBRANCH   1  22
TORSDOF 6
ENDMDL
MODEL 5
REMARK VINA RESULT:      -8.6      3.235      6.910
REMARK  6 active torsions:
REMARK  status: ('A' for Active; 'I' for Inactive)
REMARK    1  A    between atoms: C_4  and  N_5 
REMARK       I    between atoms: N_5  and  C_6 
REMARK       I    between atoms: C_6  and  N_16 
REMARK    2  A    between atoms: N_16  and  CA_17 
REMARK    3  A    between atoms: CA_17  and  C_18 
REMARK    4  A    between atoms: CA_17  and  CB_20 
REMARK    5  A    between atoms: C_18  and  O_19 
REMARK    6  A    between atoms: CB_20  and  CG_21 
ROOT
HETATM    1  N   UNK A   0      -8.704   2.318 -34.626  1.00  0.00    -0.307 N 
HETATM    2  C   UNK A   0      -7.592   2.266 -33.851  1.00  0.00     0.321 C 
HETATM    3  O   UNK A   0      -6.488   2.145 -34.378  1.00  0.00    -0.247 OA
HETATM    4  H   UNK A   0      -8.477   2.311 -35.620  1.00  0.00     0.170 HD
ATOM      5  N   TRP A   1      -7.747   2.351 -32.508  1.00  0.00    -0.336 N 
ATOM      6  H   TRP A   1      -8.417   3.045 -32.214  1.00  0.00     0.164 HD
ENDROOT
BRANCH   5   7
ATOM      7  CA  TRP A   1      -6.618   2.156 -31.586  1.00  0.00     0.114 C 
BRANCH   7   8
ATOM      8  C   TRP A   1      -6.693   3.172 -30.433  1.00  0.00     0.189 C 
BRANCH   8   9
ATOM      9  O   TRP A   1      -7.452   2.641 -29.344  1.00  0.00    -0.399 OA
ATOM     10  H   TRP A   1      -7.310   1.679 -29.359  1.00  0.00     0.209 HD
ENDBRANCH   8   9
ENDBRANCH   7   8
BRANCH   7  11
ATOM     11  CB  TRP A   1      -6.604   0.707 -31.054  1.00  0.00     0.068 C 
BRANCH  11  12
ATOM     12  CG  TRP A   1      -5.582  -0.168 -31.734  1.00  0.00    -0.028 A 
ATOM     13  CD2 TRP A   1      -5.799  -1.027 -32.863  1.00  0.00    -0.002 A 
ATOM     14  CE2 TRP A   1      -4.588  -1.660 -33.151  1.00  0.00     0.042 A 
ATOM     15  CE3 TRP A   1      -6.917  -1.333 -33.668  1.00  0.00     0.014 A 
ATOM     16  CZ2 TRP A   1      -4.438  -2.579 -34.196  1.00  0.00     0.030 A 
ATOM     17  NE1 TRP A   1      -3.669  -1.206 -32.237  1.00  0.00    -0.365 N 
ATOM     18  CH2 TRP A   1      -5.561  -2.862 -34.977  1.00  0.00     0.002 A 
ATOM     19  CZ3 TRP A   1      -6.783  -2.249 -34.719  1.00  0.00     0.001 A 
ATOM     20  HE1 TRP A   1      -2.705  -1.507 -32.196  1.00  0.00     0.165 HD
ATOM     21  CD1 TRP A   1      -4.250  -0.305 -31.390  1.00  0.00     0.096 A 
ENDBRANCH  11  12
ENDBRANCH   7  11
ENDBRANCH   5   7
BRANCH   1  22
HETATM   22  C   UNK A   0     -10.100   2.231 -34.393  1.00  0.00     0.066 A 
HETATM   23  C   UNK A   0     -10.785   1.058 -34.058  1.00  0.00     0.038 A 
HETATM   24  C   UNK A   0     -12.172   1.062 -33.862  1.00  0.00    -0.059 A 
HETATM   25  C   UNK A   0     -12.904  -0.202 -33.517  1.00  0.00     0.048 C 
HETATM   26  C   UNK A   0     -12.878   2.254 -34.039  1.00  0.00     0.020 A 
HETATM   27  C   UNK A   0     -12.208   3.432 -34.400  1.00  0.00    -0.005 A 
HETATM   28  C   UNK A   0     -10.807   3.435 -34.574  1.00  0.00     0.093 A 
HETATM   29  C   UNK A   0     -12.908   4.629 -34.608  1.00  0.00     0.015 A 
HETATM   30  N   UNK A   0     -10.144   4.562 -34.929  1.00  0.00    -0.258 NA
HETATM   31  C   UNK A   0     -10.853   5.695 -35.124  1.00  0.00     0.117 A 
HETATM   32  C   UNK A   0     -12.224   5.777 -34.979  1.00  0.00     0.020 A 
ENDBRANCH   1  22
TORSDOF 6
ENDMDL
MODEL 6
REMARK VINA RESULT:      -8.6      2.674      7.384
REMARK  6 active torsions:
REMARK  status: ('A' for Active; 'I' for Inactive)
REMARK    1  A    between atoms: C_4  and  N_5 
REMARK       I    between atoms: N_5  and  C_6 
REMARK       I    between atoms: C_6  and  N_16 
REMARK    2  A    between atoms: N_16  and  CA_17 
REMARK    3  A    between atoms: CA_17  and  C_18 
REMARK    4  A    between atoms: CA_17  and  CB_20 
REMARK    5  A    between atoms: C_18  and  O_19 
REMARK    6  A    between atoms: CB_20  and  CG_21 
ROOT
HETATM    1  N   UNK A   0      -3.971   3.122 -30.897  1.00  0.00    -0.307 N 
HETATM    2  C   UNK A   0      -4.853   2.101 -31.029  1.00  0.00     0.321 C 
HETATM    3  O   UNK A   0      -4.825   1.165 -30.232  1.00  0.00    -0.247 OA
HETATM    4  H   UNK A   0      -3.390   3.019 -30.065  1.00  0.00     0.170 HD
ATOM      5  N   TRP A   1      -5.744   2.155 -32.049  1.00  0.00    -0.336 N 
ATOM      6  H   TRP A   1      -6.150   3.067 -32.192  1.00  0.00     0.164 HD
ENDROOT
BRANCH   5   7
ATOM      7  CA  TRP A   1      -6.635   1.028 -32.357  1.00  0.00     0.114 C 
BRANCH   7   8
ATOM      8  C   TRP A   1      -8.105   1.468 -32.246  1.00  0.00     0.189 C 
BRANCH   8   9
ATOM      9  O   TRP A   1      -8.496   1.577 -30.875  1.00  0.00    -0.399 OA
ATOM     10  H   TRP A   1      -9.399   1.939 -30.878  1.00  0.00     0.209 HD
ENDBRANCH   8   9
ENDBRANCH   7   8
BRANCH   7  11
ATOM     11  CB  TRP A   1      -6.325   0.466 -33.761  1.00  0.00     0.068 C 
BRANCH  11  12
ATOM     12  CG  TRP A   1      -5.386  -0.712 -33.738  1.00  0.00    -0.028 A 
ATOM     13  CD2 TRP A   1      -5.679  -2.055 -34.153  1.00  0.00    -0.002 A 
ATOM     14  CE2 TRP A   1      -4.529  -2.821 -33.946  1.00  0.00     0.042 A 
ATOM     15  CE3 TRP A   1      -6.818  -2.697 -34.680  1.00  0.00     0.014 A 
ATOM     16  CZ2 TRP A   1      -4.461  -4.188 -34.238  1.00  0.00     0.030 A 
ATOM     17  NE1 TRP A   1      -3.573  -1.981 -33.428  1.00  0.00    -0.365 N 
ATOM     18  CH2 TRP A   1      -5.604  -4.797 -34.760  1.00  0.00     0.002 A 
ATOM     19  CZ3 TRP A   1      -6.767  -4.064 -34.980  1.00  0.00     0.001 A 
ATOM     20  HE1 TRP A   1      -2.640  -2.268 -33.166  1.00  0.00     0.165 HD
ATOM     21  CD1 TRP A   1      -4.072  -0.714 -33.308  1.00  0.00     0.096 A 
ENDBRANCH  11  12
ENDBRANCH   7  11
ENDBRANCH   5   7
BRANCH   1  22
HETATM   22  C   UNK A   0      -3.563   4.213 -31.706  1.00  0.00     0.066 A 
HETATM   23  C   UNK A   0      -2.803   4.102 -32.877  1.00  0.00     0.038 A 
HETATM   24  C   UNK A   0      -2.431   5.238 -33.606  1.00  0.00    -0.059 A 
HETATM   25  C   UNK A   0      -1.605   5.114 -34.853  1.00  0.00     0.048 C 
HETATM   26  C   UNK A   0      -2.797   6.498 -33.131  1.00  0.00     0.020 A 
HETATM   27  C   UNK A   0      -3.536   6.627 -31.946  1.00  0.00    -0.005 A 
HETATM   28  C   UNK A   0      -3.934   5.482 -31.223  1.00  0.00     0.093 A 
HETATM   29  C   UNK A   0      -3.887   7.887 -31.444  1.00  0.00     0.015 A 
HETATM   30  N   UNK A   0      -4.642   5.586 -30.072  1.00  0.00    -0.258 NA
HETATM   31  C   UNK A   0      -4.959   6.818 -29.618  1.00  0.00     0.117 A 
HETATM   32  C   UNK A   0      -4.606   7.987 -30.261  1.00  0.00     0.020 A 
ENDBRANCH   1  22
TORSDOF 6
ENDMDL
MODEL 7
REMARK VINA RESULT:      -8.5      2.955      7.734
REMARK  6 active torsions:
REMARK  status: ('A' for Active; 'I' for Inactive)
REMARK    1  A    between atoms: C_4  and  N_5 
REMARK       I    between atoms: N_5  and  C_6 
REMARK       I    between atoms: C_6  and  N_16 
REMARK    2  A    between atoms: N_16  and  CA_17 
REMARK    3  A    between atoms: CA_17  and  C_18 
REMARK    4  A    between atoms: CA_17  and  CB_20 
REMARK    5  A    between atoms: C_18  and  O_19 
REMARK    6  A    between atoms: CB_20  and  CG_21 
ROOT
HETATM    1  N   UNK A   0      -3.917   4.753 -30.726  1.00  0.00    -0.307 N 
HETATM    2  C   UNK A   0      -4.717   3.660 -30.689  1.00  0.00     0.321 C 
HETATM    3  O   UNK A   0      -5.409   3.444 -29.696  1.00  0.00    -0.247 OA
HETATM    4  H   UNK A   0      -4.034   5.339 -29.900  1.00  0.00     0.170 HD
ATOM      5  N   TRP A   1      -4.722   2.837 -31.766  1.00  0.00    -0.336 N 
ATOM      6  H   TRP A   1      -4.729   3.319 -32.652  1.00  0.00     0.164 HD
ENDROOT
BRANCH   5   7
ATOM      7  CA  TRP A   1      -5.443   1.556 -31.756  1.00  0.00     0.114 C 
BRANCH   7   8
ATOM      8  C   TRP A   1      -6.961   1.800 -31.722  1.00  0.00     0.189 C 
BRANCH   8   9
ATOM      9  O   TRP A   1      -7.509   1.384 -30.469  1.00  0.00    -0.399 OA
ATOM     10  H   TRP A   1      -6.778   0.973 -29.976  1.00  0.00     0.209 HD
ENDBRANCH   8   9
ENDBRANCH   7   8
BRANCH   7  11
ATOM     11  CB  TRP A   1      -5.041   0.704 -32.980  1.00  0.00     0.068 C 
BRANCH  11  12
ATOM     12  CG  TRP A   1      -4.273  -0.540 -32.616  1.00  0.00    -0.028 A 
ATOM     13  CD2 TRP A   1      -4.393  -1.835 -33.222  1.00  0.00    -0.002 A 
ATOM     14  CE2 TRP A   1      -3.507  -2.692 -32.566  1.00  0.00     0.042 A 
ATOM     15  CE3 TRP A   1      -5.179  -2.365 -34.267  1.00  0.00     0.014 A 
ATOM     16  CZ2 TRP A   1      -3.367  -4.044 -32.899  1.00  0.00     0.030 A 
ATOM     17  NE1 TRP A   1      -2.870  -1.952 -31.600  1.00  0.00    -0.365 N 
ATOM     18  CH2 TRP A   1      -4.158  -4.541 -33.938  1.00  0.00     0.002 A 
ATOM     19  CZ3 TRP A   1      -5.051  -3.715 -34.614  1.00  0.00     0.001 A 
ATOM     20  HE1 TRP A   1      -2.182  -2.319 -30.959  1.00  0.00     0.165 HD
ATOM     21  CD1 TRP A   1      -3.313  -0.659 -31.627  1.00  0.00     0.096 A 
ENDBRANCH  11  12
ENDBRANCH   7  11
ENDBRANCH   5   7
BRANCH   1  22
HETATM   22  C   UNK A   0      -2.858   5.201 -31.556  1.00  0.00     0.066 A 
HETATM   23  C   UNK A   0      -2.745   4.931 -32.926  1.00  0.00     0.038 A 
HETATM   24  C   UNK A   0      -1.654   5.402 -33.667  1.00  0.00    -0.059 A 
HETATM   25  C   UNK A   0      -1.530   5.098 -35.131  1.00  0.00     0.048 C 
HETATM   26  C   UNK A   0      -0.651   6.121 -33.013  1.00  0.00     0.020 A 
HETATM   27  C   UNK A   0      -0.738   6.377 -31.638  1.00  0.00    -0.005 A 
HETATM   28  C   UNK A   0      -1.849   5.925 -30.894  1.00  0.00     0.093 A 
HETATM   29  C   UNK A   0       0.275   7.074 -30.965  1.00  0.00     0.015 A 
HETATM   30  N   UNK A   0      -1.948   6.157 -29.562  1.00  0.00    -0.258 NA
HETATM   31  C   UNK A   0      -0.950   6.829 -28.948  1.00  0.00     0.117 A 
HETATM   32  C   UNK A   0       0.172   7.302 -29.600  1.00  0.00     0.020 A 
ENDBRANCH   1  22
TORSDOF 6
ENDMDL
MODEL 8
REMARK VINA RESULT:      -8.2      2.808      4.849
REMARK  6 active torsions:
REMARK  status: ('A' for Active; 'I' for Inactive)
REMARK    1  A    between atoms: C_4  and  N_5 
REMARK       I    between atoms: N_5  and  C_6 
REMARK       I    between atoms: C_6  and  N_16 
REMARK    2  A    between atoms: N_16  and  CA_17 
REMARK    3  A    between atoms: CA_17  and  C_18 
REMARK    4  A    between atoms: CA_17  and  CB_20 
REMARK    5  A    between atoms: C_18  and  O_19 
REMARK    6  A    between atoms: CB_20  and  CG_21 
ROOT
HETATM    1  N   UNK A   0      -6.888  -0.406 -34.335  1.00  0.00    -0.307 N 
HETATM    2  C   UNK A   0      -7.685   0.637 -33.997  1.00  0.00     0.321 C 
HETATM    3  O   UNK A   0      -8.471   1.095 -34.823  1.00  0.00    -0.247 OA
HETATM    4  H   UNK A   0      -7.086  -0.749 -35.274  1.00  0.00     0.170 HD
ATOM      5  N   TRP A   1      -7.582   1.137 -32.741  1.00  0.00    -0.336 N 
ATOM      6  H   TRP A   1      -7.502   0.434 -32.023  1.00  0.00     0.164 HD
ENDROOT
BRANCH   5   7
ATOM      7  CA  TRP A   1      -8.296   2.355 -32.334  1.00  0.00     0.114 C 
BRANCH   7   8
ATOM      8  C   TRP A   1      -9.589   1.987 -31.585  1.00  0.00     0.189 C 
BRANCH   8   9
ATOM      9  O   TRP A   1      -9.466   0.701 -30.972  1.00  0.00    -0.399 OA
ATOM     10  H   TRP A   1     -10.255   0.197 -31.239  1.00  0.00     0.209 HD
ENDBRANCH   8   9
ENDBRANCH   7   8
BRANCH   7  11
ATOM     11  CB  TRP A   1      -7.384   3.249 -31.466  1.00  0.00     0.068 C 
BRANCH  11  12
ATOM     12  CG  TRP A   1      -6.558   4.218 -32.272  1.00  0.00    -0.028 A 
ATOM     13  CD2 TRP A   1      -5.154   4.123 -32.558  1.00  0.00    -0.002 A 
ATOM     14  CE2 TRP A   1      -4.803   5.240 -33.319  1.00  0.00     0.042 A 
ATOM     15  CE3 TRP A   1      -4.144   3.193 -32.236  1.00  0.00     0.014 A 
ATOM     16  CZ2 TRP A   1      -3.499   5.474 -33.772  1.00  0.00     0.030 A 
ATOM     17  NE1 TRP A   1      -5.943   5.986 -33.492  1.00  0.00    -0.365 N 
ATOM     18  CH2 TRP A   1      -2.519   4.536 -33.439  1.00  0.00     0.002 A 
ATOM     19  CZ3 TRP A   1      -2.835   3.411 -32.683  1.00  0.00     0.001 A 
ATOM     20  HE1 TRP A   1      -5.984   6.862 -33.994  1.00  0.00     0.165 HD
ATOM     21  CD1 TRP A   1      -7.002   5.379 -32.878  1.00  0.00     0.096 A 
ENDBRANCH  11  12
ENDBRANCH   7  11
ENDBRANCH   5   7
BRANCH   1  22
HETATM   22  C   UNK A   0      -5.753  -1.035 -33.763  1.00  0.00     0.066 A 
HETATM   23  C   UNK A   0      -4.803  -0.396 -32.957  1.00  0.00     0.038 A 
HETATM   24  C   UNK A   0      -3.702  -1.095 -32.446  1.00  0.00    -0.059 A 
HETATM   25  C   UNK A   0      -2.679  -0.401 -31.595  1.00  0.00     0.048 C 
HETATM   26  C   UNK A   0      -3.540  -2.441 -32.779  1.00  0.00     0.020 A 
HETATM   27  C   UNK A   0      -4.469  -3.088 -33.606  1.00  0.00    -0.005 A 
HETATM   28  C   UNK A   0      -5.593  -2.392 -34.101  1.00  0.00     0.093 A 
HETATM   29  C   UNK A   0      -4.303  -4.431 -33.970  1.00  0.00     0.015 A 
HETATM   30  N   UNK A   0      -6.498  -2.999 -34.907  1.00  0.00    -0.258 NA
HETATM   31  C   UNK A   0      -6.302  -4.294 -35.239  1.00  0.00     0.117 A 
HETATM   32  C   UNK A   0      -5.230  -5.044 -34.801  1.00  0.00     0.020 A 
ENDBRANCH   1  22
TORSDOF 6
ENDMDL
MODEL 9
REMARK VINA RESULT:      -8.2      3.380      5.254
REMARK  6 active torsions:
REMARK  status: ('A' for Active; 'I' for Inactive)
REMARK    1  A    between atoms: C_4  and  N_5 
REMARK       I    between atoms: N_5  and  C_6 
REMARK       I    between atoms: C_6  and  N_16 
REMARK    2  A    between atoms: N_16  and  CA_17 
REMARK    3  A    between atoms: CA_17  and  C_18 
REMARK    4  A    between atoms: CA_17  and  CB_20 
REMARK    5  A    between atoms: C_18  and  O_19 
REMARK    6  A    between atoms: CB_20  and  CG_21 
ROOT
HETATM    1  N   UNK A   0      -7.817   0.280 -31.877  1.00  0.00    -0.307 N 
HETATM    2  C   UNK A   0      -8.430   1.473 -32.069  1.00  0.00     0.321 C 
HETATM    3  O   UNK A   0      -9.393   1.783 -31.371  1.00  0.00    -0.247 OA
HETATM    4  H   UNK A   0      -8.212  -0.229 -31.086  1.00  0.00     0.170 HD
ATOM      5  N   TRP A   1      -7.947   2.289 -33.038  1.00  0.00    -0.336 N 
ATOM      6  H   TRP A   1      -6.940   2.337 -33.071  1.00  0.00     0.164 HD
ENDROOT
BRANCH   5   7
ATOM      7  CA  TRP A   1      -8.635   3.531 -33.416  1.00  0.00     0.114 C 
BRANCH   7   8
ATOM      8  C   TRP A   1      -7.614   4.584 -33.881  1.00  0.00     0.189 C 
BRANCH   8   9
ATOM      9  O   TRP A   1      -8.280   5.767 -34.330  1.00  0.00    -0.399 OA
ATOM     10  H   TRP A   1      -7.688   6.509 -34.115  1.00  0.00     0.209 HD
ENDBRANCH   8   9
ENDBRANCH   7   8
BRANCH   7  11
ATOM     11  CB  TRP A   1      -9.687   3.251 -34.512  1.00  0.00     0.068 C 
BRANCH  11  12
ATOM     12  CG  TRP A   1     -11.106   3.378 -34.023  1.00  0.00    -0.028 A 
ATOM     13  CD2 TRP A   1     -12.051   2.313 -33.836  1.00  0.00    -0.002 A 
ATOM     14  CE2 TRP A   1     -13.244   2.882 -33.386  1.00  0.00     0.042 A 
ATOM     15  CE3 TRP A   1     -12.007   0.915 -34.014  1.00  0.00     0.014 A 
ATOM     16  CZ2 TRP A   1     -14.390   2.129 -33.106  1.00  0.00     0.030 A 
ATOM     17  NE1 TRP A   1     -13.038   4.238 -33.300  1.00  0.00    -0.365 N 
ATOM     18  CH2 TRP A   1     -14.317   0.746 -33.290  1.00  0.00     0.002 A 
ATOM     19  CZ3 TRP A   1     -13.144   0.145 -33.737  1.00  0.00     0.001 A 
ATOM     20  HE1 TRP A   1     -13.738   4.907 -33.013  1.00  0.00     0.165 HD
ATOM     21  CD1 TRP A   1     -11.758   4.545 -33.669  1.00  0.00     0.096 A 
ENDBRANCH  11  12
ENDBRANCH   7  11
ENDBRANCH   5   7
BRANCH   1  22
HETATM   22  C   UNK A   0      -6.866  -0.493 -32.591  1.00  0.00     0.066 A 
HETATM   23  C   UNK A   0      -7.175  -1.397 -33.614  1.00  0.00     0.038 A 
HETATM   24  C   UNK A   0      -6.170  -2.132 -34.256  1.00  0.00    -0.059 A 
HETATM   25  C   UNK A   0      -6.508  -3.110 -35.343  1.00  0.00     0.048 C 
HETATM   26  C   UNK A   0      -4.847  -1.979 -33.838  1.00  0.00     0.020 A 
HETATM   27  C   UNK A   0      -4.525  -1.096 -32.797  1.00  0.00    -0.005 A 
HETATM   28  C   UNK A   0      -5.534  -0.336 -32.166  1.00  0.00     0.093 A 
HETATM   29  C   UNK A   0      -3.205  -0.954 -32.349  1.00  0.00     0.015 A 
HETATM   30  N   UNK A   0      -5.244   0.517 -31.153  1.00  0.00    -0.258 NA
HETATM   31  C   UNK A   0      -3.959   0.624 -30.748  1.00  0.00     0.117 A 
HETATM   32  C   UNK A   0      -2.915  -0.084 -31.307  1.00  0.00     0.020 A 
ENDBRANCH   1  22
TORSDOF 6
ENDMDL
MODEL 10
REMARK VINA RESULT:      -8.2      2.536      7.148
REMARK  6 active torsions:
REMARK  status: ('A' for Active; 'I' for Inactive)
REMARK    1  A    between atoms: C_4  and  N_5 
REMARK       I    between atoms: N_5  and  C_6 
REMARK       I    between atoms: C_6  and  N_16 
REMARK    2  A    between atoms: N_16  and  CA_17 
REMARK    3  A    between atoms: CA_17  and  C_18 
REMARK    4  A    between atoms: CA_17  and  CB_20 
REMARK    5  A    between atoms: C_18  and  O_19 
REMARK    6  A    between atoms: CB_20  and  CG_21 
ROOT
HETATM    1  N   UNK A   0      -4.111   4.149 -30.648  1.00  0.00    -0.307 N 
HETATM    2  C   UNK A   0      -4.880   3.033 -30.634  1.00  0.00     0.321 C 
HETATM    3  O   UNK A   0      -5.653   2.838 -29.698  1.00  0.00    -0.247 OA
HETATM    4  H   UNK A   0      -4.319   4.766 -29.863  1.00  0.00     0.170 HD
ATOM      5  N   TRP A   1      -4.764   2.166 -31.669  1.00  0.00    -0.336 N 
ATOM      6  H   TRP A   1      -4.704   2.609 -32.572  1.00  0.00     0.164 HD
ENDROOT
BRANCH   5   7
ATOM      7  CA  TRP A   1      -5.445   0.864 -31.666  1.00  0.00     0.114 C 
BRANCH   7   8
ATOM      8  C   TRP A   1      -6.961   1.058 -31.488  1.00  0.00     0.189 C 
BRANCH   8   9
ATOM      9  O   TRP A   1      -7.600   1.214 -32.758  1.00  0.00    -0.399 OA
ATOM     10  H   TRP A   1      -7.007   0.803 -33.411  1.00  0.00     0.209 HD
ENDBRANCH   8   9
ENDBRANCH   7   8
BRANCH   7  11
ATOM     11  CB  TRP A   1      -5.130   0.089 -32.963  1.00  0.00     0.068 C 
BRANCH  11  12
ATOM     12  CG  TRP A   1      -4.360  -1.184 -32.726  1.00  0.00    -0.028 A 
ATOM     13  CD2 TRP A   1      -4.562  -2.448 -33.378  1.00  0.00    -0.002 A 
ATOM     14  CE2 TRP A   1      -3.641  -3.351 -32.842  1.00  0.00     0.042 A 
ATOM     15  CE3 TRP A   1      -5.448  -2.912 -34.371  1.00  0.00     0.014 A 
ATOM     16  CZ2 TRP A   1      -3.561  -4.688 -33.247  1.00  0.00     0.030 A 
ATOM     17  NE1 TRP A   1      -2.906  -2.669 -31.904  1.00  0.00    -0.365 N 
ATOM     18  CH2 TRP A   1      -4.451  -5.121 -34.234  1.00  0.00     0.002 A 
ATOM     19  CZ3 TRP A   1      -5.381  -4.248 -34.790  1.00  0.00     0.001 A 
ATOM     20  HE1 TRP A   1      -2.171  -3.078 -31.343  1.00  0.00     0.165 HD
ATOM     21  CD1 TRP A   1      -3.320  -1.368 -31.833  1.00  0.00     0.096 A 
ENDBRANCH  11  12
ENDBRANCH   7  11
ENDBRANCH   5   7
BRANCH   1  22
HETATM   22  C   UNK A   0      -2.994   4.596 -31.400  1.00  0.00     0.066 A 
HETATM   23  C   UNK A   0      -1.726   4.863 -30.869  1.00  0.00     0.038 A 
HETATM   24  C   UNK A   0      -0.683   5.316 -31.686  1.00  0.00    -0.059 A 
HETATM   25  C   UNK A   0       0.670   5.614 -31.110  1.00  0.00     0.048 C 
HETATM   26  C   UNK A   0      -0.931   5.536 -33.042  1.00  0.00     0.020 A 
HETATM   27  C   UNK A   0      -2.202   5.298 -33.583  1.00  0.00    -0.005 A 
HETATM   28  C   UNK A   0      -3.249   4.816 -32.767  1.00  0.00     0.093 A 
HETATM   29  C   UNK A   0      -2.472   5.541 -34.937  1.00  0.00     0.015 A 
HETATM   30  N   UNK A   0      -4.486   4.587 -33.269  1.00  0.00    -0.258 NA
HETATM   31  C   UNK A   0      -4.708   4.836 -34.578  1.00  0.00     0.117 A 
HETATM   32  C   UNK A   0      -3.743   5.310 -35.444  1.00  0.00     0.020 A 
ENDBRANCH   1  22
TORSDOF 6
ENDMDL
