MODEL 1
REMARK VINA RESULT:      -9.4      0.000      0.000
REMARK  8 active torsions:
REMARK  status: ('A' for Active; 'I' for Inactive)
REMARK    1  A    between atoms: C_2  and  C_3 
REMARK    2  A    between atoms: C_3  and  O_4 
REMARK    3  A    between atoms: O_4  and  C_5 
REMARK    4  A    between atoms: C_8  and  C_9 
REMARK    5  A    between atoms: N_10  and  C_11 
REMARK    6  A    between atoms: C_11  and  C_12 
REMARK    7  A    between atoms: C_25  and  C_26 
REMARK    8  A    between atoms: C_27  and  O_28 
ROOT
HETATM    1  C   UNL     1      -4.909   0.721 -33.591  1.00  0.00     0.159 A 
HETATM    2  N   UNL     1      -4.418   1.849 -32.754  1.00  0.00    -0.329 N 
HETATM    3  C   UNL     1      -3.472   1.469 -31.792  1.00  0.00     0.273 A 
HETATM    4  O   UNL     1      -2.842   2.175 -31.026  1.00  0.00    -0.266 OA
HETATM    5  C   UNL     1      -3.403   0.062 -31.930  1.00  0.00     0.129 A 
HETATM    6  C   UNL     1      -4.206  -0.401 -32.928  1.00  0.00     0.034 A 
HETATM    7  N   UNL     1      -2.814  -0.997 -31.354  1.00  0.00    -0.272 N 
HETATM    8  H   UNL     1      -2.159  -1.026 -30.577  1.00  0.00     0.189 HD
HETATM    9  N   UNL     1      -3.226  -2.164 -31.917  1.00  0.00    -0.173 NA
HETATM   10  C   UNL     1      -4.105  -1.799 -32.880  1.00  0.00     0.101 A 
ENDROOT
BRANCH   1  11
HETATM   11  C   UNL     1      -6.385   0.427 -33.478  1.00  0.00    -0.030 A 
HETATM   12  C   UNL     1      -6.940   0.230 -32.200  1.00  0.00     0.012 A 
HETATM   13  C   UNL     1      -8.320   0.130 -32.030  1.00  0.00     0.037 A 
HETATM   14  C   UNL     1      -9.161   0.240 -33.132  1.00  0.00     0.069 A 
HETATM   15  C   UNL     1      -8.632   0.348 -34.416  1.00  0.00     0.037 A 
HETATM   16  C   UNL     1      -7.249   0.442 -34.589  1.00  0.00     0.012 A 
BRANCH  14  17
HETATM   17  O   UNL     1     -10.509   0.243 -32.898  1.00  0.00    -0.348 OA
BRANCH  17  18
HETATM   18  C   UNL     1     -11.145   1.333 -33.581  1.00  0.00     0.202 C 
BRANCH  18  19
HETATM   19  C   UNL     1     -12.534   0.897 -33.942  1.00  0.00    -0.011 C 
HETATM   20  C   UNL     1     -13.084  -0.274 -33.596  1.00  0.00     0.009 C 
ENDBRANCH  18  19
ENDBRANCH  17  18
ENDBRANCH  14  17
ENDBRANCH   1  11
BRANCH   2  21
HETATM   21  C   UNL     1      -4.641   3.229 -33.127  1.00  0.00     0.167 C 
BRANCH  21  22
HETATM   22  C   UNL     1      -6.046   3.672 -32.829  1.00  0.00    -0.023 A 
HETATM   23  C   UNL     1      -6.520   3.742 -31.524  1.00  0.00     0.125 A 
HETATM   24  N   UNL     1      -7.782   4.096 -31.192  1.00  0.00    -0.273 NA
HETATM   25  C   UNL     1      -8.616   4.401 -32.208  1.00  0.00     0.116 A 
HETATM   26  C   UNL     1      -8.246   4.368 -33.542  1.00  0.00     0.020 A 
HETATM   27  C   UNL     1      -6.942   3.996 -33.853  1.00  0.00     0.012 A 
ENDBRANCH  21  22
ENDBRANCH   2  21
BRANCH  10  28
HETATM   28  C   UNL     1      -4.855  -2.774 -33.661  1.00  0.00     0.028 A 
HETATM   29  C   UNL     1      -4.338  -4.038 -33.973  1.00  0.00     0.078 A 
HETATM   30  C   UNL     1      -5.015  -4.892 -34.842  1.00  0.00     0.037 A 
HETATM   31  C   UNL     1      -6.237  -4.502 -35.387  1.00  0.00     0.003 A 
HETATM   32  C   UNL     1      -6.783  -3.261 -35.060  1.00  0.00     0.001 A 
HETATM   33  C   UNL     1      -6.094  -2.400 -34.201  1.00  0.00     0.017 A 
BRANCH  29  34
HETATM   34  O   UNL     1      -3.161  -4.508 -33.451  1.00  0.00    -0.360 OA
HETATM   35  H   UNL     1      -2.600  -4.772 -34.203  1.00  0.00     0.217 HD
ENDBRANCH  29  34
ENDBRANCH  10  28
TORSDOF 8
ENDMDL
MODEL 2
REMARK VINA RESULT:      -9.1      2.399      6.257
REMARK  8 active torsions:
REMARK  status: ('A' for Active; 'I' for Inactive)
REMARK    1  A    between atoms: C_2  and  C_3 
REMARK    2  A    between atoms: C_3  and  O_4 
REMARK    3  A    between atoms: O_4  and  C_5 
REMARK    4  A    between atoms: C_8  and  C_9 
REMARK    5  A    between atoms: N_10  and  C_11 
REMARK    6  A    between atoms: C_11  and  C_12 
REMARK    7  A    between atoms: C_25  and  C_26 
REMARK    8  A    between atoms: C_27  and  O_28 
ROOT
HETATM    1  C   UNL     1      -8.399   2.439 -33.388  1.00  0.00     0.159 A 
HETATM    2  N   UNL     1      -9.842   2.757 -33.223  1.00  0.00    -0.329 N 
HETATM    3  C   UNL     1     -10.183   3.182 -31.931  1.00  0.00     0.273 A 
HETATM    4  O   UNL     1     -11.258   3.581 -31.522  1.00  0.00    -0.266 OA
HETATM    5  C   UNL     1      -8.973   3.056 -31.209  1.00  0.00     0.129 A 
HETATM    6  C   UNL     1      -7.944   2.630 -31.992  1.00  0.00     0.034 A 
HETATM    7  N   UNL     1      -8.508   3.187 -29.957  1.00  0.00    -0.272 N 
HETATM    8  H   UNL     1      -8.998   3.478 -29.115  1.00  0.00     0.189 HD
HETATM    9  N   UNL     1      -7.199   2.828 -29.871  1.00  0.00    -0.173 NA
HETATM   10  C   UNL     1      -6.852   2.462 -31.128  1.00  0.00     0.101 A 
ENDROOT
BRANCH   1  11
HETATM   11  C   UNL     1      -8.089   1.005 -33.746  1.00  0.00    -0.030 A 
HETATM   12  C   UNL     1      -7.212   0.748 -34.816  1.00  0.00     0.012 A 
HETATM   13  C   UNL     1      -6.761  -0.545 -35.073  1.00  0.00     0.037 A 
HETATM   14  C   UNL     1      -7.169  -1.593 -34.255  1.00  0.00     0.069 A 
HETATM   15  C   UNL     1      -8.103  -1.379 -33.244  1.00  0.00     0.037 A 
HETATM   16  C   UNL     1      -8.561  -0.084 -32.990  1.00  0.00     0.012 A 
BRANCH  14  17
HETATM   17  O   UNL     1      -6.613  -2.823 -34.482  1.00  0.00    -0.348 OA
BRANCH  17  18
HETATM   18  C   UNL     1      -5.268  -2.697 -34.964  1.00  0.00     0.202 C 
BRANCH  18  19
HETATM   19  C   UNL     1      -4.348  -3.160 -33.875  1.00  0.00    -0.011 C 
HETATM   20  C   UNL     1      -3.737  -4.352 -33.843  1.00  0.00     0.009 C 
ENDBRANCH  18  19
ENDBRANCH  17  18
ENDBRANCH  14  17
ENDBRANCH   1  11
BRANCH   2  21
HETATM   21  C   UNL     1     -10.719   2.935 -34.360  1.00  0.00     0.167 C 
BRANCH  21  22
HETATM   22  C   UNL     1     -11.891   1.995 -34.318  1.00  0.00    -0.023 A 
HETATM   23  C   UNL     1     -13.115   2.341 -34.881  1.00  0.00     0.125 A 
HETATM   24  N   UNL     1     -14.216   1.558 -34.845  1.00  0.00    -0.273 NA
HETATM   25  C   UNL     1     -14.097   0.366 -34.222  1.00  0.00     0.116 A 
HETATM   26  C   UNL     1     -12.925  -0.077 -33.632  1.00  0.00     0.020 A 
HETATM   27  C   UNL     1     -11.809   0.752 -33.682  1.00  0.00     0.012 A 
ENDBRANCH  21  22
ENDBRANCH   2  21
BRANCH  10  28
HETATM   28  C   UNL     1      -5.540   1.914 -31.445  1.00  0.00     0.028 A 
HETATM   29  C   UNL     1      -4.499   2.708 -31.945  1.00  0.00     0.078 A 
HETATM   30  C   UNL     1      -3.306   2.132 -32.376  1.00  0.00     0.037 A 
HETATM   31  C   UNL     1      -3.126   0.752 -32.282  1.00  0.00     0.003 A 
HETATM   32  C   UNL     1      -4.138  -0.049 -31.755  1.00  0.00     0.001 A 
HETATM   33  C   UNL     1      -5.340   0.530 -31.339  1.00  0.00     0.017 A 
BRANCH  29  34
HETATM   34  O   UNL     1      -4.585   4.072 -32.036  1.00  0.00    -0.360 OA
HETATM   35  H   UNL     1      -5.225   4.272 -32.744  1.00  0.00     0.217 HD
ENDBRANCH  29  34
ENDBRANCH  10  28
TORSDOF 8
ENDMDL
MODEL 3
REMARK VINA RESULT:      -8.9      2.524      8.196
REMARK  8 active torsions:
REMARK  status: ('A' for Active; 'I' for Inactive)
REMARK    1  A    between atoms: C_2  and  C_3 
REMARK    2  A    between atoms: C_3  and  O_4 
REMARK    3  A    between atoms: O_4  and  C_5 
REMARK    4  A    between atoms: C_8  and  C_9 
REMARK    5  A    between atoms: N_10  and  C_11 
REMARK    6  A    between atoms: C_11  and  C_12 
REMARK    7  A    between atoms: C_25  and  C_26 
REMARK    8  A    between atoms: C_27  and  O_28 
ROOT
HETATM    1  C   UNL     1      -6.997   2.574 -33.279  1.00  0.00     0.159 A 
HETATM    2  N   UNL     1      -7.386   1.168 -33.570  1.00  0.00    -0.329 N 
HETATM    3  C   UNL     1      -8.396   0.676 -32.732  1.00  0.00     0.273 A 
HETATM    4  O   UNL     1      -8.967  -0.399 -32.781  1.00  0.00    -0.266 OA
HETATM    5  C   UNL     1      -8.615   1.733 -31.817  1.00  0.00     0.129 A 
HETATM    6  C   UNL     1      -7.838   2.819 -32.085  1.00  0.00     0.034 A 
HETATM    7  N   UNL     1      -9.333   2.004 -30.717  1.00  0.00    -0.272 N 
HETATM    8  H   UNL     1     -10.009   1.423 -30.230  1.00  0.00     0.189 HD
HETATM    9  N   UNL     1      -9.034   3.233 -30.217  1.00  0.00    -0.173 NA
HETATM   10  C   UNL     1      -8.092   3.733 -31.052  1.00  0.00     0.101 A 
ENDROOT
BRANCH   1  11
HETATM   11  C   UNL     1      -5.566   2.772 -32.842  1.00  0.00    -0.030 A 
HETATM   12  C   UNL     1      -4.851   3.876 -33.341  1.00  0.00     0.012 A 
HETATM   13  C   UNL     1      -3.593   4.199 -32.836  1.00  0.00     0.037 A 
HETATM   14  C   UNL     1      -3.041   3.431 -31.816  1.00  0.00     0.069 A 
HETATM   15  C   UNL     1      -3.690   2.283 -31.366  1.00  0.00     0.037 A 
HETATM   16  C   UNL     1      -4.948   1.955 -31.877  1.00  0.00     0.012 A 
BRANCH  14  17
HETATM   17  O   UNL     1      -1.854   3.852 -31.282  1.00  0.00    -0.348 OA
BRANCH  17  18
HETATM   18  C   UNL     1      -1.323   4.960 -32.023  1.00  0.00     0.202 C 
BRANCH  18  19
HETATM   19  C   UNL     1      -0.071   5.412 -31.331  1.00  0.00    -0.011 C 
HETATM   20  C   UNL     1       0.358   6.680 -31.276  1.00  0.00     0.009 C 
ENDBRANCH  18  19
ENDBRANCH  17  18
ENDBRANCH  14  17
ENDBRANCH   1  11
BRANCH   2  21
HETATM   21  C   UNL     1      -7.003   0.510 -34.800  1.00  0.00     0.167 C 
BRANCH  21  22
HETATM   22  C   UNL     1      -6.239  -0.760 -34.544  1.00  0.00    -0.023 A 
HETATM   23  C   UNL     1      -5.008  -0.743 -33.897  1.00  0.00     0.125 A 
HETATM   24  N   UNL     1      -4.255  -1.843 -33.671  1.00  0.00    -0.273 NA
HETATM   25  C   UNL     1      -4.751  -3.021 -34.104  1.00  0.00     0.116 A 
HETATM   26  C   UNL     1      -5.966  -3.150 -34.755  1.00  0.00     0.020 A 
HETATM   27  C   UNL     1      -6.718  -2.000 -34.978  1.00  0.00     0.012 A 
ENDBRANCH  21  22
ENDBRANCH   2  21
BRANCH  10  28
HETATM   28  C   UNL     1      -7.431   5.008 -30.807  1.00  0.00     0.028 A 
HETATM   29  C   UNL     1      -6.439   5.160 -29.829  1.00  0.00     0.078 A 
HETATM   30  C   UNL     1      -5.930   6.419 -29.518  1.00  0.00     0.037 A 
HETATM   31  C   UNL     1      -6.387   7.543 -30.206  1.00  0.00     0.003 A 
HETATM   32  C   UNL     1      -7.349   7.405 -31.205  1.00  0.00     0.001 A 
HETATM   33  C   UNL     1      -7.870   6.143 -31.504  1.00  0.00     0.017 A 
BRANCH  29  34
HETATM   34  O   UNL     1      -5.914   4.102 -29.136  1.00  0.00    -0.360 OA
HETATM   35  H   UNL     1      -5.232   3.698 -29.703  1.00  0.00     0.217 HD
ENDBRANCH  29  34
ENDBRANCH  10  28
TORSDOF 8
ENDMDL
MODEL 4
REMARK VINA RESULT:      -8.8      3.064      8.413
REMARK  8 active torsions:
REMARK  status: ('A' for Active; 'I' for Inactive)
REMARK    1  A    between atoms: C_2  and  C_3 
REMARK    2  A    between atoms: C_3  and  O_4 
REMARK    3  A    between atoms: O_4  and  C_5 
REMARK    4  A    between atoms: C_8  and  C_9 
REMARK    5  A    between atoms: N_10  and  C_11 
REMARK    6  A    between atoms: C_11  and  C_12 
REMARK    7  A    between atoms: C_25  and  C_26 
REMARK    8  A    between atoms: C_27  and  O_28 
ROOT
HETATM    1  C   UNL     1      -6.688   3.341 -32.897  1.00  0.00     0.159 A 
HETATM    2  N   UNL     1      -7.015   1.890 -32.910  1.00  0.00    -0.329 N 
HETATM    3  C   UNL     1      -7.444   1.395 -31.671  1.00  0.00     0.273 A 
HETATM    4  O   UNL     1      -7.851   0.280 -31.397  1.00  0.00    -0.266 OA
HETATM    5  C   UNL     1      -7.312   2.507 -30.805  1.00  0.00     0.129 A 
HETATM    6  C   UNL     1      -6.879   3.622 -31.455  1.00  0.00     0.034 A 
HETATM    7  N   UNL     1      -7.443   2.815 -29.506  1.00  0.00    -0.272 N 
HETATM    8  H   UNL     1      -7.739   2.228 -28.731  1.00  0.00     0.189 HD
HETATM    9  N   UNL     1      -7.077   4.101 -29.260  1.00  0.00    -0.173 NA
HETATM   10  C   UNL     1      -6.707   4.598 -30.463  1.00  0.00     0.101 A 
ENDROOT
BRANCH   1  11
HETATM   11  C   UNL     1      -5.251   3.683 -33.212  1.00  0.00    -0.030 A 
HETATM   12  C   UNL     1      -4.987   4.707 -34.139  1.00  0.00     0.012 A 
HETATM   13  C   UNL     1      -3.689   5.177 -34.333  1.00  0.00     0.037 A 
HETATM   14  C   UNL     1      -2.644   4.637 -33.591  1.00  0.00     0.069 A 
HETATM   15  C   UNL     1      -2.866   3.564 -32.731  1.00  0.00     0.037 A 
HETATM   16  C   UNL     1      -4.166   3.089 -32.542  1.00  0.00     0.012 A 
BRANCH  14  17
HETATM   17  O   UNL     1      -1.407   5.205 -33.740  1.00  0.00    -0.348 OA
BRANCH  17  18
HETATM   18  C   UNL     1      -1.516   6.618 -33.966  1.00  0.00     0.202 C 
BRANCH  18  19
HETATM   19  C   UNL     1      -1.140   7.314 -32.692  1.00  0.00    -0.011 C 
HETATM   20  C   UNL     1      -0.275   6.841 -31.786  1.00  0.00     0.009 C 
ENDBRANCH  18  19
ENDBRANCH  17  18
ENDBRANCH  14  17
ENDBRANCH   1  11
BRANCH   2  21
HETATM   21  C   UNL     1      -7.196   1.160 -34.147  1.00  0.00     0.167 C 
BRANCH  21  22
HETATM   22  C   UNL     1      -6.443  -0.141 -34.147  1.00  0.00    -0.023 A 
HETATM   23  C   UNL     1      -5.130  -0.215 -33.693  1.00  0.00     0.125 A 
HETATM   24  N   UNL     1      -4.386  -1.343 -33.702  1.00  0.00    -0.273 NA
HETATM   25  C   UNL     1      -4.976  -2.458 -34.183  1.00  0.00     0.116 A 
HETATM   26  C   UNL     1      -6.277  -2.496 -34.656  1.00  0.00     0.020 A 
HETATM   27  C   UNL     1      -7.017  -1.317 -34.637  1.00  0.00     0.012 A 
ENDBRANCH  21  22
ENDBRANCH   2  21
BRANCH  10  28
HETATM   28  C   UNL     1      -6.150   5.936 -30.616  1.00  0.00     0.028 A 
HETATM   29  C   UNL     1      -6.922   7.022 -31.048  1.00  0.00     0.078 A 
HETATM   30  C   UNL     1      -6.332   8.253 -31.324  1.00  0.00     0.037 A 
HETATM   31  C   UNL     1      -4.960   8.423 -31.142  1.00  0.00     0.003 A 
HETATM   32  C   UNL     1      -4.181   7.362 -30.680  1.00  0.00     0.001 A 
HETATM   33  C   UNL     1      -4.774   6.123 -30.419  1.00  0.00     0.017 A 
BRANCH  29  34
HETATM   34  O   UNL     1      -8.280   6.946 -31.217  1.00  0.00    -0.360 OA
HETATM   35  H   UNL     1      -8.652   6.600 -30.386  1.00  0.00     0.217 HD
ENDBRANCH  29  34
ENDBRANCH  10  28
TORSDOF 8
ENDMDL
MODEL 5
REMARK VINA RESULT:      -8.8      2.369      6.905
REMARK  8 active torsions:
REMARK  status: ('A' for Active; 'I' for Inactive)
REMARK    1  A    between atoms: C_2  and  C_3 
REMARK    2  A    between atoms: C_3  and  O_4 
REMARK    3  A    between atoms: O_4  and  C_5 
REMARK    4  A    between atoms: C_8  and  C_9 
REMARK    5  A    between atoms: N_10  and  C_11 
REMARK    6  A    between atoms: C_11  and  C_12 
REMARK    7  A    between atoms: C_25  and  C_26 
REMARK    8  A    between atoms: C_27  and  O_28 
ROOT
HETATM    1  C   UNL     1      -9.224   2.796 -31.299  1.00  0.00     0.159 A 
HETATM    2  N   UNL     1      -8.076   3.576 -30.761  1.00  0.00    -0.329 N 
HETATM    3  C   UNL     1      -8.167   4.954 -31.000  1.00  0.00     0.273 A 
HETATM    4  O   UNL     1      -7.428   5.842 -30.616  1.00  0.00    -0.266 OA
HETATM    5  C   UNL     1      -9.338   5.079 -31.785  1.00  0.00     0.129 A 
HETATM    6  C   UNL     1      -9.959   3.884 -31.984  1.00  0.00     0.034 A 
HETATM    7  N   UNL     1     -10.033   6.018 -32.447  1.00  0.00    -0.272 N 
HETATM    8  H   UNL     1      -9.857   7.015 -32.523  1.00  0.00     0.189 HD
HETATM    9  N   UNL     1     -11.087   5.478 -33.114  1.00  0.00    -0.173 NA
HETATM   10  C   UNL     1     -11.032   4.152 -32.847  1.00  0.00     0.101 A 
ENDROOT
BRANCH   1  11
HETATM   11  C   UNL     1      -8.874   1.781 -32.360  1.00  0.00    -0.030 A 
HETATM   12  C   UNL     1      -8.036   2.172 -33.420  1.00  0.00     0.012 A 
HETATM   13  C   UNL     1      -7.545   1.232 -34.325  1.00  0.00     0.037 A 
HETATM   14  C   UNL     1      -7.875  -0.111 -34.171  1.00  0.00     0.069 A 
HETATM   15  C   UNL     1      -8.771  -0.510 -33.182  1.00  0.00     0.037 A 
HETATM   16  C   UNL     1      -9.269   0.433 -32.280  1.00  0.00     0.012 A 
BRANCH  14  17
HETATM   17  O   UNL     1      -7.282  -1.007 -35.019  1.00  0.00    -0.348 OA
BRANCH  17  18
HETATM   18  C   UNL     1      -5.938  -1.292 -34.605  1.00  0.00     0.202 C 
BRANCH  18  19
HETATM   19  C   UNL     1      -5.786  -2.782 -34.547  1.00  0.00    -0.011 C 
HETATM   20  C   UNL     1      -6.760  -3.664 -34.808  1.00  0.00     0.009 C 
ENDBRANCH  18  19
ENDBRANCH  17  18
ENDBRANCH  14  17
ENDBRANCH   1  11
BRANCH   2  21
HETATM   21  C   UNL     1      -7.152   3.010 -29.802  1.00  0.00     0.167 C 
BRANCH  21  22
HETATM   22  C   UNL     1      -6.051   2.236 -30.472  1.00  0.00    -0.023 A 
HETATM   23  C   UNL     1      -5.028   2.883 -31.157  1.00  0.00     0.125 A 
HETATM   24  N   UNL     1      -4.031   2.246 -31.812  1.00  0.00    -0.273 NA
HETATM   25  C   UNL     1      -4.047   0.897 -31.781  1.00  0.00     0.116 A 
HETATM   26  C   UNL     1      -5.015   0.155 -31.125  1.00  0.00     0.020 A 
HETATM   27  C   UNL     1      -6.031   0.838 -30.464  1.00  0.00     0.012 A 
ENDBRANCH  21  22
ENDBRANCH   2  21
BRANCH  10  28
HETATM   28  C   UNL     1     -11.943   3.194 -33.460  1.00  0.00     0.028 A 
HETATM   29  C   UNL     1     -13.057   2.683 -32.782  1.00  0.00     0.078 A 
HETATM   30  C   UNL     1     -13.825   1.662 -33.339  1.00  0.00     0.037 A 
HETATM   31  C   UNL     1     -13.505   1.159 -34.600  1.00  0.00     0.003 A 
HETATM   32  C   UNL     1     -12.419   1.681 -35.303  1.00  0.00     0.001 A 
HETATM   33  C   UNL     1     -11.641   2.694 -34.735  1.00  0.00     0.017 A 
BRANCH  29  34
HETATM   34  O   UNL     1     -13.458   3.148 -31.557  1.00  0.00    -0.360 OA
HETATM   35  H   UNL     1     -13.948   3.976 -31.712  1.00  0.00     0.217 HD
ENDBRANCH  29  34
ENDBRANCH  10  28
TORSDOF 8
ENDMDL
MODEL 6
REMARK VINA RESULT:      -8.8      3.201      6.265
REMARK  8 active torsions:
REMARK  status: ('A' for Active; 'I' for Inactive)
REMARK    1  A    between atoms: C_2  and  C_3 
REMARK    2  A    between atoms: C_3  and  O_4 
REMARK    3  A    between atoms: O_4  and  C_5 
REMARK    4  A    between atoms: C_8  and  C_9 
REMARK    5  A    between atoms: N_10  and  C_11 
REMARK    6  A    between atoms: C_11  and  C_12 
REMARK    7  A    between atoms: C_25  and  C_26 
REMARK    8  A    between atoms: C_27  and  O_28 
ROOT
HETATM    1  C   UNL     1      -6.965   2.854 -30.885  1.00  0.00     0.159 A 
HETATM    2  N   UNL     1      -7.779   3.947 -30.289  1.00  0.00    -0.329 N 
HETATM    3  C   UNL     1      -9.158   3.800 -30.492  1.00  0.00     0.273 A 
HETATM    4  O   UNL     1     -10.067   4.485 -30.060  1.00  0.00    -0.266 OA
HETATM    5  C   UNL     1      -9.254   2.648 -31.309  1.00  0.00     0.129 A 
HETATM    6  C   UNL     1      -8.038   2.090 -31.562  1.00  0.00     0.034 A 
HETATM    7  N   UNL     1     -10.178   1.930 -31.965  1.00  0.00    -0.272 N 
HETATM    8  H   UNL     1     -11.185   2.062 -32.008  1.00  0.00     0.189 HD
HETATM    9  N   UNL     1      -9.611   0.923 -32.680  1.00  0.00    -0.173 NA
HETATM   10  C   UNL     1      -8.282   1.032 -32.449  1.00  0.00     0.101 A 
ENDROOT
BRANCH   1  11
HETATM   11  C   UNL     1      -5.999   3.282 -31.963  1.00  0.00    -0.030 A 
HETATM   12  C   UNL     1      -6.480   4.057 -33.034  1.00  0.00     0.012 A 
HETATM   13  C   UNL     1      -5.602   4.621 -33.958  1.00  0.00     0.037 A 
HETATM   14  C   UNL     1      -4.232   4.429 -33.813  1.00  0.00     0.069 A 
HETATM   15  C   UNL     1      -3.737   3.596 -32.812  1.00  0.00     0.037 A 
HETATM   16  C   UNL     1      -4.617   3.025 -31.890  1.00  0.00     0.012 A 
BRANCH  14  17
HETATM   17  O   UNL     1      -3.407   5.091 -34.681  1.00  0.00    -0.348 OA
BRANCH  17  18
HETATM   18  C   UNL     1      -2.029   4.875 -34.344  1.00  0.00     0.202 C 
BRANCH  18  19
HETATM   19  C   UNL     1      -1.357   6.215 -34.290  1.00  0.00    -0.011 C 
HETATM   20  C   UNL     1      -1.736   7.231 -33.505  1.00  0.00     0.009 C 
ENDBRANCH  18  19
ENDBRANCH  17  18
ENDBRANCH  14  17
ENDBRANCH   1  11
BRANCH   2  21
HETATM   21  C   UNL     1      -7.228   4.868 -29.319  1.00  0.00     0.167 C 
BRANCH  21  22
HETATM   22  C   UNL     1      -6.390   5.934 -29.968  1.00  0.00    -0.023 A 
HETATM   23  C   UNL     1      -6.959   6.889 -30.805  1.00  0.00     0.125 A 
HETATM   24  N   UNL     1      -6.258   7.850 -31.448  1.00  0.00    -0.273 NA
HETATM   25  C   UNL     1      -4.923   7.867 -31.247  1.00  0.00     0.116 A 
HETATM   26  C   UNL     1      -4.257   6.967 -30.433  1.00  0.00     0.020 A 
HETATM   27  C   UNL     1      -5.005   5.987 -29.787  1.00  0.00     0.012 A 
ENDBRANCH  21  22
ENDBRANCH   2  21
BRANCH  10  28
HETATM   28  C   UNL     1      -7.302   0.185 -33.118  1.00  0.00     0.028 A 
HETATM   29  C   UNL     1      -7.422  -0.174 -34.467  1.00  0.00     0.078 A 
HETATM   30  C   UNL     1      -6.552  -1.100 -35.039  1.00  0.00     0.037 A 
HETATM   31  C   UNL     1      -5.528  -1.657 -34.273  1.00  0.00     0.003 A 
HETATM   32  C   UNL     1      -5.374  -1.285 -32.938  1.00  0.00     0.001 A 
HETATM   33  C   UNL     1      -6.257  -0.368 -32.363  1.00  0.00     0.017 A 
BRANCH  29  34
HETATM   34  O   UNL     1      -8.378   0.355 -35.293  1.00  0.00    -0.360 OA
HETATM   35  H   UNL     1      -9.219   0.347 -34.799  1.00  0.00     0.217 HD
ENDBRANCH  29  34
ENDBRANCH  10  28
TORSDOF 8
ENDMDL
MODEL 7
REMARK VINA RESULT:      -8.3      2.073      6.389
REMARK  8 active torsions:
REMARK  status: ('A' for Active; 'I' for Inactive)
REMARK    1  A    between atoms: C_2  and  C_3 
REMARK    2  A    between atoms: C_3  and  O_4 
REMARK    3  A    between atoms: O_4  and  C_5 
REMARK    4  A    between atoms: C_8  and  C_9 
REMARK    5  A    between atoms: N_10  and  C_11 
REMARK    6  A    between atoms: C_11  and  C_12 
REMARK    7  A    between atoms: C_25  and  C_26 
REMARK    8  A    between atoms: C_27  and  O_28 
ROOT
HETATM    1  C   UNL     1      -6.768   1.713 -31.654  1.00  0.00     0.159 A 
HETATM    2  N   UNL     1      -5.536   0.944 -31.980  1.00  0.00    -0.329 N 
HETATM    3  C   UNL     1      -4.446   1.749 -32.338  1.00  0.00     0.273 A 
HETATM    4  O   UNL     1      -3.300   1.414 -32.577  1.00  0.00    -0.266 OA
HETATM    5  C   UNL     1      -4.984   3.058 -32.340  1.00  0.00     0.129 A 
HETATM    6  C   UNL     1      -6.294   3.080 -31.969  1.00  0.00     0.034 A 
HETATM    7  N   UNL     1      -4.620   4.315 -32.635  1.00  0.00    -0.272 N 
HETATM    8  H   UNL     1      -3.722   4.669 -32.951  1.00  0.00     0.189 HD
HETATM    9  N   UNL     1      -5.663   5.179 -32.504  1.00  0.00    -0.173 NA
HETATM   10  C   UNL     1      -6.708   4.413 -32.112  1.00  0.00     0.101 A 
ENDROOT
BRANCH   1  11
HETATM   11  C   UNL     1      -7.950   1.451 -32.556  1.00  0.00    -0.030 A 
HETATM   12  C   UNL     1      -9.091   0.831 -32.014  1.00  0.00     0.012 A 
HETATM   13  C   UNL     1     -10.266   0.727 -32.756  1.00  0.00     0.037 A 
HETATM   14  C   UNL     1     -10.318   1.254 -34.042  1.00  0.00     0.069 A 
HETATM   15  C   UNL     1      -9.178   1.795 -34.632  1.00  0.00     0.037 A 
HETATM   16  C   UNL     1      -7.998   1.893 -33.891  1.00  0.00     0.012 A 
BRANCH  14  17
HETATM   17  O   UNL     1     -11.525   1.222 -34.687  1.00  0.00    -0.348 OA
BRANCH  17  18
HETATM   18  C   UNL     1     -12.437   2.170 -34.115  1.00  0.00     0.202 C 
BRANCH  18  19
HETATM   19  C   UNL     1     -12.602   3.293 -35.094  1.00  0.00    -0.011 C 
HETATM   20  C   UNL     1     -12.707   4.588 -34.765  1.00  0.00     0.009 C 
ENDBRANCH  18  19
ENDBRANCH  17  18
ENDBRANCH  14  17
ENDBRANCH   1  11
BRANCH   2  21
HETATM   21  C   UNL     1      -5.393  -0.452 -31.630  1.00  0.00     0.167 C 
BRANCH  21  22
HETATM   22  C   UNL     1      -5.436  -1.343 -32.840  1.00  0.00    -0.023 A 
HETATM   23  C   UNL     1      -4.300  -2.011 -33.285  1.00  0.00     0.125 A 
HETATM   24  N   UNL     1      -4.263  -2.794 -34.386  1.00  0.00    -0.273 NA
HETATM   25  C   UNL     1      -5.414  -2.927 -35.079  1.00  0.00     0.116 A 
HETATM   26  C   UNL     1      -6.601  -2.310 -34.721  1.00  0.00     0.020 A 
HETATM   27  C   UNL     1      -6.608  -1.506 -33.586  1.00  0.00     0.012 A 
ENDBRANCH  21  22
ENDBRANCH   2  21
BRANCH  10  28
HETATM   28  C   UNL     1      -8.052   4.951 -31.952  1.00  0.00     0.028 A 
HETATM   29  C   UNL     1      -8.725   5.602 -32.994  1.00  0.00     0.078 A 
HETATM   30  C   UNL     1      -9.947   6.233 -32.771  1.00  0.00     0.037 A 
HETATM   31  C   UNL     1     -10.529   6.193 -31.504  1.00  0.00     0.003 A 
HETATM   32  C   UNL     1      -9.889   5.520 -30.464  1.00  0.00     0.001 A 
HETATM   33  C   UNL     1      -8.656   4.901 -30.687  1.00  0.00     0.017 A 
BRANCH  29  34
HETATM   34  O   UNL     1      -8.237   5.655 -34.273  1.00  0.00    -0.360 OA
HETATM   35  H   UNL     1      -7.594   4.928 -34.364  1.00  0.00     0.217 HD
ENDBRANCH  29  34
ENDBRANCH  10  28
TORSDOF 8
ENDMDL
MODEL 8
REMARK VINA RESULT:      -8.2      2.350      6.499
REMARK  8 active torsions:
REMARK  status: ('A' for Active; 'I' for Inactive)
REMARK    1  A    between atoms: C_2  and  C_3 
REMARK    2  A    between atoms: C_3  and  O_4 
REMARK    3  A    between atoms: O_4  and  C_5 
REMARK    4  A    between atoms: C_8  and  C_9 
REMARK    5  A    between atoms: N_10  and  C_11 
REMARK    6  A    between atoms: C_11  and  C_12 
REMARK    7  A    between atoms: C_25  and  C_26 
REMARK    8  A    between atoms: C_27  and  O_28 
ROOT
HETATM    1  C   UNL     1      -6.340   2.067 -30.585  1.00  0.00     0.159 A 
HETATM    2  N   UNL     1      -5.314   1.097 -31.054  1.00  0.00    -0.329 N 
HETATM    3  C   UNL     1      -4.039   1.658 -31.216  1.00  0.00     0.273 A 
HETATM    4  O   UNL     1      -2.996   1.102 -31.508  1.00  0.00    -0.266 OA
HETATM    5  C   UNL     1      -4.242   3.031 -30.942  1.00  0.00     0.129 A 
HETATM    6  C   UNL     1      -5.529   3.306 -30.592  1.00  0.00     0.034 A 
HETATM    7  N   UNL     1      -3.565   4.190 -30.954  1.00  0.00    -0.272 N 
HETATM    8  H   UNL     1      -2.589   4.363 -31.175  1.00  0.00     0.189 HD
HETATM    9  N   UNL     1      -4.373   5.242 -30.653  1.00  0.00    -0.173 NA
HETATM   10  C   UNL     1      -5.596   4.699 -30.448  1.00  0.00     0.101 A 
ENDROOT
BRANCH   1  11
HETATM   11  C   UNL     1      -7.488   2.302 -31.537  1.00  0.00    -0.030 A 
HETATM   12  C   UNL     1      -7.202   2.629 -32.875  1.00  0.00     0.012 A 
HETATM   13  C   UNL     1      -8.217   2.684 -33.829  1.00  0.00     0.037 A 
HETATM   14  C   UNL     1      -9.527   2.399 -33.458  1.00  0.00     0.069 A 
HETATM   15  C   UNL     1      -9.848   2.158 -32.124  1.00  0.00     0.037 A 
HETATM   16  C   UNL     1      -8.832   2.110 -31.167  1.00  0.00     0.012 A 
BRANCH  14  17
HETATM   17  O   UNL     1     -10.469   2.361 -34.451  1.00  0.00    -0.348 OA
BRANCH  17  18
HETATM   18  C   UNL     1     -11.793   2.340 -33.900  1.00  0.00     0.202 C 
BRANCH  18  19
HETATM   19  C   UNL     1     -12.529   1.193 -34.525  1.00  0.00    -0.011 C 
HETATM   20  C   UNL     1     -13.252   0.288 -33.853  1.00  0.00     0.009 C 
ENDBRANCH  18  19
ENDBRANCH  17  18
ENDBRANCH  14  17
ENDBRANCH   1  11
BRANCH   2  21
HETATM   21  C   UNL     1      -5.538  -0.331 -31.011  1.00  0.00     0.167 C 
BRANCH  21  22
HETATM   22  C   UNL     1      -5.707  -0.915 -32.386  1.00  0.00    -0.023 A 
HETATM   23  C   UNL     1      -4.655  -1.554 -33.034  1.00  0.00     0.125 A 
HETATM   24  N   UNL     1      -4.731  -2.065 -34.283  1.00  0.00    -0.273 NA
HETATM   25  C   UNL     1      -5.914  -1.941 -34.921  1.00  0.00     0.116 A 
HETATM   26  C   UNL     1      -7.024  -1.328 -34.367  1.00  0.00     0.020 A 
HETATM   27  C   UNL     1      -6.915  -0.807 -33.082  1.00  0.00     0.012 A 
ENDBRANCH  21  22
ENDBRANCH   2  21
BRANCH  10  28
HETATM   28  C   UNL     1      -6.777   5.513 -30.193  1.00  0.00     0.028 A 
HETATM   29  C   UNL     1      -7.330   5.647 -28.913  1.00  0.00     0.078 A 
HETATM   30  C   UNL     1      -8.541   6.311 -28.724  1.00  0.00     0.037 A 
HETATM   31  C   UNL     1      -9.199   6.879 -29.813  1.00  0.00     0.003 A 
HETATM   32  C   UNL     1      -8.645   6.785 -31.090  1.00  0.00     0.001 A 
HETATM   33  C   UNL     1      -7.439   6.105 -31.279  1.00  0.00     0.017 A 
BRANCH  29  34
HETATM   34  O   UNL     1      -6.727   5.148 -27.788  1.00  0.00    -0.360 OA
HETATM   35  H   UNL     1      -7.420   4.708 -27.263  1.00  0.00     0.217 HD
ENDBRANCH  29  34
ENDBRANCH  10  28
TORSDOF 8
ENDMDL
MODEL 9
REMARK VINA RESULT:      -8.1      3.433      6.723
REMARK  8 active torsions:
REMARK  status: ('A' for Active; 'I' for Inactive)
REMARK    1  A    between atoms: C_2  and  C_3 
REMARK    2  A    between atoms: C_3  and  O_4 
REMARK    3  A    between atoms: O_4  and  C_5 
REMARK    4  A    between atoms: C_8  and  C_9 
REMARK    5  A    between atoms: N_10  and  C_11 
REMARK    6  A    between atoms: C_11  and  C_12 
REMARK    7  A    between atoms: C_25  and  C_26 
REMARK    8  A    between atoms: C_27  and  O_28 
ROOT
HETATM    1  C   UNL     1      -7.479   4.213 -32.497  1.00  0.00     0.159 A 
HETATM    2  N   UNL     1      -8.233   5.387 -33.014  1.00  0.00    -0.329 N 
HETATM    3  C   UNL     1      -9.285   5.048 -33.876  1.00  0.00     0.273 A 
HETATM    4  O   UNL     1     -10.115   5.779 -34.386  1.00  0.00    -0.266 OA
HETATM    5  C   UNL     1      -9.170   3.644 -34.006  1.00  0.00     0.129 A 
HETATM    6  C   UNL     1      -8.157   3.134 -33.252  1.00  0.00     0.034 A 
HETATM    7  N   UNL     1      -9.728   2.628 -34.682  1.00  0.00    -0.272 N 
HETATM    8  H   UNL     1     -10.501   2.640 -35.341  1.00  0.00     0.189 HD
HETATM    9  N   UNL     1      -9.094   1.452 -34.427  1.00  0.00    -0.173 NA
HETATM   10  C   UNL     1      -8.106   1.766 -33.556  1.00  0.00     0.101 A 
ENDROOT
BRANCH   1  11
HETATM   11  C   UNL     1      -6.022   4.158 -32.889  1.00  0.00    -0.030 A 
HETATM   12  C   UNL     1      -5.604   4.844 -34.044  1.00  0.00     0.012 A 
HETATM   13  C   UNL     1      -4.250   4.969 -34.349  1.00  0.00     0.037 A 
HETATM   14  C   UNL     1      -3.298   4.421 -33.496  1.00  0.00     0.069 A 
HETATM   15  C   UNL     1      -3.688   3.664 -32.394  1.00  0.00     0.037 A 
HETATM   16  C   UNL     1      -5.045   3.533 -32.091  1.00  0.00     0.012 A 
BRANCH  14  17
HETATM   17  O   UNL     1      -1.982   4.663 -33.783  1.00  0.00    -0.348 OA
BRANCH  17  18
HETATM   18  C   UNL     1      -1.835   5.880 -34.529  1.00  0.00     0.202 C 
BRANCH  18  19
HETATM   19  C   UNL     1      -1.111   6.863 -33.659  1.00  0.00    -0.011 C 
HETATM   20  C   UNL     1      -1.696   7.674 -32.767  1.00  0.00     0.009 C 
ENDBRANCH  18  19
ENDBRANCH  17  18
ENDBRANCH  14  17
ENDBRANCH   1  11
BRANCH   2  21
HETATM   21  C   UNL     1      -8.105   6.699 -32.417  1.00  0.00     0.167 C 
BRANCH  21  22
HETATM   22  C   UNL     1      -7.870   6.622 -30.934  1.00  0.00    -0.023 A 
HETATM   23  C   UNL     1      -8.915   6.375 -30.050  1.00  0.00     0.125 A 
HETATM   24  N   UNL     1      -8.778   6.331 -28.706  1.00  0.00    -0.273 NA
HETATM   25  C   UNL     1      -7.538   6.537 -28.213  1.00  0.00     0.116 A 
HETATM   26  C   UNL     1      -6.429   6.786 -29.004  1.00  0.00     0.020 A 
HETATM   27  C   UNL     1      -6.602   6.830 -30.384  1.00  0.00     0.012 A 
ENDBRANCH  21  22
ENDBRANCH   2  21
BRANCH  10  28
HETATM   28  C   UNL     1      -7.126   0.788 -33.103  1.00  0.00     0.028 A 
HETATM   29  C   UNL     1      -7.065   0.352 -31.773  1.00  0.00     0.078 A 
HETATM   30  C   UNL     1      -6.028  -0.471 -31.339  1.00  0.00     0.037 A 
HETATM   31  C   UNL     1      -5.053  -0.895 -32.240  1.00  0.00     0.003 A 
HETATM   32  C   UNL     1      -5.117  -0.498 -33.576  1.00  0.00     0.001 A 
HETATM   33  C   UNL     1      -6.150   0.340 -34.005  1.00  0.00     0.017 A 
BRANCH  29  34
HETATM   34  O   UNL     1      -8.004   0.695 -30.837  1.00  0.00    -0.360 OA
HETATM   35  H   UNL     1      -8.759   0.091 -30.954  1.00  0.00     0.217 HD
ENDBRANCH  29  34
ENDBRANCH  10  28
TORSDOF 8
ENDMDL
MODEL 10
REMARK VINA RESULT:      -8.1      2.770      7.828
REMARK  8 active torsions:
REMARK  status: ('A' for Active; 'I' for Inactive)
REMARK    1  A    between atoms: C_2  and  C_3 
REMARK    2  A    between atoms: C_3  and  O_4 
REMARK    3  A    between atoms: O_4  and  C_5 
REMARK    4  A    between atoms: C_8  and  C_9 
REMARK    5  A    between atoms: N_10  and  C_11 
REMARK    6  A    between atoms: C_11  and  C_12 
REMARK    7  A    between atoms: C_25  and  C_26 
REMARK    8  A    between atoms: C_27  and  O_28 
ROOT
HETATM    1  C   UNL     1      -6.592   2.041 -33.157  1.00  0.00     0.159 A 
HETATM    2  N   UNL     1      -5.992   1.001 -32.278  1.00  0.00    -0.329 N 
HETATM    3  C   UNL     1      -6.850   0.556 -31.263  1.00  0.00     0.273 A 
HETATM    4  O   UNL     1      -6.668  -0.333 -30.450  1.00  0.00    -0.266 OA
HETATM    5  C   UNL     1      -7.995   1.374 -31.411  1.00  0.00     0.129 A 
HETATM    6  C   UNL     1      -7.886   2.233 -32.462  1.00  0.00     0.034 A 
HETATM    7  N   UNL     1      -9.170   1.610 -30.809  1.00  0.00    -0.272 N 
HETATM    8  H   UNL     1      -9.578   1.163 -29.993  1.00  0.00     0.189 HD
HETATM    9  N   UNL     1      -9.841   2.630 -31.410  1.00  0.00    -0.173 NA
HETATM   10  C   UNL     1      -9.038   3.031 -32.422  1.00  0.00     0.101 A 
ENDROOT
BRANCH   1  11
HETATM   11  C   UNL     1      -5.895   3.381 -33.140  1.00  0.00    -0.030 A 
HETATM   12  C   UNL     1      -5.455   3.899 -31.909  1.00  0.00     0.012 A 
HETATM   13  C   UNL     1      -4.657   5.041 -31.861  1.00  0.00     0.037 A 
HETATM   14  C   UNL     1      -4.279   5.669 -33.043  1.00  0.00     0.069 A 
HETATM   15  C   UNL     1      -4.773   5.225 -34.268  1.00  0.00     0.037 A 
HETATM   16  C   UNL     1      -5.578   4.085 -34.316  1.00  0.00     0.012 A 
BRANCH  14  17
HETATM   17  O   UNL     1      -3.409   6.721 -32.948  1.00  0.00    -0.348 OA
BRANCH  17  18
HETATM   18  C   UNL     1      -2.382   6.628 -33.946  1.00  0.00     0.202 C 
BRANCH  18  19
HETATM   19  C   UNL     1      -1.064   6.538 -33.237  1.00  0.00    -0.011 C 
HETATM   20  C   UNL     1      -0.760   5.635 -32.296  1.00  0.00     0.009 C 
ENDBRANCH  18  19
ENDBRANCH  17  18
ENDBRANCH  14  17
ENDBRANCH   1  11
BRANCH   2  21
HETATM   21  C   UNL     1      -4.788   0.290 -32.650  1.00  0.00     0.167 C 
BRANCH  21  22
HETATM   22  C   UNL     1      -5.088  -0.938 -33.462  1.00  0.00    -0.023 A 
HETATM   23  C   UNL     1      -6.265  -1.049 -34.197  1.00  0.00     0.125 A 
HETATM   24  N   UNL     1      -6.611  -2.139 -34.916  1.00  0.00    -0.273 NA
HETATM   25  C   UNL     1      -5.744  -3.174 -34.911  1.00  0.00     0.116 A 
HETATM   26  C   UNL     1      -4.545  -3.167 -34.218  1.00  0.00     0.020 A 
HETATM   27  C   UNL     1      -4.217  -2.032 -33.483  1.00  0.00     0.012 A 
ENDBRANCH  21  22
ENDBRANCH   2  21
BRANCH  10  28
HETATM   28  C   UNL     1      -9.355   4.181 -33.260  1.00  0.00     0.028 A 
HETATM   29  C   UNL     1      -9.222   5.498 -32.802  1.00  0.00     0.078 A 
HETATM   30  C   UNL     1      -9.670   6.570 -33.571  1.00  0.00     0.037 A 
HETATM   31  C   UNL     1     -10.230   6.338 -34.827  1.00  0.00     0.003 A 
HETATM   32  C   UNL     1     -10.338   5.036 -35.313  1.00  0.00     0.001 A 
HETATM   33  C   UNL     1      -9.903   3.961 -34.532  1.00  0.00     0.017 A 
BRANCH  29  34
HETATM   34  O   UNL     1      -8.651   5.810 -31.596  1.00  0.00    -0.360 OA
HETATM   35  H   UNL     1      -8.170   6.649 -31.716  1.00  0.00     0.217 HD
ENDBRANCH  29  34
ENDBRANCH  10  28
TORSDOF 8
ENDMDL
