MODEL 1
REMARK VINA RESULT:      -9.1      0.000      0.000
REMARK  8 active torsions:
REMARK  status: ('A' for Active; 'I' for Inactive)
REMARK    1  A    between atoms: C_2  and  C_3 
REMARK    2  A    between atoms: C_3  and  N_4 
REMARK       I    between atoms: N_4  and  C_5 
REMARK    3  A    between atoms: C_5  and  C_6 
REMARK    4  A    between atoms: C_7  and  N_8 
REMARK    5  A    between atoms: N_11  and  C_12 
REMARK    6  A    between atoms: C_13  and  O_14 
REMARK    7  A    between atoms: C_24  and  N_25 
REMARK       I    between atoms: N_25  and  C_26 
REMARK       I    between atoms: C_26  and  N_27 
REMARK    8  A    between atoms: N_27  and  C_28 
ROOT
HETATM    1  C   UNL     1      -5.254   2.471 -32.163  1.00  0.00     0.060 A 
HETATM    2  C   UNL     1      -6.498   2.893 -32.677  1.00  0.00     0.046 A 
HETATM    3  C   UNL     1      -6.599   4.252 -33.012  1.00  0.00     0.032 A 
HETATM    4  C   UNL     1      -5.535   5.146 -32.832  1.00  0.00     0.032 A 
HETATM    5  C   UNL     1      -4.321   4.716 -32.304  1.00  0.00     0.037 A 
HETATM    6  C   UNL     1      -4.183   3.369 -31.970  1.00  0.00     0.049 A 
ENDROOT
BRANCH   2   7
HETATM    7  N   UNL     1      -7.581   2.020 -32.836  1.00  0.00    -0.377 N 
HETATM    8  C   UNL     1      -8.105   1.912 -34.220  1.00  0.00     0.143 C 
HETATM    9  C   UNL     1      -9.002   0.659 -34.354  1.00  0.00     0.143 C 
HETATM   10  N   UNL     1     -10.080   0.639 -33.346  1.00  0.00    -0.376 N 
HETATM   11  C   UNL     1      -9.583   0.815 -31.961  1.00  0.00     0.143 C 
HETATM   12  C   UNL     1      -8.678   2.065 -31.840  1.00  0.00     0.143 C 
BRANCH  10  13
HETATM   13  C   UNL     1     -11.408   0.936 -33.636  1.00  0.00     0.064 A 
HETATM   14  C   UNL     1     -11.897   2.193 -34.065  1.00  0.00     0.094 A 
HETATM   15  C   UNL     1     -13.265   2.375 -34.349  1.00  0.00     0.039 A 
HETATM   16  C   UNL     1     -14.164   1.315 -34.257  1.00  0.00     0.003 A 
HETATM   17  C   UNL     1     -13.707   0.068 -33.862  1.00  0.00     0.002 A 
HETATM   18  C   UNL     1     -12.353  -0.110 -33.558  1.00  0.00     0.032 A 
BRANCH  14  19
HETATM   19  O   UNL     1     -11.035   3.265 -34.103  1.00  0.00    -0.354 OA
HETATM   20  C   UNL     1     -11.013   3.965 -35.345  1.00  0.00     0.210 C 
ENDBRANCH  14  19
ENDBRANCH  10  13
ENDBRANCH   2   7
BRANCH   1  21
HETATM   21  C   UNL     1      -5.015   1.075 -31.717  1.00  0.00     0.254 C 
HETATM   22  N   UNL     1      -4.527   0.240 -32.707  1.00  0.00    -0.353 N 
HETATM   23  H   UNL     1      -4.552   0.572 -33.662  1.00  0.00     0.163 HD
HETATM   24  O   UNL     1      -5.195   0.734 -30.555  1.00  0.00    -0.268 OA
BRANCH  22  25
HETATM   25  C   UNL     1      -4.278  -1.175 -32.462  1.00  0.00     0.080 C 
HETATM   26  C   UNL     1      -2.853  -1.375 -31.954  1.00  0.00     0.032 C 
BRANCH  25  27
HETATM   27  C   UNL     1      -4.596  -2.032 -33.700  1.00  0.00     0.020 C 
HETATM   28  C   UNL     1      -6.020  -1.894 -34.223  1.00  0.00     0.007 C 
ENDBRANCH  25  27
ENDBRANCH  22  25
ENDBRANCH   1  21
BRANCH   5  29
HETATM   29  N   UNL     1      -3.242   5.583 -32.031  1.00  0.00    -0.309 N 
HETATM   30  C   UNL     1      -2.933   6.158 -30.805  1.00  0.00     0.325 C 
HETATM   31  N   UNL     1      -1.651   6.680 -30.822  1.00  0.00    -0.307 N 
HETATM   32  O   UNL     1      -3.687   6.179 -29.841  1.00  0.00    -0.247 OA
HETATM   33  H   UNL     1      -1.056   6.382 -31.583  1.00  0.00     0.170 HD
HETATM   34  H   UNL     1      -2.709   5.912 -32.823  1.00  0.00     0.170 HD
BRANCH  31  35
HETATM   35  C   UNL     1      -0.976   7.334 -29.761  1.00  0.00     0.053 A 
HETATM   36  C   UNL     1       0.136   6.702 -29.173  1.00  0.00     0.037 A 
HETATM   37 BR   UNL     1       0.751   5.008 -29.785  1.00  0.00    -0.049 Br
HETATM   38  C   UNL     1       0.818   7.292 -28.104  1.00  0.00     0.021 A 
HETATM   39  C   UNL     1       0.405   8.529 -27.614  1.00  0.00     0.002 A 
HETATM   40  C   UNL     1      -0.680   9.175 -28.199  1.00  0.00     0.002 A 
HETATM   41  C   UNL     1      -1.363   8.584 -29.268  1.00  0.00     0.031 A 
ENDBRANCH  31  35
ENDBRANCH   5  29
TORSDOF 8
ENDMDL
MODEL 2
REMARK VINA RESULT:      -8.9      5.087     10.389
REMARK  8 active torsions:
REMARK  status: ('A' for Active; 'I' for Inactive)
REMARK    1  A    between atoms: C_2  and  C_3 
REMARK    2  A    between atoms: C_3  and  N_4 
REMARK       I    between atoms: N_4  and  C_5 
REMARK    3  A    between atoms: C_5  and  C_6 
REMARK    4  A    between atoms: C_7  and  N_8 
REMARK    5  A    between atoms: N_11  and  C_12 
REMARK    6  A    between atoms: C_13  and  O_14 
REMARK    7  A    between atoms: C_24  and  N_25 
REMARK       I    between atoms: N_25  and  C_26 
REMARK       I    between atoms: C_26  and  N_27 
REMARK    8  A    between atoms: N_27  and  C_28 
ROOT
HETATM    1  C   UNL     1     -10.157   2.963 -33.453  1.00  0.00     0.060 A 
HETATM    2  C   UNL     1      -9.955   1.580 -33.646  1.00  0.00     0.046 A 
HETATM    3  C   UNL     1     -11.112   0.806 -33.825  1.00  0.00     0.032 A 
HETATM    4  C   UNL     1     -12.396   1.366 -33.793  1.00  0.00     0.032 A 
HETATM    5  C   UNL     1     -12.577   2.730 -33.580  1.00  0.00     0.037 A 
HETATM    6  C   UNL     1     -11.448   3.530 -33.410  1.00  0.00     0.049 A 
ENDROOT
BRANCH   2   7
HETATM    7  N   UNL     1      -8.681   1.000 -33.651  1.00  0.00    -0.377 N 
HETATM    8  C   UNL     1      -8.180   0.591 -34.987  1.00  0.00     0.143 C 
HETATM    9  C   UNL     1      -6.654   0.346 -34.931  1.00  0.00     0.143 C 
HETATM   10  N   UNL     1      -6.286  -0.621 -33.878  1.00  0.00    -0.376 N 
HETATM   11  C   UNL     1      -6.837  -0.267 -32.548  1.00  0.00     0.143 C 
HETATM   12  C   UNL     1      -8.361  -0.013 -32.616  1.00  0.00     0.143 C 
BRANCH  10  13
HETATM   13  C   UNL     1      -5.927  -1.940 -34.137  1.00  0.00     0.064 A 
HETATM   14  C   UNL     1      -4.659  -2.515 -33.884  1.00  0.00     0.094 A 
HETATM   15  C   UNL     1      -4.412  -3.872 -34.170  1.00  0.00     0.039 A 
HETATM   16  C   UNL     1      -5.420  -4.694 -34.669  1.00  0.00     0.003 A 
HETATM   17  C   UNL     1      -6.678  -4.163 -34.903  1.00  0.00     0.002 A 
HETATM   18  C   UNL     1      -6.919  -2.810 -34.641  1.00  0.00     0.032 A 
BRANCH  14  19
HETATM   19  O   UNL     1      -3.635  -1.704 -33.448  1.00  0.00    -0.354 OA
HETATM   20  C   UNL     1      -3.308  -1.850 -32.069  1.00  0.00     0.210 C 
ENDBRANCH  14  19
ENDBRANCH  10  13
ENDBRANCH   2   7
BRANCH   1  21
HETATM   21  C   UNL     1      -9.031   3.898 -33.199  1.00  0.00     0.254 C 
HETATM   22  N   UNL     1      -8.673   4.003 -31.866  1.00  0.00    -0.353 N 
HETATM   23  H   UNL     1      -9.297   3.609 -31.175  1.00  0.00     0.163 HD
HETATM   24  O   UNL     1      -8.457   4.473 -34.114  1.00  0.00    -0.268 OA
BRANCH  22  25
HETATM   25  C   UNL     1      -7.620   4.910 -31.425  1.00  0.00     0.080 C 
HETATM   26  C   UNL     1      -6.396   4.113 -30.983  1.00  0.00     0.032 C 
BRANCH  25  27
HETATM   27  C   UNL     1      -8.122   5.883 -30.344  1.00  0.00     0.020 C 
HETATM   28  C   UNL     1      -9.635   5.921 -30.171  1.00  0.00     0.007 C 
ENDBRANCH  25  27
ENDBRANCH  22  25
ENDBRANCH   1  21
BRANCH   5  29
HETATM   29  N   UNL     1     -13.846   3.336 -33.464  1.00  0.00    -0.309 N 
HETATM   30  C   UNL     1     -14.509   3.647 -32.284  1.00  0.00     0.325 C 
HETATM   31  N   UNL     1     -15.562   4.511 -32.532  1.00  0.00    -0.307 N 
HETATM   32  O   UNL     1     -14.190   3.227 -31.180  1.00  0.00    -0.247 OA
HETATM   33  H   UNL     1     -15.565   4.968 -33.433  1.00  0.00     0.170 HD
HETATM   34  H   UNL     1     -14.376   3.453 -34.316  1.00  0.00     0.170 HD
BRANCH  31  35
HETATM   35  C   UNL     1     -16.463   5.060 -31.584  1.00  0.00     0.053 A 
HETATM   36  C   UNL     1     -17.774   4.552 -31.520  1.00  0.00     0.037 A 
HETATM   37 BR   UNL     1     -18.346   3.141 -32.663  1.00  0.00    -0.049 Br
HETATM   38  C   UNL     1     -18.707   5.080 -30.623  1.00  0.00     0.021 A 
HETATM   39  C   UNL     1     -18.342   6.117 -29.769  1.00  0.00     0.002 A 
HETATM   40  C   UNL     1     -17.043   6.616 -29.807  1.00  0.00     0.002 A 
HETATM   41  C   UNL     1     -16.109   6.089 -30.705  1.00  0.00     0.031 A 
ENDBRANCH  31  35
ENDBRANCH   5  29
TORSDOF 8
ENDMDL
MODEL 3
REMARK VINA RESULT:      -8.8      1.670      2.106
REMARK  8 active torsions:
REMARK  status: ('A' for Active; 'I' for Inactive)
REMARK    1  A    between atoms: C_2  and  C_3 
REMARK    2  A    between atoms: C_3  and  N_4 
REMARK       I    between atoms: N_4  and  C_5 
REMARK    3  A    between atoms: C_5  and  C_6 
REMARK    4  A    between atoms: C_7  and  N_8 
REMARK    5  A    between atoms: N_11  and  C_12 
REMARK    6  A    between atoms: C_13  and  O_14 
REMARK    7  A    between atoms: C_24  and  N_25 
REMARK       I    between atoms: N_25  and  C_26 
REMARK       I    between atoms: C_26  and  N_27 
REMARK    8  A    between atoms: N_27  and  C_28 
ROOT
HETATM    1  C   UNL     1      -6.251   2.458 -33.091  1.00  0.00     0.060 A 
HETATM    2  C   UNL     1      -7.425   3.111 -33.522  1.00  0.00     0.046 A 
HETATM    3  C   UNL     1      -7.312   4.488 -33.768  1.00  0.00     0.032 A 
HETATM    4  C   UNL     1      -6.110   5.183 -33.578  1.00  0.00     0.032 A 
HETATM    5  C   UNL     1      -4.966   4.526 -33.131  1.00  0.00     0.037 A 
HETATM    6  C   UNL     1      -5.042   3.155 -32.889  1.00  0.00     0.049 A 
ENDROOT
BRANCH   2   7
HETATM    7  N   UNL     1      -8.641   2.437 -33.688  1.00  0.00    -0.377 N 
HETATM    8  C   UNL     1      -9.634   3.133 -34.545  1.00  0.00     0.143 C 
HETATM    9  C   UNL     1     -10.745   2.148 -34.978  1.00  0.00     0.143 C 
HETATM   10  N   UNL     1     -11.376   1.481 -33.822  1.00  0.00    -0.376 N 
HETATM   11  C   UNL     1     -10.395   0.839 -32.916  1.00  0.00     0.143 C 
HETATM   12  C   UNL     1      -9.281   1.829 -32.497  1.00  0.00     0.143 C 
BRANCH  10  13
HETATM   13  C   UNL     1     -12.635   1.817 -33.334  1.00  0.00     0.064 A 
HETATM   14  C   UNL     1     -12.971   3.025 -32.679  1.00  0.00     0.094 A 
HETATM   15  C   UNL     1     -14.288   3.268 -32.242  1.00  0.00     0.039 A 
HETATM   16  C   UNL     1     -15.303   2.345 -32.481  1.00  0.00     0.003 A 
HETATM   17  C   UNL     1     -15.007   1.164 -33.143  1.00  0.00     0.002 A 
HETATM   18  C   UNL     1     -13.696   0.911 -33.558  1.00  0.00     0.032 A 
BRANCH  14  19
HETATM   19  O   UNL     1     -11.968   3.921 -32.380  1.00  0.00    -0.354 OA
HETATM   20  C   UNL     1     -11.766   4.143 -30.987  1.00  0.00     0.210 C 
ENDBRANCH  14  19
ENDBRANCH  10  13
ENDBRANCH   2   7
BRANCH   1  21
HETATM   21  C   UNL     1      -6.231   1.015 -32.743  1.00  0.00     0.254 C 
HETATM   22  N   UNL     1      -5.992   0.177 -33.818  1.00  0.00    -0.353 N 
HETATM   23  H   UNL     1      -6.041   0.573 -34.748  1.00  0.00     0.163 HD
HETATM   24  O   UNL     1      -6.368   0.631 -31.588  1.00  0.00    -0.268 OA
BRANCH  22  25
HETATM   25  C   UNL     1      -5.983  -1.273 -33.673  1.00  0.00     0.080 C 
HETATM   26  C   UNL     1      -4.547  -1.782 -33.594  1.00  0.00     0.032 C 
BRANCH  25  27
HETATM   27  C   UNL     1      -6.801  -1.962 -34.780  1.00  0.00     0.020 C 
HETATM   28  C   UNL     1      -6.757  -3.485 -34.753  1.00  0.00     0.007 C 
ENDBRANCH  25  27
ENDBRANCH  22  25
ENDBRANCH   1  21
BRANCH   5  29
HETATM   29  N   UNL     1      -3.751   5.186 -32.852  1.00  0.00    -0.309 N 
HETATM   30  C   UNL     1      -3.244   5.486 -31.594  1.00  0.00     0.325 C 
HETATM   31  N   UNL     1      -1.907   5.836 -31.680  1.00  0.00    -0.307 N 
HETATM   32  O   UNL     1      -3.889   5.429 -30.556  1.00  0.00    -0.247 OA
HETATM   33  H   UNL     1      -1.438   5.607 -32.546  1.00  0.00     0.170 HD
HETATM   34  H   UNL     1      -3.255   5.582 -33.637  1.00  0.00     0.170 HD
BRANCH  31  35
HETATM   35  C   UNL     1      -1.043   6.197 -30.615  1.00  0.00     0.053 A 
HETATM   36  C   UNL     1      -1.058   7.525 -30.150  1.00  0.00     0.037 A 
HETATM   37 BR   UNL     1      -2.219   8.828 -30.910  1.00  0.00    -0.049 Br
HETATM   38  C   UNL     1      -0.205   7.937 -29.122  1.00  0.00     0.021 A 
HETATM   39  C   UNL     1       0.669   7.024 -28.535  1.00  0.00     0.002 A 
HETATM   40  C   UNL     1       0.680   5.702 -28.970  1.00  0.00     0.002 A 
HETATM   41  C   UNL     1      -0.174   5.290 -30.000  1.00  0.00     0.031 A 
ENDBRANCH  31  35
ENDBRANCH   5  29
TORSDOF 8
ENDMDL
MODEL 4
REMARK VINA RESULT:      -8.8      1.688      2.364
REMARK  8 active torsions:
REMARK  status: ('A' for Active; 'I' for Inactive)
REMARK    1  A    between atoms: C_2  and  C_3 
REMARK    2  A    between atoms: C_3  and  N_4 
REMARK       I    between atoms: N_4  and  C_5 
REMARK    3  A    between atoms: C_5  and  C_6 
REMARK    4  A    between atoms: C_7  and  N_8 
REMARK    5  A    between atoms: N_11  and  C_12 
REMARK    6  A    between atoms: C_13  and  O_14 
REMARK    7  A    between atoms: C_24  and  N_25 
REMARK       I    between atoms: N_25  and  C_26 
REMARK       I    between atoms: C_26  and  N_27 
REMARK    8  A    between atoms: N_27  and  C_28 
ROOT
HETATM    1  C   UNL     1      -6.195   2.939 -32.870  1.00  0.00     0.060 A 
HETATM    2  C   UNL     1      -7.357   3.616 -33.297  1.00  0.00     0.046 A 
HETATM    3  C   UNL     1      -7.228   4.999 -33.497  1.00  0.00     0.032 A 
HETATM    4  C   UNL     1      -6.023   5.677 -33.269  1.00  0.00     0.032 A 
HETATM    5  C   UNL     1      -4.891   4.996 -32.828  1.00  0.00     0.037 A 
HETATM    6  C   UNL     1      -4.982   3.618 -32.630  1.00  0.00     0.049 A 
ENDROOT
BRANCH   2   7
HETATM    7  N   UNL     1      -8.577   2.960 -33.501  1.00  0.00    -0.377 N 
HETATM    8  C   UNL     1      -9.566   3.709 -34.315  1.00  0.00     0.143 C 
HETATM    9  C   UNL     1     -10.683   2.757 -34.804  1.00  0.00     0.143 C 
HETATM   10  N   UNL     1     -11.317   2.027 -33.688  1.00  0.00    -0.376 N 
HETATM   11  C   UNL     1     -10.338   1.329 -32.821  1.00  0.00     0.143 C 
HETATM   12  C   UNL     1      -9.219   2.287 -32.347  1.00  0.00     0.143 C 
BRANCH  10  13
HETATM   13  C   UNL     1     -12.574   2.340 -33.180  1.00  0.00     0.064 A 
HETATM   14  C   UNL     1     -13.757   1.592 -33.388  1.00  0.00     0.094 A 
HETATM   15  C   UNL     1     -14.976   1.995 -32.807  1.00  0.00     0.039 A 
HETATM   16  C   UNL     1     -15.040   3.113 -31.980  1.00  0.00     0.003 A 
HETATM   17  C   UNL     1     -13.891   3.849 -31.740  1.00  0.00     0.002 A 
HETATM   18  C   UNL     1     -12.684   3.465 -32.334  1.00  0.00     0.032 A 
BRANCH  14  19
HETATM   19  O   UNL     1     -13.724   0.520 -34.251  1.00  0.00    -0.354 OA
HETATM   20  C   UNL     1     -13.508  -0.741 -33.624  1.00  0.00     0.210 C 
ENDBRANCH  14  19
ENDBRANCH  10  13
ENDBRANCH   2   7
BRANCH   1  21
HETATM   21  C   UNL     1      -6.193   1.485 -32.568  1.00  0.00     0.254 C 
HETATM   22  N   UNL     1      -5.951   0.680 -33.668  1.00  0.00    -0.353 N 
HETATM   23  H   UNL     1      -5.988   1.106 -34.584  1.00  0.00     0.163 HD
HETATM   24  O   UNL     1      -6.344   1.067 -31.428  1.00  0.00    -0.268 OA
BRANCH  22  25
HETATM   25  C   UNL     1      -5.959  -0.774 -33.568  1.00  0.00     0.080 C 
HETATM   26  C   UNL     1      -4.531  -1.297 -33.444  1.00  0.00     0.032 C 
BRANCH  25  27
HETATM   27  C   UNL     1      -6.732  -1.421 -34.731  1.00  0.00     0.020 C 
HETATM   28  C   UNL     1      -6.780  -2.944 -34.697  1.00  0.00     0.007 C 
ENDBRANCH  25  27
ENDBRANCH  22  25
ENDBRANCH   1  21
BRANCH   5  29
HETATM   29  N   UNL     1      -3.674   5.635 -32.511  1.00  0.00    -0.309 N 
HETATM   30  C   UNL     1      -3.193   5.911 -31.238  1.00  0.00     0.325 C 
HETATM   31  N   UNL     1      -1.850   6.244 -31.288  1.00  0.00    -0.307 N 
HETATM   32  O   UNL     1      -3.863   5.849 -30.216  1.00  0.00    -0.247 OA
HETATM   33  H   UNL     1      -1.364   6.020 -32.145  1.00  0.00     0.170 HD
HETATM   34  H   UNL     1      -3.154   6.034 -33.279  1.00  0.00     0.170 HD
BRANCH  31  35
HETATM   35  C   UNL     1      -1.007   6.578 -30.198  1.00  0.00     0.053 A 
HETATM   36  C   UNL     1      -1.051   7.887 -29.683  1.00  0.00     0.037 A 
HETATM   37 BR   UNL     1      -2.225   9.198 -30.408  1.00  0.00    -0.049 Br
HETATM   38  C   UNL     1      -0.219   8.274 -28.628  1.00  0.00     0.021 A 
HETATM   39  C   UNL     1       0.663   7.355 -28.064  1.00  0.00     0.002 A 
HETATM   40  C   UNL     1       0.703   6.051 -28.550  1.00  0.00     0.002 A 
HETATM   41  C   UNL     1      -0.129   5.664 -29.606  1.00  0.00     0.031 A 
ENDBRANCH  31  35
ENDBRANCH   5  29
TORSDOF 8
ENDMDL
MODEL 5
REMARK VINA RESULT:      -8.7      3.240     10.054
REMARK  8 active torsions:
REMARK  status: ('A' for Active; 'I' for Inactive)
REMARK    1  A    between atoms: C_2  and  C_3 
REMARK    2  A    between atoms: C_3  and  N_4 
REMARK       I    between atoms: N_4  and  C_5 
REMARK    3  A    between atoms: C_5  and  C_6 
REMARK    4  A    between atoms: C_7  and  N_8 
REMARK    5  A    between atoms: N_11  and  C_12 
REMARK    6  A    between atoms: C_13  and  O_14 
REMARK    7  A    between atoms: C_24  and  N_25 
REMARK       I    between atoms: N_25  and  C_26 
REMARK       I    between atoms: C_26  and  N_27 
REMARK    8  A    between atoms: N_27  and  C_28 
ROOT
HETATM    1  C   UNL     1      -6.960   2.372 -32.867  1.00  0.00     0.060 A 
HETATM    2  C   UNL     1      -6.254   3.569 -33.117  1.00  0.00     0.046 A 
HETATM    3  C   UNL     1      -7.015   4.646 -33.596  1.00  0.00     0.032 A 
HETATM    4  C   UNL     1      -8.392   4.540 -33.835  1.00  0.00     0.032 A 
HETATM    5  C   UNL     1      -9.068   3.345 -33.603  1.00  0.00     0.037 A 
HETATM    6  C   UNL     1      -8.344   2.258 -33.115  1.00  0.00     0.049 A 
ENDROOT
BRANCH   2   7
HETATM    7  N   UNL     1      -4.874   3.683 -32.912  1.00  0.00    -0.377 N 
HETATM    8  C   UNL     1      -4.434   3.550 -31.500  1.00  0.00     0.143 C 
HETATM    9  C   UNL     1      -2.909   3.294 -31.441  1.00  0.00     0.143 C 
HETATM   10  N   UNL     1      -2.145   4.326 -32.169  1.00  0.00    -0.376 N 
HETATM   11  C   UNL     1      -2.616   4.524 -33.560  1.00  0.00     0.143 C 
HETATM   12  C   UNL     1      -4.144   4.768 -33.611  1.00  0.00     0.143 C 
BRANCH  10  13
HETATM   13  C   UNL     1      -1.436   5.344 -31.539  1.00  0.00     0.064 A 
HETATM   14  C   UNL     1      -2.005   6.438 -30.844  1.00  0.00     0.094 A 
HETATM   15  C   UNL     1      -1.187   7.404 -30.226  1.00  0.00     0.039 A 
HETATM   16  C   UNL     1       0.200   7.285 -30.244  1.00  0.00     0.003 A 
HETATM   17  C   UNL     1       0.783   6.211 -30.895  1.00  0.00     0.002 A 
HETATM   18  C   UNL     1      -0.026   5.262 -31.530  1.00  0.00     0.032 A 
BRANCH  14  19
HETATM   19  O   UNL     1      -3.372   6.604 -30.868  1.00  0.00    -0.354 OA
HETATM   20  C   UNL     1      -3.973   6.771 -29.586  1.00  0.00     0.210 C 
ENDBRANCH  14  19
ENDBRANCH  10  13
ENDBRANCH   2   7
BRANCH   1  21
HETATM   21  C   UNL     1      -6.280   1.135 -32.408  1.00  0.00     0.254 C 
HETATM   22  N   UNL     1      -5.542   0.497 -33.390  1.00  0.00    -0.353 N 
HETATM   23  H   UNL     1      -5.671   0.795 -34.348  1.00  0.00     0.163 HD
HETATM   24  O   UNL     1      -6.344   0.763 -31.244  1.00  0.00    -0.268 OA
BRANCH  22  25
HETATM   25  C   UNL     1      -4.845  -0.757 -33.133  1.00  0.00     0.080 C 
HETATM   26  C   UNL     1      -3.336  -0.528 -33.138  1.00  0.00     0.032 C 
BRANCH  25  27
HETATM   27  C   UNL     1      -5.285  -1.864 -34.107  1.00  0.00     0.020 C 
HETATM   28  C   UNL     1      -6.665  -1.663 -34.721  1.00  0.00     0.007 C 
ENDBRANCH  25  27
ENDBRANCH  22  25
ENDBRANCH   1  21
BRANCH   5  29
HETATM   29  N   UNL     1     -10.435   3.157 -33.894  1.00  0.00    -0.309 N 
HETATM   30  C   UNL     1     -11.481   3.149 -32.980  1.00  0.00     0.325 C 
HETATM   31  N   UNL     1     -12.697   3.263 -33.633  1.00  0.00    -0.307 N 
HETATM   32  O   UNL     1     -11.340   3.072 -31.767  1.00  0.00    -0.247 OA
HETATM   33  H   UNL     1     -12.662   3.564 -34.597  1.00  0.00     0.170 HD
HETATM   34  H   UNL     1     -10.669   2.888 -34.839  1.00  0.00     0.170 HD
BRANCH  31  35
HETATM   35  C   UNL     1     -13.987   3.303 -33.045  1.00  0.00     0.053 A 
HETATM   36  C   UNL     1     -14.755   2.124 -33.015  1.00  0.00     0.037 A 
HETATM   37 BR   UNL     1     -14.090   0.490 -33.728  1.00  0.00    -0.049 Br
HETATM   38  C   UNL     1     -16.044   2.118 -32.472  1.00  0.00     0.021 A 
HETATM   39  C   UNL     1     -16.580   3.289 -31.941  1.00  0.00     0.002 A 
HETATM   40  C   UNL     1     -15.824   4.458 -31.946  1.00  0.00     0.002 A 
HETATM   41  C   UNL     1     -14.535   4.464 -32.490  1.00  0.00     0.031 A 
ENDBRANCH  31  35
ENDBRANCH   5  29
TORSDOF 8
ENDMDL
MODEL 6
REMARK VINA RESULT:      -8.5      2.620      5.402
REMARK  8 active torsions:
REMARK  status: ('A' for Active; 'I' for Inactive)
REMARK    1  A    between atoms: C_2  and  C_3 
REMARK    2  A    between atoms: C_3  and  N_4 
REMARK       I    between atoms: N_4  and  C_5 
REMARK    3  A    between atoms: C_5  and  C_6 
REMARK    4  A    between atoms: C_7  and  N_8 
REMARK    5  A    between atoms: N_11  and  C_12 
REMARK    6  A    between atoms: C_13  and  O_14 
REMARK    7  A    between atoms: C_24  and  N_25 
REMARK       I    between atoms: N_25  and  C_26 
REMARK       I    between atoms: C_26  and  N_27 
REMARK    8  A    between atoms: N_27  and  C_28 
ROOT
HETATM    1  C   UNL     1      -5.410   4.275 -31.923  1.00  0.00     0.060 A 
HETATM    2  C   UNL     1      -4.825   2.996 -32.044  1.00  0.00     0.046 A 
HETATM    3  C   UNL     1      -3.451   2.918 -31.769  1.00  0.00     0.032 A 
HETATM    4  C   UNL     1      -2.695   4.043 -31.415  1.00  0.00     0.032 A 
HETATM    5  C   UNL     1      -3.285   5.301 -31.321  1.00  0.00     0.037 A 
HETATM    6  C   UNL     1      -4.651   5.413 -31.576  1.00  0.00     0.049 A 
ENDROOT
BRANCH   2   7
HETATM    7  N   UNL     1      -5.559   1.868 -32.425  1.00  0.00    -0.377 N 
HETATM    8  C   UNL     1      -5.359   0.669 -31.573  1.00  0.00     0.143 C 
HETATM    9  C   UNL     1      -6.486  -0.360 -31.829  1.00  0.00     0.143 C 
HETATM   10  N   UNL     1      -6.605  -0.706 -33.259  1.00  0.00    -0.376 N 
HETATM   11  C   UNL     1      -6.736   0.483 -34.135  1.00  0.00     0.143 C 
HETATM   12  C   UNL     1      -5.612   1.511 -33.863  1.00  0.00     0.143 C 
BRANCH  10  13
HETATM   13  C   UNL     1      -6.149  -1.904 -33.801  1.00  0.00     0.064 A 
HETATM   14  C   UNL     1      -4.815  -2.373 -33.758  1.00  0.00     0.094 A 
HETATM   15  C   UNL     1      -4.468  -3.615 -34.325  1.00  0.00     0.039 A 
HETATM   16  C   UNL     1      -5.436  -4.433 -34.904  1.00  0.00     0.003 A 
HETATM   17  C   UNL     1      -6.754  -4.009 -34.937  1.00  0.00     0.002 A 
HETATM   18  C   UNL     1      -7.097  -2.766 -34.395  1.00  0.00     0.032 A 
BRANCH  14  19
HETATM   19  O   UNL     1      -3.836  -1.551 -33.245  1.00  0.00    -0.354 OA
HETATM   20  C   UNL     1      -3.157  -2.076 -32.107  1.00  0.00     0.210 C 
ENDBRANCH  14  19
ENDBRANCH  10  13
ENDBRANCH   2   7
BRANCH   1  21
HETATM   21  C   UNL     1      -6.841   4.522 -32.231  1.00  0.00     0.254 C 
HETATM   22  N   UNL     1      -7.656   4.592 -31.114  1.00  0.00    -0.353 N 
HETATM   23  H   UNL     1      -7.273   4.290 -30.228  1.00  0.00     0.163 HD
HETATM   24  O   UNL     1      -7.229   4.695 -33.379  1.00  0.00    -0.268 OA
BRANCH  22  25
HETATM   25  C   UNL     1      -9.097   4.782 -31.228  1.00  0.00     0.080 C 
HETATM   26  C   UNL     1      -9.584   5.745 -30.149  1.00  0.00     0.032 C 
BRANCH  25  27
HETATM   27  C   UNL     1      -9.851   3.441 -31.216  1.00  0.00     0.020 C 
HETATM   28  C   UNL     1      -8.964   2.210 -31.071  1.00  0.00     0.007 C 
ENDBRANCH  25  27
ENDBRANCH  22  25
ENDBRANCH   1  21
BRANCH   5  29
HETATM   29  N   UNL     1      -2.561   6.479 -31.042  1.00  0.00    -0.309 N 
HETATM   30  C   UNL     1      -2.583   7.201 -29.856  1.00  0.00     0.325 C 
HETATM   31  N   UNL     1      -1.529   8.097 -29.813  1.00  0.00    -0.307 N 
HETATM   32  O   UNL     1      -3.410   7.047 -28.967  1.00  0.00    -0.247 OA
HETATM   33  H   UNL     1      -0.789   7.953 -30.487  1.00  0.00     0.170 HD
HETATM   34  H   UNL     1      -2.069   6.906 -31.813  1.00  0.00     0.170 HD
BRANCH  31  35
HETATM   35  C   UNL     1      -1.210   8.999 -28.766  1.00  0.00     0.053 A 
HETATM   36  C   UNL     1      -0.208   8.641 -27.844  1.00  0.00     0.037 A 
HETATM   37 BR   UNL     1       0.727   6.989 -27.989  1.00  0.00    -0.049 Br
HETATM   38  C   UNL     1       0.123   9.482 -26.777  1.00  0.00     0.021 A 
HETATM   39  C   UNL     1      -0.536  10.700 -26.622  1.00  0.00     0.002 A 
HETATM   40  C   UNL     1      -1.514  11.076 -27.538  1.00  0.00     0.002 A 
HETATM   41  C   UNL     1      -1.846  10.234 -28.605  1.00  0.00     0.031 A 
ENDBRANCH  31  35
ENDBRANCH   5  29
TORSDOF 8
ENDMDL
MODEL 7
REMARK VINA RESULT:      -8.3      2.015      2.519
REMARK  8 active torsions:
REMARK  status: ('A' for Active; 'I' for Inactive)
REMARK    1  A    between atoms: C_2  and  C_3 
REMARK    2  A    between atoms: C_3  and  N_4 
REMARK       I    between atoms: N_4  and  C_5 
REMARK    3  A    between atoms: C_5  and  C_6 
REMARK    4  A    between atoms: C_7  and  N_8 
REMARK    5  A    between atoms: N_11  and  C_12 
REMARK    6  A    between atoms: C_13  and  O_14 
REMARK    7  A    between atoms: C_24  and  N_25 
REMARK       I    between atoms: N_25  and  C_26 
REMARK       I    between atoms: C_26  and  N_27 
REMARK    8  A    between atoms: N_27  and  C_28 
ROOT
HETATM    1  C   UNL     1      -6.626   3.310 -32.411  1.00  0.00     0.060 A 
HETATM    2  C   UNL     1      -7.978   3.566 -32.099  1.00  0.00     0.046 A 
HETATM    3  C   UNL     1      -8.210   4.411 -31.003  1.00  0.00     0.032 A 
HETATM    4  C   UNL     1      -7.163   4.956 -30.246  1.00  0.00     0.032 A 
HETATM    5  C   UNL     1      -5.835   4.675 -30.556  1.00  0.00     0.037 A 
HETATM    6  C   UNL     1      -5.570   3.848 -31.646  1.00  0.00     0.049 A 
ENDROOT
BRANCH   2   7
HETATM    7  N   UNL     1      -9.036   3.006 -32.825  1.00  0.00    -0.377 N 
HETATM    8  C   UNL     1     -10.032   3.980 -33.339  1.00  0.00     0.143 C 
HETATM    9  C   UNL     1     -10.904   3.322 -34.433  1.00  0.00     0.143 C 
HETATM   10  N   UNL     1     -11.536   2.074 -33.962  1.00  0.00    -0.376 N 
HETATM   11  C   UNL     1     -10.565   1.116 -33.381  1.00  0.00     0.143 C 
HETATM   12  C   UNL     1      -9.690   1.786 -32.296  1.00  0.00     0.143 C 
BRANCH  10  13
HETATM   13  C   UNL     1     -12.880   1.976 -33.615  1.00  0.00     0.064 A 
HETATM   14  C   UNL     1     -13.541   2.768 -32.647  1.00  0.00     0.094 A 
HETATM   15  C   UNL     1     -14.916   2.595 -32.390  1.00  0.00     0.039 A 
HETATM   16  C   UNL     1     -15.668   1.671 -33.110  1.00  0.00     0.003 A 
HETATM   17  C   UNL     1     -15.051   0.900 -34.082  1.00  0.00     0.002 A 
HETATM   18  C   UNL     1     -13.681   1.054 -34.323  1.00  0.00     0.032 A 
BRANCH  14  19
HETATM   19  O   UNL     1     -12.801   3.643 -31.883  1.00  0.00    -0.354 OA
HETATM   20  C   UNL     1     -13.404   4.005 -30.643  1.00  0.00     0.210 C 
ENDBRANCH  14  19
ENDBRANCH  10  13
ENDBRANCH   2   7
BRANCH   1  21
HETATM   21  C   UNL     1      -6.228   2.395 -33.510  1.00  0.00     0.254 C 
HETATM   22  N   UNL     1      -6.224   1.056 -33.157  1.00  0.00    -0.353 N 
HETATM   23  H   UNL     1      -6.296   0.824 -32.175  1.00  0.00     0.163 HD
HETATM   24  O   UNL     1      -5.980   2.811 -34.633  1.00  0.00    -0.268 OA
BRANCH  22  25
HETATM   25  C   UNL     1      -5.814   0.018 -34.094  1.00  0.00     0.080 C 
HETATM   26  C   UNL     1      -7.035  -0.549 -34.813  1.00  0.00     0.032 C 
BRANCH  25  27
HETATM   27  C   UNL     1      -4.967  -1.068 -33.408  1.00  0.00     0.020 C 
HETATM   28  C   UNL     1      -4.839  -2.369 -34.192  1.00  0.00     0.007 C 
ENDBRANCH  25  27
ENDBRANCH  22  25
ENDBRANCH   1  21
BRANCH   5  29
HETATM   29  N   UNL     1      -4.745   5.134 -29.787  1.00  0.00    -0.309 N 
HETATM   30  C   UNL     1      -4.216   6.418 -29.786  1.00  0.00     0.325 C 
HETATM   31  N   UNL     1      -3.381   6.599 -28.697  1.00  0.00    -0.307 N 
HETATM   32  O   UNL     1      -4.473   7.273 -30.624  1.00  0.00    -0.247 OA
HETATM   33  H   UNL     1      -3.449   5.911 -27.961  1.00  0.00     0.170 HD
HETATM   34  H   UNL     1      -4.223   4.439 -29.274  1.00  0.00     0.170 HD
BRANCH  31  35
HETATM   35  C   UNL     1      -2.667   7.774 -28.348  1.00  0.00     0.053 A 
HETATM   36  C   UNL     1      -1.281   7.822 -28.587  1.00  0.00     0.037 A 
HETATM   37 BR   UNL     1      -0.361   6.356 -29.380  1.00  0.00    -0.049 Br
HETATM   38  C   UNL     1      -0.528   8.947 -28.234  1.00  0.00     0.021 A 
HETATM   39  C   UNL     1      -1.152  10.045 -27.646  1.00  0.00     0.002 A 
HETATM   40  C   UNL     1      -2.526  10.019 -27.422  1.00  0.00     0.002 A 
HETATM   41  C   UNL     1      -3.279   8.894 -27.775  1.00  0.00     0.031 A 
ENDBRANCH  31  35
ENDBRANCH   5  29
TORSDOF 8
ENDMDL
MODEL 8
REMARK VINA RESULT:      -8.2      1.975      2.892
REMARK  8 active torsions:
REMARK  status: ('A' for Active; 'I' for Inactive)
REMARK    1  A    between atoms: C_2  and  C_3 
REMARK    2  A    between atoms: C_3  and  N_4 
REMARK       I    between atoms: N_4  and  C_5 
REMARK    3  A    between atoms: C_5  and  C_6 
REMARK    4  A    between atoms: C_7  and  N_8 
REMARK    5  A    between atoms: N_11  and  C_12 
REMARK    6  A    between atoms: C_13  and  O_14 
REMARK    7  A    between atoms: C_24  and  N_25 
REMARK       I    between atoms: N_25  and  C_26 
REMARK       I    between atoms: C_26  and  N_27 
REMARK    8  A    between atoms: N_27  and  C_28 
ROOT
HETATM    1  C   UNL     1      -5.736   4.185 -31.726  1.00  0.00     0.060 A 
HETATM    2  C   UNL     1      -6.553   5.300 -32.011  1.00  0.00     0.046 A 
HETATM    3  C   UNL     1      -6.002   6.558 -31.723  1.00  0.00     0.032 A 
HETATM    4  C   UNL     1      -4.723   6.704 -31.166  1.00  0.00     0.032 A 
HETATM    5  C   UNL     1      -3.940   5.590 -30.873  1.00  0.00     0.037 A 
HETATM    6  C   UNL     1      -4.453   4.325 -31.157  1.00  0.00     0.049 A 
ENDROOT
BRANCH   2   7
HETATM    7  N   UNL     1      -7.843   5.171 -32.538  1.00  0.00    -0.377 N 
HETATM    8  C   UNL     1      -8.863   4.657 -31.589  1.00  0.00     0.143 C 
HETATM    9  C   UNL     1     -10.283   4.931 -32.137  1.00  0.00     0.143 C 
HETATM   10  N   UNL     1     -10.466   4.391 -33.498  1.00  0.00    -0.376 N 
HETATM   11  C   UNL     1      -9.416   4.838 -34.445  1.00  0.00     0.143 C 
HETATM   12  C   UNL     1      -7.999   4.571 -33.884  1.00  0.00     0.143 C 
BRANCH  10  13
HETATM   13  C   UNL     1     -11.186   3.233 -33.776  1.00  0.00     0.064 A 
HETATM   14  C   UNL     1     -10.835   1.926 -33.364  1.00  0.00     0.094 A 
HETATM   15  C   UNL     1     -11.652   0.824 -33.687  1.00  0.00     0.039 A 
HETATM   16  C   UNL     1     -12.846   0.997 -34.382  1.00  0.00     0.003 A 
HETATM   17  C   UNL     1     -13.226   2.270 -34.776  1.00  0.00     0.002 A 
HETATM   18  C   UNL     1     -12.405   3.363 -34.476  1.00  0.00     0.032 A 
BRANCH  14  19
HETATM   19  O   UNL     1      -9.628   1.729 -32.729  1.00  0.00    -0.354 OA
HETATM   20  C   UNL     1      -9.521   0.491 -32.030  1.00  0.00     0.210 C 
ENDBRANCH  14  19
ENDBRANCH  10  13
ENDBRANCH   2   7
BRANCH   1  21
HETATM   21  C   UNL     1      -6.204   2.790 -31.929  1.00  0.00     0.254 C 
HETATM   22  N   UNL     1      -5.849   2.248 -33.153  1.00  0.00    -0.353 N 
HETATM   23  H   UNL     1      -5.487   2.872 -33.861  1.00  0.00     0.163 HD
HETATM   24  O   UNL     1      -6.805   2.181 -31.054  1.00  0.00    -0.268 OA
BRANCH  22  25
HETATM   25  C   UNL     1      -6.263   0.906 -33.545  1.00  0.00     0.080 C 
HETATM   26  C   UNL     1      -5.123  -0.082 -33.309  1.00  0.00     0.032 C 
BRANCH  25  27
HETATM   27  C   UNL     1      -6.793   0.872 -34.988  1.00  0.00     0.020 C 
HETATM   28  C   UNL     1      -7.912  -0.133 -35.234  1.00  0.00     0.007 C 
ENDBRANCH  25  27
ENDBRANCH  22  25
ENDBRANCH   1  21
BRANCH   5  29
HETATM   29  N   UNL     1      -2.679   5.672 -30.246  1.00  0.00    -0.309 N 
HETATM   30  C   UNL     1      -2.130   6.793 -29.637  1.00  0.00     0.325 C 
HETATM   31  N   UNL     1      -1.043   6.438 -28.856  1.00  0.00    -0.307 N 
HETATM   32  O   UNL     1      -2.562   7.931 -29.764  1.00  0.00    -0.247 OA
HETATM   33  H   UNL     1      -0.945   5.455 -28.644  1.00  0.00     0.170 HD
HETATM   34  H   UNL     1      -2.066   4.876 -30.346  1.00  0.00     0.170 HD
BRANCH  31  35
HETATM   35  C   UNL     1      -0.231   7.298 -28.074  1.00  0.00     0.053 A 
HETATM   36  C   UNL     1      -0.602   7.555 -26.741  1.00  0.00     0.037 A 
HETATM   37 BR   UNL     1      -2.152   6.761 -25.973  1.00  0.00    -0.049 Br
HETATM   38  C   UNL     1       0.151   8.418 -25.938  1.00  0.00     0.021 A 
HETATM   39  C   UNL     1       1.291   9.030 -26.452  1.00  0.00     0.002 A 
HETATM   40  C   UNL     1       1.682   8.769 -27.763  1.00  0.00     0.002 A 
HETATM   41  C   UNL     1       0.929   7.906 -28.566  1.00  0.00     0.031 A 
ENDBRANCH  31  35
ENDBRANCH   5  29
TORSDOF 8
ENDMDL
MODEL 9
REMARK VINA RESULT:      -7.9      2.888      5.126
REMARK  8 active torsions:
REMARK  status: ('A' for Active; 'I' for Inactive)
REMARK    1  A    between atoms: C_2  and  C_3 
REMARK    2  A    between atoms: C_3  and  N_4 
REMARK       I    between atoms: N_4  and  C_5 
REMARK    3  A    between atoms: C_5  and  C_6 
REMARK    4  A    between atoms: C_7  and  N_8 
REMARK    5  A    between atoms: N_11  and  C_12 
REMARK    6  A    between atoms: C_13  and  O_14 
REMARK    7  A    between atoms: C_24  and  N_25 
REMARK       I    between atoms: N_25  and  C_26 
REMARK       I    between atoms: C_26  and  N_27 
REMARK    8  A    between atoms: N_27  and  C_28 
ROOT
HETATM    1  C   UNL     1      -3.284   5.767 -30.407  1.00  0.00     0.060 A 
HETATM    2  C   UNL     1      -4.562   5.188 -30.256  1.00  0.00     0.046 A 
HETATM    3  C   UNL     1      -5.382   5.752 -29.266  1.00  0.00     0.032 A 
HETATM    4  C   UNL     1      -4.955   6.815 -28.459  1.00  0.00     0.032 A 
HETATM    5  C   UNL     1      -3.682   7.360 -28.609  1.00  0.00     0.037 A 
HETATM    6  C   UNL     1      -2.846   6.831 -29.591  1.00  0.00     0.049 A 
ENDROOT
BRANCH   2   7
HETATM    7  N   UNL     1      -4.994   4.107 -31.033  1.00  0.00    -0.377 N 
HETATM    8  C   UNL     1      -5.781   4.472 -32.238  1.00  0.00     0.143 C 
HETATM    9  C   UNL     1      -5.855   3.271 -33.209  1.00  0.00     0.143 C 
HETATM   10  N   UNL     1      -6.377   2.057 -32.549  1.00  0.00    -0.376 N 
HETATM   11  C   UNL     1      -5.648   1.715 -31.305  1.00  0.00     0.143 C 
HETATM   12  C   UNL     1      -5.568   2.926 -30.345  1.00  0.00     0.143 C 
BRANCH  10  13
HETATM   13  C   UNL     1      -7.668   1.575 -32.736  1.00  0.00     0.064 A 
HETATM   14  C   UNL     1      -8.027   0.216 -32.896  1.00  0.00     0.094 A 
HETATM   15  C   UNL     1      -9.375  -0.160 -33.060  1.00  0.00     0.039 A 
HETATM   16  C   UNL     1     -10.393   0.790 -33.027  1.00  0.00     0.003 A 
HETATM   17  C   UNL     1     -10.071   2.125 -32.846  1.00  0.00     0.002 A 
HETATM   18  C   UNL     1      -8.732   2.504 -32.706  1.00  0.00     0.032 A 
BRANCH  14  19
HETATM   19  O   UNL     1      -7.030  -0.729 -32.993  1.00  0.00    -0.354 OA
HETATM   20  C   UNL     1      -6.893  -1.318 -34.284  1.00  0.00     0.210 C 
ENDBRANCH  14  19
ENDBRANCH  10  13
ENDBRANCH   2   7
BRANCH   1  21
HETATM   21  C   UNL     1      -2.289   5.244 -31.378  1.00  0.00     0.254 C 
HETATM   22  N   UNL     1      -2.329   5.861 -32.616  1.00  0.00    -0.353 N 
HETATM   23  H   UNL     1      -3.120   6.456 -32.825  1.00  0.00     0.163 HD
HETATM   24  O   UNL     1      -1.483   4.378 -31.065  1.00  0.00    -0.268 OA
BRANCH  22  25
HETATM   25  C   UNL     1      -1.456   5.446 -33.707  1.00  0.00     0.080 C 
HETATM   26  C   UNL     1      -0.617   6.627 -34.185  1.00  0.00     0.032 C 
BRANCH  25  27
HETATM   27  C   UNL     1      -2.246   4.776 -34.845  1.00  0.00     0.020 C 
HETATM   28  C   UNL     1      -3.605   5.402 -35.135  1.00  0.00     0.007 C 
ENDBRANCH  25  27
ENDBRANCH  22  25
ENDBRANCH   1  21
BRANCH   5  29
HETATM   29  N   UNL     1      -3.171   8.379 -27.778  1.00  0.00    -0.309 N 
HETATM   30  C   UNL     1      -2.385   8.206 -26.646  1.00  0.00     0.325 C 
HETATM   31  N   UNL     1      -1.804   9.405 -26.270  1.00  0.00    -0.307 N 
HETATM   32  O   UNL     1      -2.218   7.135 -26.076  1.00  0.00    -0.247 OA
HETATM   33  H   UNL     1      -1.823  10.147 -26.955  1.00  0.00     0.170 HD
HETATM   34  H   UNL     1      -3.500   9.317 -27.951  1.00  0.00     0.170 HD
BRANCH  31  35
HETATM   35  C   UNL     1      -0.931   9.630 -25.175  1.00  0.00     0.053 A 
HETATM   36  C   UNL     1       0.454   9.474 -25.369  1.00  0.00     0.037 A 
HETATM   37 BR   UNL     1       1.168   8.986 -27.065  1.00  0.00    -0.049 Br
HETATM   38  C   UNL     1       1.354   9.656 -24.314  1.00  0.00     0.021 A 
HETATM   39  C   UNL     1       0.883  10.008 -23.051  1.00  0.00     0.002 A 
HETATM   40  C   UNL     1      -0.483  10.186 -22.850  1.00  0.00     0.002 A 
HETATM   41  C   UNL     1      -1.383  10.003 -23.905  1.00  0.00     0.031 A 
ENDBRANCH  31  35
ENDBRANCH   5  29
TORSDOF 8
ENDMDL
MODEL 10
REMARK VINA RESULT:      -7.9      4.769      9.812
REMARK  8 active torsions:
REMARK  status: ('A' for Active; 'I' for Inactive)
REMARK    1  A    between atoms: C_2  and  C_3 
REMARK    2  A    between atoms: C_3  and  N_4 
REMARK       I    between atoms: N_4  and  C_5 
REMARK    3  A    between atoms: C_5  and  C_6 
REMARK    4  A    between atoms: C_7  and  N_8 
REMARK    5  A    between atoms: N_11  and  C_12 
REMARK    6  A    between atoms: C_13  and  O_14 
REMARK    7  A    between atoms: C_24  and  N_25 
REMARK       I    between atoms: N_25  and  C_26 
REMARK       I    between atoms: C_26  and  N_27 
REMARK    8  A    between atoms: N_27  and  C_28 
ROOT
HETATM    1  C   UNL     1      -9.731   3.198 -32.376  1.00  0.00     0.060 A 
HETATM    2  C   UNL     1      -9.568   2.021 -33.137  1.00  0.00     0.046 A 
HETATM    3  C   UNL     1     -10.707   1.562 -33.815  1.00  0.00     0.032 A 
HETATM    4  C   UNL     1     -11.942   2.218 -33.730  1.00  0.00     0.032 A 
HETATM    5  C   UNL     1     -12.090   3.367 -32.958  1.00  0.00     0.037 A 
HETATM    6  C   UNL     1     -10.975   3.857 -32.279  1.00  0.00     0.049 A 
ENDROOT
BRANCH   2   7
HETATM    7  N   UNL     1      -8.349   1.336 -33.209  1.00  0.00    -0.377 N 
HETATM    8  C   UNL     1      -7.892   1.008 -34.582  1.00  0.00     0.143 C 
HETATM    9  C   UNL     1      -6.392   0.628 -34.567  1.00  0.00     0.143 C 
HETATM   10  N   UNL     1      -6.106  -0.458 -33.609  1.00  0.00    -0.376 N 
HETATM   11  C   UNL     1      -6.617  -0.179 -32.246  1.00  0.00     0.143 C 
HETATM   12  C   UNL     1      -8.114   0.211 -32.272  1.00  0.00     0.143 C 
BRANCH  10  13
HETATM   13  C   UNL     1      -5.864  -1.774 -33.989  1.00  0.00     0.064 A 
HETATM   14  C   UNL     1      -4.653  -2.481 -33.792  1.00  0.00     0.094 A 
HETATM   15  C   UNL     1      -4.526  -3.823 -34.202  1.00  0.00     0.039 A 
HETATM   16  C   UNL     1      -5.600  -4.502 -34.772  1.00  0.00     0.003 A 
HETATM   17  C   UNL     1      -6.804  -3.842 -34.953  1.00  0.00     0.002 A 
HETATM   18  C   UNL     1      -6.926  -2.502 -34.568  1.00  0.00     0.032 A 
BRANCH  14  19
HETATM   19  O   UNL     1      -3.564  -1.807 -33.287  1.00  0.00    -0.354 OA
HETATM   20  C   UNL     1      -3.166  -2.217 -31.981  1.00  0.00     0.210 C 
ENDBRANCH  14  19
ENDBRANCH  10  13
ENDBRANCH   2   7
BRANCH   1  21
HETATM   21  C   UNL     1      -8.630   3.774 -31.563  1.00  0.00     0.254 C 
HETATM   22  N   UNL     1      -7.746   4.559 -32.284  1.00  0.00    -0.353 N 
HETATM   23  H   UNL     1      -7.798   4.526 -33.294  1.00  0.00     0.163 HD
HETATM   24  O   UNL     1      -8.563   3.594 -30.354  1.00  0.00    -0.268 OA
BRANCH  22  25
HETATM   25  C   UNL     1      -6.577   5.167 -31.660  1.00  0.00     0.080 C 
HETATM   26  C   UNL     1      -6.237   6.481 -32.358  1.00  0.00     0.032 C 
BRANCH  25  27
HETATM   27  C   UNL     1      -5.387   4.193 -31.609  1.00  0.00     0.020 C 
HETATM   28  C   UNL     1      -4.961   3.633 -32.960  1.00  0.00     0.007 C 
ENDBRANCH  25  27
ENDBRANCH  22  25
ENDBRANCH   1  21
BRANCH   5  29
HETATM   29  N   UNL     1     -13.323   4.027 -32.775  1.00  0.00    -0.309 N 
HETATM   30  C   UNL     1     -13.906   4.368 -31.562  1.00  0.00     0.325 C 
HETATM   31  N   UNL     1     -14.934   5.275 -31.755  1.00  0.00    -0.307 N 
HETATM   32  O   UNL     1     -13.544   3.938 -30.474  1.00  0.00    -0.247 OA
HETATM   33  H   UNL     1     -14.968   5.730 -32.657  1.00  0.00     0.170 HD
HETATM   34  H   UNL     1     -13.894   4.163 -33.596  1.00  0.00     0.170 HD
BRANCH  31  35
HETATM   35  C   UNL     1     -15.757   5.865 -30.762  1.00  0.00     0.053 A 
HETATM   36  C   UNL     1     -17.135   5.580 -30.766  1.00  0.00     0.037 A 
HETATM   37 BR   UNL     1     -17.902   4.414 -32.061  1.00  0.00    -0.049 Br
HETATM   38  C   UNL     1     -17.993   6.159 -29.825  1.00  0.00     0.021 A 
HETATM   39  C   UNL     1     -17.484   7.024 -28.860  1.00  0.00     0.002 A 
HETATM   40  C   UNL     1     -16.120   7.300 -28.831  1.00  0.00     0.002 A 
HETATM   41  C   UNL     1     -15.262   6.720 -29.772  1.00  0.00     0.031 A 
ENDBRANCH  31  35
ENDBRANCH   5  29
TORSDOF 8
ENDMDL
