MODEL 1
REMARK VINA RESULT:      -9.1      0.000      0.000
REMARK  7 active torsions:
REMARK  status: ('A' for Active; 'I' for Inactive)
REMARK    1  A    between atoms: O_2  and  C_3 
REMARK    2  A    between atoms: C_5  and  C_6 
REMARK       I    between atoms: C_6  and  N_7 
REMARK    3  A    between atoms: N_7  and  C_8 
REMARK    4  A    between atoms: C_10  and  C_11 
REMARK    5  A    between atoms: C_11  and  C_12 
REMARK    6  A    between atoms: C_12  and  C_13 
REMARK    7  A    between atoms: C_13  and  C_14 
ROOT
HETATM    1  C   UNL     1      -6.322   4.105 -33.339  1.00  0.00     0.725 A 
HETATM    2  N   UNL     1      -6.606   2.837 -33.513  1.00  0.00    -0.046 NA
HETATM    3  C   UNL     1      -7.931   2.860 -33.879  1.00  0.00     0.165 A 
HETATM    4  N   UNL     1      -8.480   4.080 -33.937  1.00  0.00    -0.144 NA
HETATM    5  N   UNL     1      -7.438   4.855 -33.591  1.00  0.00    -0.106 N 
HETATM    6  H   UNL     1      -7.521   5.867 -33.556  1.00  0.00     0.208 HD
ENDROOT
BRANCH   3   7
HETATM    7  C   UNL     1      -8.688   1.639 -34.265  1.00  0.00     0.083 C 
BRANCH   7   8
HETATM    8  C   UNL     1      -8.113   0.346 -33.689  1.00  0.00     0.012 C 
BRANCH   8   9
HETATM    9  C   UNL     1      -7.478  -0.497 -34.795  1.00  0.00     0.041 C 
BRANCH   9  10
HETATM   10  C   UNL     1      -6.199  -1.144 -34.370  1.00  0.00    -0.030 A 
HETATM   11  C   UNL     1      -5.862  -2.532 -34.475  1.00  0.00    -0.002 A 
HETATM   12  C   UNL     1      -4.586  -2.697 -33.937  1.00  0.00     0.042 A 
HETATM   13  C   UNL     1      -6.530  -3.669 -34.975  1.00  0.00     0.014 A 
HETATM   14  C   UNL     1      -3.945  -3.940 -33.869  1.00  0.00     0.030 A 
HETATM   15  N   UNL     1      -4.159  -1.456 -33.527  1.00  0.00    -0.365 N 
HETATM   16  C   UNL     1      -4.630  -5.050 -34.370  1.00  0.00     0.002 A 
HETATM   17  C   UNL     1      -5.904  -4.920 -34.918  1.00  0.00     0.001 A 
HETATM   18  H   UNL     1      -3.264  -1.273 -33.095  1.00  0.00     0.165 HD
HETATM   19  C   UNL     1      -5.118  -0.515 -33.782  1.00  0.00     0.096 A 
ENDBRANCH   9  10
ENDBRANCH   8   9
ENDBRANCH   7   8
ENDBRANCH   3   7
BRANCH   1  20
HETATM   20  N   UNL     1      -5.099   4.608 -32.976  1.00  0.00    -0.152 N 
HETATM   21  C   UNL     1      -4.258   5.185 -33.902  1.00  0.00     0.270 C 
HETATM   22  O   UNL     1      -4.512   5.301 -35.098  1.00  0.00    -0.267 OA
HETATM   23  H   UNL     1      -4.823   4.442 -32.019  1.00  0.00     0.187 HD
BRANCH  21  24
HETATM   24  C   UNL     1      -2.949   5.649 -33.376  1.00  0.00     0.035 A 
HETATM   25  C   UNL     1      -2.373   4.946 -32.313  1.00  0.00     0.053 A 
HETATM   26  C   UNL     1      -1.142   5.344 -31.784  1.00  0.00     0.069 A 
HETATM   27  C   UNL     1      -0.485   6.445 -32.335  1.00  0.00     0.037 A 
HETATM   28  C   UNL     1      -1.051   7.140 -33.409  1.00  0.00     0.004 A 
HETATM   29  C   UNL     1      -2.283   6.745 -33.933  1.00  0.00     0.017 A 
BRANCH  26  30
HETATM   30  O   UNL     1      -0.700   4.583 -30.738  1.00  0.00    -0.356 OA
HETATM   31  C   UNL     1       0.617   4.835 -30.265  1.00  0.00     0.210 C 
ENDBRANCH  26  30
ENDBRANCH  21  24
ENDBRANCH   1  20
TORSDOF 7
ENDMDL
MODEL 2
REMARK VINA RESULT:      -9.0      4.268      7.259
REMARK  7 active torsions:
REMARK  status: ('A' for Active; 'I' for Inactive)
REMARK    1  A    between atoms: O_2  and  C_3 
REMARK    2  A    between atoms: C_5  and  C_6 
REMARK       I    between atoms: C_6  and  N_7 
REMARK    3  A    between atoms: N_7  and  C_8 
REMARK    4  A    between atoms: C_10  and  C_11 
REMARK    5  A    between atoms: C_11  and  C_12 
REMARK    6  A    between atoms: C_12  and  C_13 
REMARK    7  A    between atoms: C_13  and  C_14 
ROOT
HETATM    1  C   UNL     1      -7.645   1.550 -31.872  1.00  0.00     0.725 A 
HETATM    2  N   UNL     1      -6.382   1.871 -32.004  1.00  0.00    -0.046 NA
HETATM    3  C   UNL     1      -5.753   1.050 -31.099  1.00  0.00     0.165 A 
HETATM    4  N   UNL     1      -6.567   0.239 -30.411  1.00  0.00    -0.144 NA
HETATM    5  N   UNL     1      -7.765   0.573 -30.921  1.00  0.00    -0.106 N 
HETATM    6  H   UNL     1      -8.617   0.113 -30.614  1.00  0.00     0.208 HD
ENDROOT
BRANCH   3   7
HETATM    7  C   UNL     1      -4.275   0.995 -30.942  1.00  0.00     0.083 C 
BRANCH   7   8
HETATM    8  C   UNL     1      -3.656  -0.335 -31.368  1.00  0.00     0.012 C 
BRANCH   8   9
HETATM    9  C   UNL     1      -3.446  -0.366 -32.883  1.00  0.00     0.041 C 
BRANCH   9  10
HETATM   10  C   UNL     1      -4.503  -1.142 -33.600  1.00  0.00    -0.030 A 
HETATM   11  C   UNL     1      -4.530  -2.557 -33.819  1.00  0.00    -0.002 A 
HETATM   12  C   UNL     1      -5.681  -2.848 -34.549  1.00  0.00     0.042 A 
HETATM   13  C   UNL     1      -3.674  -3.621 -33.465  1.00  0.00     0.014 A 
HETATM   14  C   UNL     1      -6.020  -4.146 -34.949  1.00  0.00     0.030 A 
HETATM   15  N   UNL     1      -6.335  -1.657 -34.761  1.00  0.00    -0.365 N 
HETATM   16  C   UNL     1      -5.154  -5.182 -34.587  1.00  0.00     0.002 A 
HETATM   17  C   UNL     1      -3.998  -4.927 -33.854  1.00  0.00     0.001 A 
HETATM   18  H   UNL     1      -7.204  -1.563 -35.268  1.00  0.00     0.165 HD
HETATM   19  C   UNL     1      -5.637  -0.625 -34.195  1.00  0.00     0.096 A 
ENDBRANCH   9  10
ENDBRANCH   8   9
ENDBRANCH   7   8
ENDBRANCH   3   7
BRANCH   1  20
HETATM   20  N   UNL     1      -8.687   2.091 -32.582  1.00  0.00    -0.152 N 
HETATM   21  C   UNL     1      -9.495   1.309 -33.377  1.00  0.00     0.270 C 
HETATM   22  O   UNL     1      -9.367   0.097 -33.522  1.00  0.00    -0.267 OA
HETATM   23  H   UNL     1      -8.758   3.098 -32.556  1.00  0.00     0.187 HD
BRANCH  21  24
HETATM   24  C   UNL     1     -10.557   2.034 -34.119  1.00  0.00     0.035 A 
HETATM   25  C   UNL     1     -11.803   1.414 -34.272  1.00  0.00     0.053 A 
HETATM   26  C   UNL     1     -12.834   2.057 -34.961  1.00  0.00     0.069 A 
HETATM   27  C   UNL     1     -12.615   3.330 -35.488  1.00  0.00     0.037 A 
HETATM   28  C   UNL     1     -11.377   3.960 -35.322  1.00  0.00     0.004 A 
HETATM   29  C   UNL     1     -10.345   3.315 -34.638  1.00  0.00     0.017 A 
BRANCH  26  30
HETATM   30  O   UNL     1     -13.992   1.335 -35.054  1.00  0.00    -0.356 OA
HETATM   31  C   UNL     1     -14.511   0.787 -33.849  1.00  0.00     0.210 C 
ENDBRANCH  26  30
ENDBRANCH  21  24
ENDBRANCH   1  20
TORSDOF 7
ENDMDL
MODEL 3
REMARK VINA RESULT:      -9.0      1.518      1.893
REMARK  7 active torsions:
REMARK  status: ('A' for Active; 'I' for Inactive)
REMARK    1  A    between atoms: O_2  and  C_3 
REMARK    2  A    between atoms: C_5  and  C_6 
REMARK       I    between atoms: C_6  and  N_7 
REMARK    3  A    between atoms: N_7  and  C_8 
REMARK    4  A    between atoms: C_10  and  C_11 
REMARK    5  A    between atoms: C_11  and  C_12 
REMARK    6  A    between atoms: C_12  and  C_13 
REMARK    7  A    between atoms: C_13  and  C_14 
ROOT
HETATM    1  C   UNL     1      -5.597   3.077 -31.839  1.00  0.00     0.725 A 
HETATM    2  N   UNL     1      -6.527   2.811 -32.724  1.00  0.00    -0.046 NA
HETATM    3  C   UNL     1      -7.274   1.834 -32.111  1.00  0.00     0.165 A 
HETATM    4  N   UNL     1      -6.850   1.481 -30.890  1.00  0.00    -0.144 NA
HETATM    5  N   UNL     1      -5.784   2.285 -30.739  1.00  0.00    -0.106 N 
HETATM    6  H   UNL     1      -5.233   2.277 -29.885  1.00  0.00     0.208 HD
ENDROOT
BRANCH   3   7
HETATM    7  C   UNL     1      -8.511   1.263 -32.708  1.00  0.00     0.083 C 
BRANCH   7   8
HETATM    8  C   UNL     1      -8.332  -0.145 -33.274  1.00  0.00     0.012 C 
BRANCH   8   9
HETATM    9  C   UNL     1      -7.352  -0.128 -34.448  1.00  0.00     0.041 C 
BRANCH   9  10
HETATM   10  C   UNL     1      -6.112  -0.920 -34.181  1.00  0.00    -0.030 A 
HETATM   11  C   UNL     1      -5.933  -2.327 -34.374  1.00  0.00    -0.002 A 
HETATM   12  C   UNL     1      -4.635  -2.644 -33.975  1.00  0.00     0.042 A 
HETATM   13  C   UNL     1      -6.761  -3.366 -34.848  1.00  0.00     0.014 A 
HETATM   14  C   UNL     1      -4.122  -3.946 -34.021  1.00  0.00     0.030 A 
HETATM   15  N   UNL     1      -4.043  -1.474 -33.563  1.00  0.00    -0.365 N 
HETATM   16  C   UNL     1      -4.965  -4.957 -34.494  1.00  0.00     0.002 A 
HETATM   17  C   UNL     1      -6.265  -4.674 -34.904  1.00  0.00     0.001 A 
HETATM   18  H   UNL     1      -3.097  -1.402 -33.217  1.00  0.00     0.165 HD
HETATM   19  C   UNL     1      -4.920  -0.430 -33.682  1.00  0.00     0.096 A 
ENDBRANCH   9  10
ENDBRANCH   8   9
ENDBRANCH   7   8
ENDBRANCH   3   7
BRANCH   1  20
HETATM   20  N   UNL     1      -4.601   4.009 -31.980  1.00  0.00    -0.152 N 
HETATM   21  C   UNL     1      -3.274   3.667 -31.838  1.00  0.00     0.270 C 
HETATM   22  O   UNL     1      -2.870   2.536 -31.582  1.00  0.00    -0.267 OA
HETATM   23  H   UNL     1      -4.908   4.964 -32.098  1.00  0.00     0.187 HD
BRANCH  21  24
HETATM   24  C   UNL     1      -2.307   4.784 -31.976  1.00  0.00     0.035 A 
HETATM   25  C   UNL     1      -1.307   4.921 -31.006  1.00  0.00     0.053 A 
HETATM   26  C   UNL     1      -0.373   5.957 -31.094  1.00  0.00     0.069 A 
HETATM   27  C   UNL     1      -0.438   6.849 -32.165  1.00  0.00     0.037 A 
HETATM   28  C   UNL     1      -1.426   6.704 -33.145  1.00  0.00     0.004 A 
HETATM   29  C   UNL     1      -2.362   5.673 -33.054  1.00  0.00     0.017 A 
BRANCH  26  30
HETATM   30  O   UNL     1       0.538   5.988 -30.074  1.00  0.00    -0.356 OA
HETATM   31  C   UNL     1       0.110   6.551 -28.841  1.00  0.00     0.210 C 
ENDBRANCH  26  30
ENDBRANCH  21  24
ENDBRANCH   1  20
TORSDOF 7
ENDMDL
MODEL 4
REMARK VINA RESULT:      -8.7      1.295      2.219
REMARK  7 active torsions:
REMARK  status: ('A' for Active; 'I' for Inactive)
REMARK    1  A    between atoms: O_2  and  C_3 
REMARK    2  A    between atoms: C_5  and  C_6 
REMARK       I    between atoms: C_6  and  N_7 
REMARK    3  A    between atoms: N_7  and  C_8 
REMARK    4  A    between atoms: C_10  and  C_11 
REMARK    5  A    between atoms: C_11  and  C_12 
REMARK    6  A    between atoms: C_12  and  C_13 
REMARK    7  A    between atoms: C_13  and  C_14 
ROOT
HETATM    1  C   UNL     1      -6.127   3.256 -33.360  1.00  0.00     0.725 A 
HETATM    2  N   UNL     1      -6.315   2.090 -33.929  1.00  0.00    -0.046 NA
HETATM    3  C   UNL     1      -7.683   2.004 -34.025  1.00  0.00     0.165 A 
HETATM    4  N   UNL     1      -8.351   3.060 -33.541  1.00  0.00    -0.144 NA
HETATM    5  N   UNL     1      -7.341   3.842 -33.125  1.00  0.00    -0.106 N 
HETATM    6  H   UNL     1      -7.515   4.754 -32.712  1.00  0.00     0.208 HD
ENDROOT
BRANCH   3   7
HETATM    7  C   UNL     1      -8.382   0.871 -34.689  1.00  0.00     0.083 C 
BRANCH   7   8
HETATM    8  C   UNL     1      -7.441  -0.204 -35.230  1.00  0.00     0.012 C 
BRANCH   8   9
HETATM    9  C   UNL     1      -7.389  -1.398 -34.276  1.00  0.00     0.041 C 
BRANCH   9  10
HETATM   10  C   UNL     1      -5.993  -1.783 -33.902  1.00  0.00    -0.030 A 
HETATM   11  C   UNL     1      -5.184  -1.192 -32.879  1.00  0.00    -0.002 A 
HETATM   12  C   UNL     1      -3.949  -1.839 -32.893  1.00  0.00     0.042 A 
HETATM   13  C   UNL     1      -5.388  -0.157 -31.942  1.00  0.00     0.014 A 
HETATM   14  C   UNL     1      -2.906  -1.505 -32.021  1.00  0.00     0.030 A 
HETATM   15  N   UNL     1      -4.006  -2.794 -33.881  1.00  0.00    -0.365 N 
HETATM   16  C   UNL     1      -3.134  -0.475 -31.104  1.00  0.00     0.002 A 
HETATM   17  C   UNL     1      -4.357   0.190 -31.061  1.00  0.00     0.001 A 
HETATM   18  H   UNL     1      -3.248  -3.417 -34.119  1.00  0.00     0.165 HD
HETATM   19  C   UNL     1      -5.229  -2.770 -34.495  1.00  0.00     0.096 A 
ENDBRANCH   9  10
ENDBRANCH   8   9
ENDBRANCH   7   8
ENDBRANCH   3   7
BRANCH   1  20
HETATM   20  N   UNL     1      -4.911   3.812 -33.059  1.00  0.00    -0.152 N 
HETATM   21  C   UNL     1      -4.489   4.980 -33.656  1.00  0.00     0.270 C 
HETATM   22  O   UNL     1      -5.138   5.613 -34.485  1.00  0.00    -0.267 OA
HETATM   23  H   UNL     1      -4.316   3.265 -32.453  1.00  0.00     0.187 HD
BRANCH  21  24
HETATM   24  C   UNL     1      -3.135   5.445 -33.266  1.00  0.00     0.035 A 
HETATM   25  C   UNL     1      -2.484   4.791 -32.214  1.00  0.00     0.053 A 
HETATM   26  C   UNL     1      -1.208   5.192 -31.811  1.00  0.00     0.069 A 
HETATM   27  C   UNL     1      -0.580   6.246 -32.476  1.00  0.00     0.037 A 
HETATM   28  C   UNL     1      -1.221   6.891 -33.540  1.00  0.00     0.004 A 
HETATM   29  C   UNL     1      -2.498   6.493 -33.938  1.00  0.00     0.017 A 
BRANCH  26  30
HETATM   30  O   UNL     1      -0.694   4.482 -30.761  1.00  0.00    -0.356 OA
HETATM   31  C   UNL     1       0.483   4.993 -30.148  1.00  0.00     0.210 C 
ENDBRANCH  26  30
ENDBRANCH  21  24
ENDBRANCH   1  20
TORSDOF 7
ENDMDL
MODEL 5
REMARK VINA RESULT:      -8.6      3.230      9.739
REMARK  7 active torsions:
REMARK  status: ('A' for Active; 'I' for Inactive)
REMARK    1  A    between atoms: O_2  and  C_3 
REMARK    2  A    between atoms: C_5  and  C_6 
REMARK       I    between atoms: C_6  and  N_7 
REMARK    3  A    between atoms: N_7  and  C_8 
REMARK    4  A    between atoms: C_10  and  C_11 
REMARK    5  A    between atoms: C_11  and  C_12 
REMARK    6  A    between atoms: C_12  and  C_13 
REMARK    7  A    between atoms: C_13  and  C_14 
ROOT
HETATM    1  C   UNL     1      -3.953   2.073 -32.240  1.00  0.00     0.725 A 
HETATM    2  N   UNL     1      -3.154   2.977 -32.753  1.00  0.00    -0.046 NA
HETATM    3  C   UNL     1      -3.420   4.095 -31.999  1.00  0.00     0.165 A 
HETATM    4  N   UNL     1      -4.346   3.927 -31.046  1.00  0.00    -0.144 NA
HETATM    5  N   UNL     1      -4.670   2.634 -31.218  1.00  0.00    -0.106 N 
HETATM    6  H   UNL     1      -5.354   2.177 -30.622  1.00  0.00     0.208 HD
ENDROOT
BRANCH   3   7
HETATM    7  C   UNL     1      -2.683   5.377 -32.161  1.00  0.00     0.083 C 
BRANCH   7   8
HETATM    8  C   UNL     1      -1.240   5.207 -32.633  1.00  0.00     0.012 C 
BRANCH   8   9
HETATM    9  C   UNL     1      -0.347   6.288 -32.023  1.00  0.00     0.041 C 
BRANCH   9  10
HETATM   10  C   UNL     1       0.033   5.996 -30.607  1.00  0.00    -0.030 A 
HETATM   11  C   UNL     1      -0.198   6.831 -29.466  1.00  0.00    -0.002 A 
HETATM   12  C   UNL     1       0.340   6.182 -28.355  1.00  0.00     0.042 A 
HETATM   13  C   UNL     1      -0.813   8.086 -29.277  1.00  0.00     0.014 A 
HETATM   14  C   UNL     1       0.298   6.724 -27.065  1.00  0.00     0.030 A 
HETATM   15  N   UNL     1       0.871   4.994 -28.800  1.00  0.00    -0.365 N 
HETATM   16  C   UNL     1      -0.315   7.970 -26.906  1.00  0.00     0.002 A 
HETATM   17  C   UNL     1      -0.866   8.643 -27.994  1.00  0.00     0.001 A 
HETATM   18  H   UNL     1       1.330   4.316 -28.209  1.00  0.00     0.165 HD
HETATM   19  C   UNL     1       0.692   4.870 -30.151  1.00  0.00     0.096 A 
ENDBRANCH   9  10
ENDBRANCH   8   9
ENDBRANCH   7   8
ENDBRANCH   3   7
BRANCH   1  20
HETATM   20  N   UNL     1      -4.051   0.768 -32.648  1.00  0.00    -0.152 N 
HETATM   21  C   UNL     1      -3.541  -0.261 -31.887  1.00  0.00     0.270 C 
HETATM   22  O   UNL     1      -2.971  -0.114 -30.809  1.00  0.00    -0.267 OA
HETATM   23  H   UNL     1      -4.431   0.624 -33.573  1.00  0.00     0.187 HD
BRANCH  21  24
HETATM   24  C   UNL     1      -3.682  -1.619 -32.469  1.00  0.00     0.035 A 
HETATM   25  C   UNL     1      -4.487  -1.775 -33.603  1.00  0.00     0.053 A 
HETATM   26  C   UNL     1      -4.650  -3.034 -34.189  1.00  0.00     0.069 A 
HETATM   27  C   UNL     1      -3.991  -4.134 -33.639  1.00  0.00     0.037 A 
HETATM   28  C   UNL     1      -3.172  -3.978 -32.515  1.00  0.00     0.004 A 
HETATM   29  C   UNL     1      -3.014  -2.722 -31.928  1.00  0.00     0.017 A 
BRANCH  26  30
HETATM   30  O   UNL     1      -5.476  -3.052 -35.278  1.00  0.00    -0.356 OA
HETATM   31  C   UNL     1      -6.292  -4.202 -35.453  1.00  0.00     0.210 C 
ENDBRANCH  26  30
ENDBRANCH  21  24
ENDBRANCH   1  20
TORSDOF 7
ENDMDL
MODEL 6
REMARK VINA RESULT:      -8.5      4.187      7.489
REMARK  7 active torsions:
REMARK  status: ('A' for Active; 'I' for Inactive)
REMARK    1  A    between atoms: O_2  and  C_3 
REMARK    2  A    between atoms: C_5  and  C_6 
REMARK       I    between atoms: C_6  and  N_7 
REMARK    3  A    between atoms: N_7  and  C_8 
REMARK    4  A    between atoms: C_10  and  C_11 
REMARK    5  A    between atoms: C_11  and  C_12 
REMARK    6  A    between atoms: C_12  and  C_13 
REMARK    7  A    between atoms: C_13  and  C_14 
ROOT
HETATM    1  C   UNL     1      -7.022   1.614 -32.420  1.00  0.00     0.725 A 
HETATM    2  N   UNL     1      -5.878   1.356 -33.006  1.00  0.00    -0.046 NA
HETATM    3  C   UNL     1      -5.022   1.155 -31.949  1.00  0.00     0.165 A 
HETATM    4  N   UNL     1      -5.582   1.279 -30.738  1.00  0.00    -0.144 NA
HETATM    5  N   UNL     1      -6.853   1.569 -31.063  1.00  0.00    -0.106 N 
HETATM    6  H   UNL     1      -7.563   1.710 -30.349  1.00  0.00     0.208 HD
ENDROOT
BRANCH   3   7
HETATM    7  C   UNL     1      -3.602   0.749 -32.119  1.00  0.00     0.083 C 
BRANCH   7   8
HETATM    8  C   UNL     1      -3.413  -0.488 -32.996  1.00  0.00     0.012 C 
BRANCH   8   9
HETATM    9  C   UNL     1      -3.281  -1.742 -32.131  1.00  0.00     0.041 C 
BRANCH   9  10
HETATM   10  C   UNL     1      -3.671  -2.990 -32.856  1.00  0.00    -0.030 A 
HETATM   11  C   UNL     1      -4.792  -3.161 -33.730  1.00  0.00    -0.002 A 
HETATM   12  C   UNL     1      -4.789  -4.487 -34.163  1.00  0.00     0.042 A 
HETATM   13  C   UNL     1      -5.816  -2.308 -34.192  1.00  0.00     0.014 A 
HETATM   14  C   UNL     1      -5.758  -5.006 -35.030  1.00  0.00     0.030 A 
HETATM   15  N   UNL     1      -3.704  -5.099 -33.580  1.00  0.00    -0.365 N 
HETATM   16  C   UNL     1      -6.762  -4.139 -35.471  1.00  0.00     0.002 A 
HETATM   17  C   UNL     1      -6.793  -2.808 -35.061  1.00  0.00     0.001 A 
HETATM   18  H   UNL     1      -3.452  -6.067 -33.715  1.00  0.00     0.165 HD
HETATM   19  C   UNL     1      -3.024  -4.209 -32.793  1.00  0.00     0.096 A 
ENDBRANCH   9  10
ENDBRANCH   8   9
ENDBRANCH   7   8
ENDBRANCH   3   7
BRANCH   1  20
HETATM   20  N   UNL     1      -8.207   1.873 -33.060  1.00  0.00    -0.152 N 
HETATM   21  C   UNL     1      -9.321   1.091 -32.849  1.00  0.00     0.270 C 
HETATM   22  O   UNL     1      -9.360   0.122 -32.096  1.00  0.00    -0.267 OA
HETATM   23  H   UNL     1      -8.179   2.605 -33.755  1.00  0.00     0.187 HD
BRANCH  21  24
HETATM   24  C   UNL     1     -10.522   1.462 -33.638  1.00  0.00     0.035 A 
HETATM   25  C   UNL     1     -11.685   0.699 -33.477  1.00  0.00     0.053 A 
HETATM   26  C   UNL     1     -12.841   1.010 -34.197  1.00  0.00     0.069 A 
HETATM   27  C   UNL     1     -12.832   2.097 -35.072  1.00  0.00     0.037 A 
HETATM   28  C   UNL     1     -11.676   2.872 -35.222  1.00  0.00     0.004 A 
HETATM   29  C   UNL     1     -10.520   2.558 -34.506  1.00  0.00     0.017 A 
BRANCH  26  30
HETATM   30  O   UNL     1     -13.899   0.176 -33.961  1.00  0.00    -0.356 OA
HETATM   31  C   UNL     1     -15.185   0.633 -34.360  1.00  0.00     0.210 C 
ENDBRANCH  26  30
ENDBRANCH  21  24
ENDBRANCH   1  20
TORSDOF 7
ENDMDL
MODEL 7
REMARK VINA RESULT:      -8.4      2.033      2.788
REMARK  7 active torsions:
REMARK  status: ('A' for Active; 'I' for Inactive)
REMARK    1  A    between atoms: O_2  and  C_3 
REMARK    2  A    between atoms: C_5  and  C_6 
REMARK       I    between atoms: C_6  and  N_7 
REMARK    3  A    between atoms: N_7  and  C_8 
REMARK    4  A    between atoms: C_10  and  C_11 
REMARK    5  A    between atoms: C_11  and  C_12 
REMARK    6  A    between atoms: C_12  and  C_13 
REMARK    7  A    between atoms: C_13  and  C_14 
ROOT
HETATM    1  C   UNL     1      -4.317   5.219 -32.864  1.00  0.00     0.725 A 
HETATM    2  N   UNL     1      -5.341   4.504 -32.469  1.00  0.00    -0.046 NA
HETATM    3  C   UNL     1      -5.877   4.046 -33.650  1.00  0.00     0.165 A 
HETATM    4  N   UNL     1      -5.235   4.446 -34.755  1.00  0.00    -0.144 NA
HETATM    5  N   UNL     1      -4.246   5.189 -34.230  1.00  0.00    -0.106 N 
HETATM    6  H   UNL     1      -3.549   5.635 -34.821  1.00  0.00     0.208 HD
ENDROOT
BRANCH   3   7
HETATM    7  C   UNL     1      -7.031   3.109 -33.708  1.00  0.00     0.083 C 
BRANCH   7   8
HETATM    8  C   UNL     1      -6.711   1.773 -34.377  1.00  0.00     0.012 C 
BRANCH   8   9
HETATM    9  C   UNL     1      -6.873   0.624 -33.381  1.00  0.00     0.041 C 
BRANCH   9  10
HETATM   10  C   UNL     1      -5.774  -0.385 -33.474  1.00  0.00    -0.030 A 
HETATM   11  C   UNL     1      -5.877  -1.724 -33.972  1.00  0.00    -0.002 A 
HETATM   12  C   UNL     1      -4.619  -2.315 -33.852  1.00  0.00     0.042 A 
HETATM   13  C   UNL     1      -6.930  -2.492 -34.511  1.00  0.00     0.014 A 
HETATM   14  C   UNL     1      -4.360  -3.635 -34.238  1.00  0.00     0.030 A 
HETATM   15  N   UNL     1      -3.780  -1.370 -33.309  1.00  0.00    -0.365 N 
HETATM   16  C   UNL     1      -5.422  -4.375 -34.768  1.00  0.00     0.002 A 
HETATM   17  C   UNL     1      -6.689  -3.814 -34.905  1.00  0.00     0.001 A 
HETATM   18  H   UNL     1      -2.803  -1.521 -33.108  1.00  0.00     0.165 HD
HETATM   19  C   UNL     1      -4.462  -0.206 -33.079  1.00  0.00     0.096 A 
ENDBRANCH   9  10
ENDBRANCH   8   9
ENDBRANCH   7   8
ENDBRANCH   3   7
BRANCH   1  20
HETATM   20  N   UNL     1      -3.441   5.883 -32.043  1.00  0.00    -0.152 N 
HETATM   21  C   UNL     1      -2.200   5.363 -31.748  1.00  0.00     0.270 C 
HETATM   22  O   UNL     1      -1.773   4.294 -32.176  1.00  0.00    -0.267 OA
HETATM   23  H   UNL     1      -3.801   6.717 -31.602  1.00  0.00     0.187 HD
BRANCH  21  24
HETATM   24  C   UNL     1      -1.374   6.168 -30.815  1.00  0.00     0.035 A 
HETATM   25  C   UNL     1      -2.001   6.756 -29.710  1.00  0.00     0.053 A 
HETATM   26  C   UNL     1      -1.265   7.522 -28.802  1.00  0.00     0.069 A 
HETATM   27  C   UNL     1       0.106   7.689 -29.001  1.00  0.00     0.037 A 
HETATM   28  C   UNL     1       0.739   7.089 -30.095  1.00  0.00     0.004 A 
HETATM   29  C   UNL     1       0.002   6.328 -31.004  1.00  0.00     0.017 A 
BRANCH  26  30
HETATM   30  O   UNL     1      -2.001   8.053 -27.779  1.00  0.00    -0.356 OA
HETATM   31  C   UNL     1      -3.105   7.289 -27.311  1.00  0.00     0.210 C 
ENDBRANCH  26  30
ENDBRANCH  21  24
ENDBRANCH   1  20
TORSDOF 7
ENDMDL
MODEL 8
REMARK VINA RESULT:      -8.3      3.275      9.930
REMARK  7 active torsions:
REMARK  status: ('A' for Active; 'I' for Inactive)
REMARK    1  A    between atoms: O_2  and  C_3 
REMARK    2  A    between atoms: C_5  and  C_6 
REMARK       I    between atoms: C_6  and  N_7 
REMARK    3  A    between atoms: N_7  and  C_8 
REMARK    4  A    between atoms: C_10  and  C_11 
REMARK    5  A    between atoms: C_11  and  C_12 
REMARK    6  A    between atoms: C_12  and  C_13 
REMARK    7  A    between atoms: C_13  and  C_14 
ROOT
HETATM    1  C   UNL     1      -3.397   3.341 -32.398  1.00  0.00     0.725 A 
HETATM    2  N   UNL     1      -2.971   4.318 -33.161  1.00  0.00    -0.046 NA
HETATM    3  C   UNL     1      -1.911   4.830 -32.452  1.00  0.00     0.165 A 
HETATM    4  N   UNL     1      -1.663   4.219 -31.286  1.00  0.00    -0.144 NA
HETATM    5  N   UNL     1      -2.619   3.275 -31.274  1.00  0.00    -0.106 N 
HETATM    6  H   UNL     1      -2.697   2.610 -30.510  1.00  0.00     0.208 HD
ENDROOT
BRANCH   3   7
HETATM    7  C   UNL     1      -1.044   5.925 -32.965  1.00  0.00     0.083 C 
BRANCH   7   8
HETATM    8  C   UNL     1      -0.286   6.677 -31.873  1.00  0.00     0.012 C 
BRANCH   8   9
HETATM    9  C   UNL     1      -1.181   7.741 -31.236  1.00  0.00     0.041 C 
BRANCH   9  10
HETATM   10  C   UNL     1      -1.444   7.488 -29.786  1.00  0.00    -0.030 A 
HETATM   11  C   UNL     1      -0.510   7.619 -28.709  1.00  0.00    -0.002 A 
HETATM   12  C   UNL     1      -1.170   7.260 -27.534  1.00  0.00     0.042 A 
HETATM   13  C   UNL     1       0.843   8.008 -28.625  1.00  0.00     0.014 A 
HETATM   14  C   UNL     1      -0.547   7.264 -26.281  1.00  0.00     0.030 A 
HETATM   15  N   UNL     1      -2.459   6.929 -27.882  1.00  0.00    -0.365 N 
HETATM   16  C   UNL     1       0.795   7.652 -26.226  1.00  0.00     0.002 A 
HETATM   17  C   UNL     1       1.483   8.021 -27.379  1.00  0.00     0.001 A 
HETATM   18  H   UNL     1      -3.168   6.627 -27.229  1.00  0.00     0.165 HD
HETATM   19  C   UNL     1      -2.636   7.063 -29.232  1.00  0.00     0.096 A 
ENDBRANCH   9  10
ENDBRANCH   8   9
ENDBRANCH   7   8
ENDBRANCH   3   7
BRANCH   1  20
HETATM   20  N   UNL     1      -4.446   2.504 -32.681  1.00  0.00    -0.152 N 
HETATM   21  C   UNL     1      -4.279   1.137 -32.729  1.00  0.00     0.270 C 
HETATM   22  O   UNL     1      -3.215   0.557 -32.530  1.00  0.00    -0.267 OA
HETATM   23  H   UNL     1      -5.310   2.957 -32.942  1.00  0.00     0.187 HD
BRANCH  21  24
HETATM   24  C   UNL     1      -5.491   0.357 -33.088  1.00  0.00     0.035 A 
HETATM   25  C   UNL     1      -6.740   0.856 -32.702  1.00  0.00     0.053 A 
HETATM   26  C   UNL     1      -7.909   0.158 -33.017  1.00  0.00     0.069 A 
HETATM   27  C   UNL     1      -7.821  -1.038 -33.731  1.00  0.00     0.037 A 
HETATM   28  C   UNL     1      -6.575  -1.530 -34.132  1.00  0.00     0.004 A 
HETATM   29  C   UNL     1      -5.407  -0.835 -33.813  1.00  0.00     0.017 A 
BRANCH  26  30
HETATM   30  O   UNL     1      -9.060   0.745 -32.567  1.00  0.00    -0.356 OA
HETATM   31  C   UNL     1     -10.287   0.123 -32.927  1.00  0.00     0.210 C 
ENDBRANCH  26  30
ENDBRANCH  21  24
ENDBRANCH   1  20
TORSDOF 7
ENDMDL
MODEL 9
REMARK VINA RESULT:      -8.1      2.359      3.118
REMARK  7 active torsions:
REMARK  status: ('A' for Active; 'I' for Inactive)
REMARK    1  A    between atoms: O_2  and  C_3 
REMARK    2  A    between atoms: C_5  and  C_6 
REMARK       I    between atoms: C_6  and  N_7 
REMARK    3  A    between atoms: N_7  and  C_8 
REMARK    4  A    between atoms: C_10  and  C_11 
REMARK    5  A    between atoms: C_11  and  C_12 
REMARK    6  A    between atoms: C_12  and  C_13 
REMARK    7  A    between atoms: C_13  and  C_14 
ROOT
HETATM    1  C   UNL     1      -4.187   2.580 -31.602  1.00  0.00     0.725 A 
HETATM    2  N   UNL     1      -4.817   2.525 -32.750  1.00  0.00    -0.046 NA
HETATM    3  C   UNL     1      -5.799   1.590 -32.523  1.00  0.00     0.165 A 
HETATM    4  N   UNL     1      -5.805   1.063 -31.292  1.00  0.00    -0.144 NA
HETATM    5  N   UNL     1      -4.772   1.709 -30.724  1.00  0.00    -0.106 N 
HETATM    6  H   UNL     1      -4.515   1.545 -29.755  1.00  0.00     0.208 HD
ENDROOT
BRANCH   3   7
HETATM    7  C   UNL     1      -6.836   1.241 -33.532  1.00  0.00     0.083 C 
BRANCH   7   8
HETATM    8  C   UNL     1      -7.109  -0.258 -33.645  1.00  0.00     0.012 C 
BRANCH   8   9
HETATM    9  C   UNL     1      -6.393  -0.842 -34.864  1.00  0.00     0.041 C 
BRANCH   9  10
HETATM   10  C   UNL     1      -5.774  -2.175 -34.590  1.00  0.00    -0.030 A 
HETATM   11  C   UNL     1      -4.741  -2.464 -33.641  1.00  0.00    -0.002 A 
HETATM   12  C   UNL     1      -4.451  -3.825 -33.738  1.00  0.00     0.042 A 
HETATM   13  C   UNL     1      -4.020  -1.689 -32.709  1.00  0.00     0.014 A 
HETATM   14  C   UNL     1      -3.474  -4.450 -32.953  1.00  0.00     0.030 A 
HETATM   15  N   UNL     1      -5.280  -4.346 -34.702  1.00  0.00    -0.365 N 
HETATM   16  C   UNL     1      -2.773  -3.659 -32.039  1.00  0.00     0.002 A 
HETATM   17  C   UNL     1      -3.041  -2.298 -31.915  1.00  0.00     0.001 A 
HETATM   18  H   UNL     1      -5.289  -5.315 -34.986  1.00  0.00     0.165 HD
HETATM   19  C   UNL     1      -6.080  -3.365 -35.222  1.00  0.00     0.096 A 
ENDBRANCH   9  10
ENDBRANCH   8   9
ENDBRANCH   7   8
ENDBRANCH   3   7
BRANCH   1  20
HETATM   20  N   UNL     1      -3.119   3.391 -31.314  1.00  0.00    -0.152 N 
HETATM   21  C   UNL     1      -3.247   4.762 -31.287  1.00  0.00     0.270 C 
HETATM   22  O   UNL     1      -4.291   5.369 -31.510  1.00  0.00    -0.267 OA
HETATM   23  H   UNL     1      -2.228   2.925 -31.220  1.00  0.00     0.187 HD
BRANCH  21  24
HETATM   24  C   UNL     1      -2.000   5.516 -31.003  1.00  0.00     0.035 A 
HETATM   25  C   UNL     1      -2.100   6.728 -30.309  1.00  0.00     0.053 A 
HETATM   26  C   UNL     1      -0.955   7.473 -30.016  1.00  0.00     0.069 A 
HETATM   27  C   UNL     1       0.294   6.993 -30.413  1.00  0.00     0.037 A 
HETATM   28  C   UNL     1       0.399   5.774 -31.092  1.00  0.00     0.004 A 
HETATM   29  C   UNL     1      -0.746   5.033 -31.388  1.00  0.00     0.017 A 
BRANCH  26  30
HETATM   30  O   UNL     1      -1.193   8.643 -29.350  1.00  0.00    -0.356 OA
HETATM   31  C   UNL     1      -0.522   8.831 -28.111  1.00  0.00     0.210 C 
ENDBRANCH  26  30
ENDBRANCH  21  24
ENDBRANCH   1  20
TORSDOF 7
ENDMDL
MODEL 10
REMARK VINA RESULT:      -8.1     15.878     18.743
REMARK  7 active torsions:
REMARK  status: ('A' for Active; 'I' for Inactive)
REMARK    1  A    between atoms: O_2  and  C_3 
REMARK    2  A    between atoms: C_5  and  C_6 
REMARK       I    between atoms: C_6  and  N_7 
REMARK    3  A    between atoms: N_7  and  C_8 
REMARK    4  A    between atoms: C_10  and  C_11 
REMARK    5  A    between atoms: C_11  and  C_12 
REMARK    6  A    between atoms: C_12  and  C_13 
REMARK    7  A    between atoms: C_13  and  C_14 
ROOT
HETATM    1  C   UNL     1      -5.211 -12.526 -38.481  1.00  0.00     0.725 A 
HETATM    2  N   UNL     1      -4.069 -12.489 -39.123  1.00  0.00    -0.046 NA
HETATM    3  C   UNL     1      -3.141 -12.439 -38.110  1.00  0.00     0.165 A 
HETATM    4  N   UNL     1      -3.654 -12.441 -36.873  1.00  0.00    -0.144 NA
HETATM    5  N   UNL     1      -4.971 -12.498 -37.134  1.00  0.00    -0.106 N 
HETATM    6  H   UNL     1      -5.657 -12.532 -36.385  1.00  0.00     0.208 HD
ENDROOT
BRANCH   3   7
HETATM    7  C   UNL     1      -1.673 -12.466 -38.352  1.00  0.00     0.083 C 
BRANCH   7   8
HETATM    8  C   UNL     1      -1.144 -13.827 -38.799  1.00  0.00     0.012 C 
BRANCH   8   9
HETATM    9  C   UNL     1      -0.827 -13.812 -40.295  1.00  0.00     0.041 C 
BRANCH   9  10
HETATM   10  C   UNL     1      -1.369 -15.005 -41.016  1.00  0.00    -0.030 A 
HETATM   11  C   UNL     1      -2.538 -15.052 -41.841  1.00  0.00    -0.002 A 
HETATM   12  C   UNL     1      -2.684 -16.364 -42.289  1.00  0.00     0.042 A 
HETATM   13  C   UNL     1      -3.493 -14.096 -42.246  1.00  0.00     0.014 A 
HETATM   14  C   UNL     1      -3.736 -16.772 -43.117  1.00  0.00     0.030 A 
HETATM   15  N   UNL     1      -1.639 -17.088 -41.763  1.00  0.00    -0.365 N 
HETATM   16  C   UNL     1      -4.670 -15.805 -43.501  1.00  0.00     0.002 A 
HETATM   17  C   UNL     1      -4.551 -14.484 -43.075  1.00  0.00     0.001 A 
HETATM   18  H   UNL     1      -1.490 -18.074 -41.920  1.00  0.00     0.165 HD
HETATM   19  C   UNL     1      -0.842 -16.282 -40.997  1.00  0.00     0.096 A 
ENDBRANCH   9  10
ENDBRANCH   8   9
ENDBRANCH   7   8
ENDBRANCH   3   7
BRANCH   1  20
HETATM   20  N   UNL     1      -6.452 -12.596 -39.059  1.00  0.00    -0.152 N 
HETATM   21  C   UNL     1      -7.488 -13.273 -38.454  1.00  0.00     0.270 C 
HETATM   22  O   UNL     1      -7.403 -13.857 -37.376  1.00  0.00    -0.267 OA
HETATM   23  H   UNL     1      -6.526 -12.207 -39.988  1.00  0.00     0.187 HD
BRANCH  21  24
HETATM   24  C   UNL     1      -8.764 -13.302 -39.212  1.00  0.00     0.035 A 
HETATM   25  C   UNL     1      -9.326 -14.547 -39.517  1.00  0.00     0.053 A 
HETATM   26  C   UNL     1     -10.526 -14.627 -40.229  1.00  0.00     0.069 A 
HETATM   27  C   UNL     1     -11.167 -13.452 -40.623  1.00  0.00     0.037 A 
HETATM   28  C   UNL     1     -10.615 -12.205 -40.305  1.00  0.00     0.004 A 
HETATM   29  C   UNL     1      -9.414 -12.127 -39.599  1.00  0.00     0.017 A 
BRANCH  26  30
HETATM   30  O   UNL     1     -10.958 -15.901 -40.476  1.00  0.00    -0.356 OA
HETATM   31  C   UNL     1     -10.257 -16.640 -41.468  1.00  0.00     0.210 C 
ENDBRANCH  26  30
ENDBRANCH  21  24
ENDBRANCH   1  20
TORSDOF 7
ENDMDL
