MODEL 1
REMARK VINA RESULT:     -10.5      0.000      0.000
REMARK  3 active torsions:
REMARK  status: ('A' for Active; 'I' for Inactive)
REMARK    1  A    between atoms: N_9  and  C_10 
REMARK    2  A    between atoms: C_10  and  C_11 
REMARK    3  A    between atoms: C_11  and  C_12 
REMARK       I    between atoms: C_12  and  N_13 
ROOT
HETATM    1  C   UNL     1      -7.098   2.986 -31.525  1.00  0.00     0.221 C 
HETATM    2  N   UNL     1      -5.933   3.605 -31.989  1.00  0.00    -0.352 N 
HETATM    3  C   UNL     1      -5.083   3.034 -33.035  1.00  0.00     0.129 C 
HETATM    4  C   UNL     1      -4.336   4.106 -33.817  1.00  0.00     0.068 C 
HETATM    5  C   UNL     1      -3.580   5.086 -32.906  1.00  0.00     0.094 C 
HETATM    6  N   UNL     1      -3.040   6.149 -33.728  1.00  0.00    -0.334 N 
HETATM    7  C   UNL     1      -2.042   6.984 -33.303  1.00  0.00     0.255 C 
HETATM    8  O   UNL     1      -1.868   8.082 -33.817  1.00  0.00    -0.268 OA
HETATM    9  C   UNL     1      -1.182   6.473 -32.220  1.00  0.00     0.053 A 
HETATM   10  C   UNL     1      -1.434   5.183 -31.743  1.00  0.00     0.026 A 
HETATM   11  N   UNL     1      -2.451   4.388 -32.291  1.00  0.00    -0.265 NA
HETATM   12  C   UNL     1      -0.132   7.249 -31.718  1.00  0.00     0.019 A 
HETATM   13  C   UNL     1       0.705   6.716 -30.740  1.00  0.00     0.001 A 
HETATM   14  C   UNL     1       0.498   5.413 -30.286  1.00  0.00     0.002 A 
HETATM   15  C   UNL     1      -0.555   4.647 -30.797  1.00  0.00     0.024 A 
HETATM   16  C   UNL     1      -4.543   5.658 -31.853  1.00  0.00     0.068 C 
HETATM   17  C   UNL     1      -5.295   4.571 -31.099  1.00  0.00     0.129 C 
HETATM   18  O   UNL     1      -7.667   3.352 -30.498  1.00  0.00    -0.273 OA
HETATM   19  H   UNL     1      -3.642   6.582 -34.415  1.00  0.00     0.164 HD
HETATM   20  H   UNL     1      -2.713   3.627 -31.670  1.00  0.00     0.130 HD
ENDROOT
BRANCH   1  21
HETATM   21  C   UNL     1      -7.642   1.835 -32.348  1.00  0.00     0.123 C 
BRANCH  21  22
HETATM   22  C   UNL     1      -7.514   0.513 -31.599  1.00  0.00     0.138 C 
BRANCH  22  23
HETATM   23  N   UNL     1      -6.302  -0.200 -31.986  1.00  0.00    -0.349 N 
HETATM   24  C   UNL     1      -6.228  -1.066 -33.062  1.00  0.00     0.045 A 
HETATM   25  C   UNL     1      -4.923  -1.561 -33.097  1.00  0.00    -0.001 A 
HETATM   26  C   UNL     1      -7.195  -1.457 -34.004  1.00  0.00     0.030 A 
HETATM   27  C   UNL     1      -4.206  -0.967 -32.011  1.00  0.00    -0.027 A 
HETATM   28  C   UNL     1      -4.575  -2.479 -34.112  1.00  0.00     0.014 A 
HETATM   29  C   UNL     1      -2.776  -1.198 -31.664  1.00  0.00     0.051 C 
HETATM   30  C   UNL     1      -5.086  -0.132 -31.338  1.00  0.00     0.015 A 
HETATM   31  C   UNL     1      -4.843   0.726 -30.144  1.00  0.00     0.069 C 
HETATM   32  C   UNL     1      -5.530  -2.870 -35.056  1.00  0.00     0.001 A 
HETATM   33  C   UNL     1      -6.823  -2.365 -35.000  1.00  0.00     0.002 A 
ENDBRANCH  22  23
ENDBRANCH  21  22
ENDBRANCH   1  21
TORSDOF 3
ENDMDL
MODEL 2
REMARK VINA RESULT:     -10.1      0.771      2.236
REMARK  3 active torsions:
REMARK  status: ('A' for Active; 'I' for Inactive)
REMARK    1  A    between atoms: N_9  and  C_10 
REMARK    2  A    between atoms: C_10  and  C_11 
REMARK    3  A    between atoms: C_11  and  C_12 
REMARK       I    between atoms: C_12  and  N_13 
ROOT
HETATM    1  C   UNL     1      -7.313   3.679 -31.133  1.00  0.00     0.221 C 
HETATM    2  N   UNL     1      -6.114   4.150 -31.678  1.00  0.00    -0.352 N 
HETATM    3  C   UNL     1      -5.367   3.435 -32.713  1.00  0.00     0.129 C 
HETATM    4  C   UNL     1      -4.554   4.378 -33.590  1.00  0.00     0.068 C 
HETATM    5  C   UNL     1      -3.671   5.333 -32.773  1.00  0.00     0.094 C 
HETATM    6  N   UNL     1      -3.065   6.285 -33.681  1.00  0.00    -0.334 N 
HETATM    7  C   UNL     1      -1.975   7.043 -33.348  1.00  0.00     0.255 C 
HETATM    8  O   UNL     1      -1.718   8.084 -33.939  1.00  0.00    -0.268 OA
HETATM    9  C   UNL     1      -1.125   6.518 -32.264  1.00  0.00     0.053 A 
HETATM   10  C   UNL     1      -1.478   5.291 -31.695  1.00  0.00     0.026 A 
HETATM   11  N   UNL     1      -2.589   4.567 -32.152  1.00  0.00    -0.265 NA
HETATM   12  C   UNL     1       0.015   7.216 -31.852  1.00  0.00     0.019 A 
HETATM   13  C   UNL     1       0.837   6.666 -30.870  1.00  0.00     0.001 A 
HETATM   14  C   UNL     1       0.526   5.421 -30.325  1.00  0.00     0.002 A 
HETATM   15  C   UNL     1      -0.616   4.731 -30.747  1.00  0.00     0.024 A 
HETATM   16  C   UNL     1      -4.529   6.061 -31.726  1.00  0.00     0.068 C 
HETATM   17  C   UNL     1      -5.350   5.103 -30.876  1.00  0.00     0.129 C 
HETATM   18  O   UNL     1      -7.801   4.162 -30.113  1.00  0.00    -0.273 OA
HETATM   19  H   UNL     1      -3.651   6.731 -34.373  1.00  0.00     0.164 HD
HETATM   20  H   UNL     1      -2.896   3.876 -31.474  1.00  0.00     0.130 HD
ENDROOT
BRANCH   1  21
HETATM   21  C   UNL     1      -7.998   2.538 -31.858  1.00  0.00     0.123 C 
BRANCH  21  22
HETATM   22  C   UNL     1      -7.779   1.214 -31.136  1.00  0.00     0.138 C 
BRANCH  22  23
HETATM   23  N   UNL     1      -7.074   0.259 -31.982  1.00  0.00    -0.349 N 
HETATM   24  C   UNL     1      -5.737  -0.063 -31.834  1.00  0.00     0.045 A 
HETATM   25  C   UNL     1      -5.427  -0.988 -32.833  1.00  0.00    -0.001 A 
HETATM   26  C   UNL     1      -4.776   0.381 -30.909  1.00  0.00     0.030 A 
HETATM   27  C   UNL     1      -6.617  -1.221 -33.591  1.00  0.00    -0.027 A 
HETATM   28  C   UNL     1      -4.108  -1.486 -32.906  1.00  0.00     0.014 A 
HETATM   29  C   UNL     1      -6.758  -2.141 -34.753  1.00  0.00     0.051 C 
HETATM   30  C   UNL     1      -7.620  -0.432 -33.045  1.00  0.00     0.015 A 
HETATM   31  C   UNL     1      -9.047  -0.308 -33.454  1.00  0.00     0.069 C 
HETATM   32  C   UNL     1      -3.146  -1.052 -31.987  1.00  0.00     0.001 A 
HETATM   33  C   UNL     1      -3.478  -0.130 -31.002  1.00  0.00     0.002 A 
ENDBRANCH  22  23
ENDBRANCH  21  22
ENDBRANCH   1  21
TORSDOF 3
ENDMDL
MODEL 3
REMARK VINA RESULT:      -9.8      1.923      8.659
REMARK  3 active torsions:
REMARK  status: ('A' for Active; 'I' for Inactive)
REMARK    1  A    between atoms: N_9  and  C_10 
REMARK    2  A    between atoms: C_10  and  C_11 
REMARK    3  A    between atoms: C_11  and  C_12 
REMARK       I    between atoms: C_12  and  N_13 
ROOT
HETATM    1  C   UNL     1      -4.467   5.692 -32.874  1.00  0.00     0.221 C 
HETATM    2  N   UNL     1      -5.084   4.454 -32.671  1.00  0.00    -0.352 N 
HETATM    3  C   UNL     1      -5.075   3.754 -31.385  1.00  0.00     0.129 C 
HETATM    4  C   UNL     1      -6.295   2.859 -31.210  1.00  0.00     0.068 C 
HETATM    5  C   UNL     1      -6.511   1.912 -32.401  1.00  0.00     0.094 C 
HETATM    6  N   UNL     1      -7.771   1.223 -32.214  1.00  0.00    -0.334 N 
HETATM    7  C   UNL     1      -8.102   0.079 -32.890  1.00  0.00     0.255 C 
HETATM    8  O   UNL     1      -9.269  -0.266 -33.024  1.00  0.00    -0.268 OA
HETATM    9  C   UNL     1      -6.977  -0.715 -33.415  1.00  0.00     0.053 A 
HETATM   10  C   UNL     1      -5.680  -0.258 -33.157  1.00  0.00     0.026 A 
HETATM   11  N   UNL     1      -5.452   0.902 -32.402  1.00  0.00    -0.265 NA
HETATM   12  C   UNL     1      -7.209  -1.902 -34.118  1.00  0.00     0.019 A 
HETATM   13  C   UNL     1      -6.127  -2.666 -34.548  1.00  0.00     0.001 A 
HETATM   14  C   UNL     1      -4.828  -2.251 -34.257  1.00  0.00     0.002 A 
HETATM   15  C   UNL     1      -4.607  -1.062 -33.553  1.00  0.00     0.024 A 
HETATM   16  C   UNL     1      -6.531   2.722 -33.707  1.00  0.00     0.068 C 
HETATM   17  C   UNL     1      -5.315   3.625 -33.852  1.00  0.00     0.129 C 
HETATM   18  O   UNL     1      -4.280   6.152 -34.000  1.00  0.00    -0.273 OA
HETATM   19  H   UNL     1      -8.582   1.764 -31.945  1.00  0.00     0.164 HD
HETATM   20  H   UNL     1      -4.517   1.270 -32.547  1.00  0.00     0.130 HD
ENDROOT
BRANCH   1  21
HETATM   21  C   UNL     1      -4.034   6.457 -31.640  1.00  0.00     0.123 C 
BRANCH  21  22
HETATM   22  C   UNL     1      -2.880   7.403 -31.952  1.00  0.00     0.138 C 
BRANCH  22  23
HETATM   23  N   UNL     1      -1.660   6.995 -31.265  1.00  0.00    -0.349 N 
HETATM   24  C   UNL     1      -1.166   7.621 -30.135  1.00  0.00     0.045 A 
HETATM   25  C   UNL     1       0.015   6.962 -29.787  1.00  0.00    -0.001 A 
HETATM   26  C   UNL     1      -1.655   8.710 -29.393  1.00  0.00     0.030 A 
HETATM   27  C   UNL     1       0.221   5.914 -30.738  1.00  0.00    -0.027 A 
HETATM   28  C   UNL     1       0.729   7.410 -28.654  1.00  0.00     0.014 A 
HETATM   29  C   UNL     1       1.354   4.947 -30.755  1.00  0.00     0.051 C 
HETATM   30  C   UNL     1      -0.829   5.961 -31.644  1.00  0.00     0.015 A 
HETATM   31  C   UNL     1      -1.096   5.086 -32.821  1.00  0.00     0.069 C 
HETATM   32  C   UNL     1       0.248   8.490 -27.908  1.00  0.00     0.001 A 
HETATM   33  C   UNL     1      -0.929   9.131 -28.274  1.00  0.00     0.002 A 
ENDBRANCH  22  23
ENDBRANCH  21  22
ENDBRANCH   1  21
TORSDOF 3
ENDMDL
MODEL 4
REMARK VINA RESULT:      -9.8      4.110      7.615
REMARK  3 active torsions:
REMARK  status: ('A' for Active; 'I' for Inactive)
REMARK    1  A    between atoms: N_9  and  C_10 
REMARK    2  A    between atoms: C_10  and  C_11 
REMARK    3  A    between atoms: C_11  and  C_12 
REMARK       I    between atoms: C_12  and  N_13 
ROOT
HETATM    1  C   UNL     1      -6.535   1.074 -31.105  1.00  0.00     0.221 C 
HETATM    2  N   UNL     1      -7.634   1.504 -31.854  1.00  0.00    -0.352 N 
HETATM    3  C   UNL     1      -7.685   2.801 -32.530  1.00  0.00     0.129 C 
HETATM    4  C   UNL     1      -8.583   2.773 -33.760  1.00  0.00     0.068 C 
HETATM    5  C   UNL     1      -9.978   2.202 -33.462  1.00  0.00     0.094 C 
HETATM    6  N   UNL     1     -10.695   2.070 -34.714  1.00  0.00    -0.334 N 
HETATM    7  C   UNL     1     -12.054   1.924 -34.782  1.00  0.00     0.255 C 
HETATM    8  O   UNL     1     -12.594   1.435 -35.767  1.00  0.00    -0.268 OA
HETATM    9  C   UNL     1     -12.820   2.414 -33.622  1.00  0.00     0.053 A 
HETATM   10  C   UNL     1     -12.108   3.007 -32.574  1.00  0.00     0.026 A 
HETATM   11  N   UNL     1     -10.715   3.156 -32.632  1.00  0.00    -0.265 NA
HETATM   12  C   UNL     1     -14.215   2.314 -33.595  1.00  0.00     0.019 A 
HETATM   13  C   UNL     1     -14.919   2.843 -32.515  1.00  0.00     0.001 A 
HETATM   14  C   UNL     1     -14.229   3.480 -31.485  1.00  0.00     0.002 A 
HETATM   15  C   UNL     1     -12.833   3.575 -31.522  1.00  0.00     0.024 A 
HETATM   16  C   UNL     1      -9.840   0.834 -32.776  1.00  0.00     0.068 C 
HETATM   17  C   UNL     1      -8.922   0.879 -31.563  1.00  0.00     0.129 C 
HETATM   18  O   UNL     1      -6.596   0.098 -30.357  1.00  0.00    -0.273 OA
HETATM   19  H   UNL     1     -10.219   1.648 -35.500  1.00  0.00     0.164 HD
HETATM   20  H   UNL     1     -10.312   3.314 -31.713  1.00  0.00     0.130 HD
ENDROOT
BRANCH   1  21
HETATM   21  C   UNL     1      -5.249   1.861 -31.251  1.00  0.00     0.123 C 
BRANCH  21  22
HETATM   22  C   UNL     1      -4.523   1.498 -32.542  1.00  0.00     0.138 C 
BRANCH  22  23
HETATM   23  N   UNL     1      -4.380   0.054 -32.681  1.00  0.00    -0.349 N 
HETATM   24  C   UNL     1      -5.168  -0.723 -33.510  1.00  0.00     0.045 A 
HETATM   25  C   UNL     1      -4.745  -2.044 -33.355  1.00  0.00    -0.001 A 
HETATM   26  C   UNL     1      -6.217  -0.377 -34.380  1.00  0.00     0.030 A 
HETATM   27  C   UNL     1      -3.673  -2.046 -32.408  1.00  0.00    -0.027 A 
HETATM   28  C   UNL     1      -5.394  -3.053 -34.100  1.00  0.00     0.014 A 
HETATM   29  C   UNL     1      -2.910  -3.237 -31.941  1.00  0.00     0.051 C 
HETATM   30  C   UNL     1      -3.472  -0.734 -32.004  1.00  0.00     0.015 A 
HETATM   31  C   UNL     1      -2.473  -0.189 -31.041  1.00  0.00     0.069 C 
HETATM   32  C   UNL     1      -6.436  -2.717 -34.971  1.00  0.00     0.001 A 
HETATM   33  C   UNL     1      -6.840  -1.395 -35.108  1.00  0.00     0.002 A 
ENDBRANCH  22  23
ENDBRANCH  21  22
ENDBRANCH   1  21
TORSDOF 3
ENDMDL
MODEL 5
REMARK VINA RESULT:      -9.7      2.398      8.242
REMARK  3 active torsions:
REMARK  status: ('A' for Active; 'I' for Inactive)
REMARK    1  A    between atoms: N_9  and  C_10 
REMARK    2  A    between atoms: C_10  and  C_11 
REMARK    3  A    between atoms: C_11  and  C_12 
REMARK       I    between atoms: C_12  and  N_13 
ROOT
HETATM    1  C   UNL     1      -6.310   2.925 -31.287  1.00  0.00     0.221 C 
HETATM    2  N   UNL     1      -5.546   1.816 -31.662  1.00  0.00    -0.352 N 
HETATM    3  C   UNL     1      -4.393   1.902 -32.559  1.00  0.00     0.129 C 
HETATM    4  C   UNL     1      -3.372   0.804 -32.289  1.00  0.00     0.068 C 
HETATM    5  C   UNL     1      -4.001  -0.597 -32.263  1.00  0.00     0.094 C 
HETATM    6  N   UNL     1      -2.989  -1.545 -31.846  1.00  0.00    -0.334 N 
HETATM    7  C   UNL     1      -3.105  -2.895 -32.045  1.00  0.00     0.255 C 
HETATM    8  O   UNL     1      -2.470  -3.695 -31.370  1.00  0.00    -0.268 OA
HETATM    9  C   UNL     1      -4.011  -3.317 -33.128  1.00  0.00     0.053 A 
HETATM   10  C   UNL     1      -4.645  -2.318 -33.874  1.00  0.00     0.026 A 
HETATM   11  N   UNL     1      -4.410  -0.959 -33.621  1.00  0.00    -0.265 NA
HETATM   12  C   UNL     1      -4.196  -4.674 -33.413  1.00  0.00     0.019 A 
HETATM   13  C   UNL     1      -5.008  -5.043 -34.484  1.00  0.00     0.001 A 
HETATM   14  C   UNL     1      -5.610  -4.060 -35.268  1.00  0.00     0.002 A 
HETATM   15  C   UNL     1      -5.416  -2.706 -34.974  1.00  0.00     0.024 A 
HETATM   16  C   UNL     1      -5.187  -0.612 -31.285  1.00  0.00     0.068 C 
HETATM   17  C   UNL     1      -6.183   0.505 -31.558  1.00  0.00     0.129 C 
HETATM   18  O   UNL     1      -7.402   2.809 -30.732  1.00  0.00    -0.273 OA
HETATM   19  H   UNL     1      -2.417  -1.318 -31.044  1.00  0.00     0.164 HD
HETATM   20  H   UNL     1      -5.138  -0.369 -34.014  1.00  0.00     0.130 HD
ENDROOT
BRANCH   1  21
HETATM   21  C   UNL     1      -5.735   4.293 -31.592  1.00  0.00     0.123 C 
BRANCH  21  22
HETATM   22  C   UNL     1      -4.646   4.669 -30.593  1.00  0.00     0.138 C 
BRANCH  22  23
HETATM   23  N   UNL     1      -3.927   5.864 -31.018  1.00  0.00    -0.349 N 
HETATM   24  C   UNL     1      -3.015   5.886 -32.058  1.00  0.00     0.045 A 
HETATM   25  C   UNL     1      -2.530   7.192 -32.147  1.00  0.00    -0.001 A 
HETATM   26  C   UNL     1      -2.575   4.870 -32.924  1.00  0.00     0.030 A 
HETATM   27  C   UNL     1      -3.177   7.964 -31.132  1.00  0.00    -0.027 A 
HETATM   28  C   UNL     1      -1.571   7.491 -33.141  1.00  0.00     0.014 A 
HETATM   29  C   UNL     1      -2.973   9.414 -30.860  1.00  0.00     0.051 C 
HETATM   30  C   UNL     1      -4.033   7.115 -30.445  1.00  0.00     0.015 A 
HETATM   31  C   UNL     1      -4.945   7.418 -29.306  1.00  0.00     0.069 C 
HETATM   32  C   UNL     1      -1.131   6.486 -34.009  1.00  0.00     0.001 A 
HETATM   33  C   UNL     1      -1.627   5.193 -33.900  1.00  0.00     0.002 A 
ENDBRANCH  22  23
ENDBRANCH  21  22
ENDBRANCH   1  21
TORSDOF 3
ENDMDL
MODEL 6
REMARK VINA RESULT:      -9.7      1.919      2.306
REMARK  3 active torsions:
REMARK  status: ('A' for Active; 'I' for Inactive)
REMARK    1  A    between atoms: N_9  and  C_10 
REMARK    2  A    between atoms: C_10  and  C_11 
REMARK    3  A    between atoms: C_11  and  C_12 
REMARK       I    between atoms: C_12  and  N_13 
ROOT
HETATM    1  C   UNL     1      -6.310   2.059 -32.376  1.00  0.00     0.221 C 
HETATM    2  N   UNL     1      -5.271   2.994 -32.319  1.00  0.00    -0.352 N 
HETATM    3  C   UNL     1      -3.922   2.666 -31.856  1.00  0.00     0.129 C 
HETATM    4  C   UNL     1      -2.864   3.559 -32.491  1.00  0.00     0.068 C 
HETATM    5  C   UNL     1      -3.192   5.054 -32.355  1.00  0.00     0.094 C 
HETATM    6  N   UNL     1      -2.220   5.807 -33.120  1.00  0.00    -0.334 N 
HETATM    7  C   UNL     1      -2.008   7.148 -32.942  1.00  0.00     0.255 C 
HETATM    8  O   UNL     1      -1.498   7.834 -33.819  1.00  0.00    -0.268 OA
HETATM    9  C   UNL     1      -2.403   7.701 -31.634  1.00  0.00     0.053 A 
HETATM   10  C   UNL     1      -2.925   6.817 -30.684  1.00  0.00     0.026 A 
HETATM   11  N   UNL     1      -3.047   5.446 -30.952  1.00  0.00    -0.265 NA
HETATM   12  C   UNL     1      -2.225   9.059 -31.352  1.00  0.00     0.019 A 
HETATM   13  C   UNL     1      -2.547   9.543 -30.086  1.00  0.00     0.001 A 
HETATM   14  C   UNL     1      -3.024   8.668 -29.111  1.00  0.00     0.002 A 
HETATM   15  C   UNL     1      -3.197   7.311 -29.404  1.00  0.00     0.024 A 
HETATM   16  C   UNL     1      -4.611   5.321 -32.880  1.00  0.00     0.068 C 
HETATM   17  C   UNL     1      -5.649   4.403 -32.250  1.00  0.00     0.129 C 
HETATM   18  O   UNL     1      -7.482   2.395 -32.539  1.00  0.00    -0.273 OA
HETATM   19  H   UNL     1      -2.003   5.501 -34.059  1.00  0.00     0.164 HD
HETATM   20  H   UNL     1      -3.698   4.993 -30.318  1.00  0.00     0.130 HD
ENDROOT
BRANCH   1  21
HETATM   21  C   UNL     1      -5.932   0.599 -32.233  1.00  0.00     0.123 C 
BRANCH  21  22
HETATM   22  C   UNL     1      -5.145   0.110 -33.444  1.00  0.00     0.138 C 
BRANCH  22  23
HETATM   23  N   UNL     1      -4.594  -1.220 -33.216  1.00  0.00    -0.349 N 
HETATM   24  C   UNL     1      -5.030  -2.358 -33.872  1.00  0.00     0.045 A 
HETATM   25  C   UNL     1      -4.282  -3.427 -33.375  1.00  0.00    -0.001 A 
HETATM   26  C   UNL     1      -6.017  -2.537 -34.857  1.00  0.00     0.030 A 
HETATM   27  C   UNL     1      -3.377  -2.904 -32.399  1.00  0.00    -0.027 A 
HETATM   28  C   UNL     1      -4.532  -4.720 -33.884  1.00  0.00     0.014 A 
HETATM   29  C   UNL     1      -2.380  -3.682 -31.612  1.00  0.00     0.051 C 
HETATM   30  C   UNL     1      -3.596  -1.536 -32.318  1.00  0.00     0.015 A 
HETATM   31  C   UNL     1      -2.913  -0.523 -31.464  1.00  0.00     0.069 C 
HETATM   32  C   UNL     1      -5.510  -4.907 -34.866  1.00  0.00     0.001 A 
HETATM   33  C   UNL     1      -6.242  -3.827 -35.345  1.00  0.00     0.002 A 
ENDBRANCH  22  23
ENDBRANCH  21  22
ENDBRANCH   1  21
TORSDOF 3
ENDMDL
MODEL 7
REMARK VINA RESULT:      -9.6      4.630      7.894
REMARK  3 active torsions:
REMARK  status: ('A' for Active; 'I' for Inactive)
REMARK    1  A    between atoms: N_9  and  C_10 
REMARK    2  A    between atoms: C_10  and  C_11 
REMARK    3  A    between atoms: C_11  and  C_12 
REMARK       I    between atoms: C_12  and  N_13 
ROOT
HETATM    1  C   UNL     1      -6.637   0.470 -31.529  1.00  0.00     0.221 C 
HETATM    2  N   UNL     1      -7.744   1.037 -32.169  1.00  0.00    -0.352 N 
HETATM    3  C   UNL     1      -7.678   2.285 -32.931  1.00  0.00     0.129 C 
HETATM    4  C   UNL     1      -8.726   2.340 -34.035  1.00  0.00     0.068 C 
HETATM    5  C   UNL     1     -10.141   2.029 -33.525  1.00  0.00     0.094 C 
HETATM    6  N   UNL     1     -11.030   1.949 -34.666  1.00  0.00    -0.334 N 
HETATM    7  C   UNL     1     -12.393   2.031 -34.555  1.00  0.00     0.255 C 
HETATM    8  O   UNL     1     -13.130   1.586 -35.426  1.00  0.00    -0.268 OA
HETATM    9  C   UNL     1     -12.908   2.705 -33.351  1.00  0.00     0.053 A 
HETATM   10  C   UNL     1     -11.977   3.227 -32.447  1.00  0.00     0.026 A 
HETATM   11  N   UNL     1     -10.598   3.137 -32.687  1.00  0.00    -0.265 NA
HETATM   12  C   UNL     1     -14.285   2.843 -33.146  1.00  0.00     0.019 A 
HETATM   13  C   UNL     1     -14.745   3.541 -32.031  1.00  0.00     0.001 A 
HETATM   14  C   UNL     1     -13.830   4.109 -31.145  1.00  0.00     0.002 A 
HETATM   15  C   UNL     1     -12.456   3.966 -31.360  1.00  0.00     0.024 A 
HETATM   16  C   UNL     1     -10.132   0.697 -32.759  1.00  0.00     0.068 C 
HETATM   17  C   UNL     1      -9.065   0.654 -31.675  1.00  0.00     0.129 C 
HETATM   18  O   UNL     1      -6.753  -0.439 -30.708  1.00  0.00    -0.273 OA
HETATM   19  H   UNL     1     -10.737   1.411 -35.470  1.00  0.00     0.164 HD
HETATM   20  H   UNL     1     -10.057   3.276 -31.839  1.00  0.00     0.130 HD
ENDROOT
BRANCH   1  21
HETATM   21  C   UNL     1      -5.274   1.021 -31.893  1.00  0.00     0.123 C 
BRANCH  21  22
HETATM   22  C   UNL     1      -4.919   0.707 -33.342  1.00  0.00     0.138 C 
BRANCH  22  23
HETATM   23  N   UNL     1      -5.023  -0.721 -33.615  1.00  0.00    -0.349 N 
HETATM   24  C   UNL     1      -4.213  -1.679 -33.031  1.00  0.00     0.045 A 
HETATM   25  C   UNL     1      -4.601  -2.914 -33.553  1.00  0.00    -0.001 A 
HETATM   26  C   UNL     1      -3.174  -1.563 -32.092  1.00  0.00     0.030 A 
HETATM   27  C   UNL     1      -5.673  -2.678 -34.470  1.00  0.00    -0.027 A 
HETATM   28  C   UNL     1      -3.924  -4.074 -33.117  1.00  0.00     0.014 A 
HETATM   29  C   UNL     1      -6.405  -3.709 -35.258  1.00  0.00     0.051 C 
HETATM   30  C   UNL     1      -5.910  -1.311 -34.492  1.00  0.00     0.015 A 
HETATM   31  C   UNL     1      -6.924  -0.544 -35.270  1.00  0.00     0.069 C 
HETATM   32  C   UNL     1      -2.891  -3.968 -32.180  1.00  0.00     0.001 A 
HETATM   33  C   UNL     1      -2.522  -2.728 -31.675  1.00  0.00     0.002 A 
ENDBRANCH  22  23
ENDBRANCH  21  22
ENDBRANCH   1  21
TORSDOF 3
ENDMDL
MODEL 8
REMARK VINA RESULT:      -9.4      2.183      8.647
REMARK  3 active torsions:
REMARK  status: ('A' for Active; 'I' for Inactive)
REMARK    1  A    between atoms: N_9  and  C_10 
REMARK    2  A    between atoms: C_10  and  C_11 
REMARK    3  A    between atoms: C_11  and  C_12 
REMARK       I    between atoms: C_12  and  N_13 
ROOT
HETATM    1  C   UNL     1      -4.359   5.774 -32.863  1.00  0.00     0.221 C 
HETATM    2  N   UNL     1      -4.992   4.542 -32.674  1.00  0.00    -0.352 N 
HETATM    3  C   UNL     1      -5.053   3.861 -31.380  1.00  0.00     0.129 C 
HETATM    4  C   UNL     1      -6.285   2.975 -31.254  1.00  0.00     0.068 C 
HETATM    5  C   UNL     1      -6.446   2.012 -32.440  1.00  0.00     0.094 C 
HETATM    6  N   UNL     1      -7.718   1.332 -32.308  1.00  0.00    -0.334 N 
HETATM    7  C   UNL     1      -8.021   0.181 -32.984  1.00  0.00     0.255 C 
HETATM    8  O   UNL     1      -9.182  -0.161 -33.172  1.00  0.00    -0.268 OA
HETATM    9  C   UNL     1      -6.876  -0.627 -33.439  1.00  0.00     0.053 A 
HETATM   10  C   UNL     1      -5.591  -0.173 -33.122  1.00  0.00     0.026 A 
HETATM   11  N   UNL     1      -5.395   0.996 -32.373  1.00  0.00    -0.265 NA
HETATM   12  C   UNL     1      -7.079  -1.823 -34.136  1.00  0.00     0.019 A 
HETATM   13  C   UNL     1      -5.980  -2.599 -34.499  1.00  0.00     0.001 A 
HETATM   14  C   UNL     1      -4.695  -2.186 -34.149  1.00  0.00     0.002 A 
HETATM   15  C   UNL     1      -4.504  -0.989 -33.451  1.00  0.00     0.024 A 
HETATM   16  C   UNL     1      -6.395   2.802 -33.757  1.00  0.00     0.068 C 
HETATM   17  C   UNL     1      -5.168   3.697 -33.853  1.00  0.00     0.129 C 
HETATM   18  O   UNL     1      -4.112   6.216 -33.985  1.00  0.00    -0.273 OA
HETATM   19  H   UNL     1      -8.538   1.881 -32.089  1.00  0.00     0.164 HD
HETATM   20  H   UNL     1      -4.451   1.358 -32.476  1.00  0.00     0.130 HD
ENDROOT
BRANCH   1  21
HETATM   21  C   UNL     1      -3.985   6.555 -31.620  1.00  0.00     0.123 C 
BRANCH  21  22
HETATM   22  C   UNL     1      -2.870   7.554 -31.909  1.00  0.00     0.138 C 
BRANCH  22  23
HETATM   23  N   UNL     1      -2.065   7.809 -30.720  1.00  0.00    -0.349 N 
HETATM   24  C   UNL     1      -1.131   6.922 -30.217  1.00  0.00     0.045 A 
HETATM   25  C   UNL     1      -0.588   7.508 -29.072  1.00  0.00    -0.001 A 
HETATM   26  C   UNL     1      -0.719   5.656 -30.670  1.00  0.00     0.030 A 
HETATM   27  C   UNL     1      -1.219   8.779 -28.897  1.00  0.00    -0.027 A 
HETATM   28  C   UNL     1       0.404   6.801 -28.357  1.00  0.00     0.014 A 
HETATM   29  C   UNL     1      -0.946   9.758 -27.807  1.00  0.00     0.051 C 
HETATM   30  C   UNL     1      -2.132   8.937 -29.929  1.00  0.00     0.015 A 
HETATM   31  C   UNL     1      -3.040  10.084 -30.215  1.00  0.00     0.069 C 
HETATM   32  C   UNL     1       0.821   5.542 -28.802  1.00  0.00     0.001 A 
HETATM   33  C   UNL     1       0.266   4.979 -29.944  1.00  0.00     0.002 A 
ENDBRANCH  22  23
ENDBRANCH  21  22
ENDBRANCH   1  21
TORSDOF 3
ENDMDL
MODEL 9
REMARK VINA RESULT:      -9.4      4.570      8.196
REMARK  3 active torsions:
REMARK  status: ('A' for Active; 'I' for Inactive)
REMARK    1  A    between atoms: N_9  and  C_10 
REMARK    2  A    between atoms: C_10  and  C_11 
REMARK    3  A    between atoms: C_11  and  C_12 
REMARK       I    between atoms: C_12  and  N_13 
ROOT
HETATM    1  C   UNL     1      -9.014   2.248 -32.270  1.00  0.00     0.221 C 
HETATM    2  N   UNL     1      -7.851   1.535 -32.576  1.00  0.00    -0.352 N 
HETATM    3  C   UNL     1      -6.969   1.879 -33.692  1.00  0.00     0.129 C 
HETATM    4  C   UNL     1      -5.527   1.461 -33.435  1.00  0.00     0.068 C 
HETATM    5  C   UNL     1      -5.403  -0.011 -33.012  1.00  0.00     0.094 C 
HETATM    6  N   UNL     1      -4.027  -0.265 -32.640  1.00  0.00    -0.334 N 
HETATM    7  C   UNL     1      -3.501  -1.526 -32.549  1.00  0.00     0.255 C 
HETATM    8  O   UNL     1      -2.500  -1.751 -31.880  1.00  0.00    -0.268 OA
HETATM    9  C   UNL     1      -4.191  -2.576 -33.319  1.00  0.00     0.053 A 
HETATM   10  C   UNL     1      -5.292  -2.198 -34.094  1.00  0.00     0.026 A 
HETATM   11  N   UNL     1      -5.714  -0.863 -34.161  1.00  0.00    -0.265 NA
HETATM   12  C   UNL     1      -3.729  -3.897 -33.295  1.00  0.00     0.019 A 
HETATM   13  C   UNL     1      -4.361  -4.856 -34.083  1.00  0.00     0.001 A 
HETATM   14  C   UNL     1      -5.430  -4.488 -34.899  1.00  0.00     0.002 A 
HETATM   15  C   UNL     1      -5.882  -3.164 -34.916  1.00  0.00     0.024 A 
HETATM   16  C   UNL     1      -6.340  -0.287 -31.825  1.00  0.00     0.068 C 
HETATM   17  C   UNL     1      -7.770   0.158 -32.094  1.00  0.00     0.129 C 
HETATM   18  O   UNL     1      -9.860   1.814 -31.488  1.00  0.00    -0.273 OA
HETATM   19  H   UNL     1      -3.562   0.395 -32.032  1.00  0.00     0.164 HD
HETATM   20  H   UNL     1      -6.668  -0.783 -34.499  1.00  0.00     0.130 HD
ENDROOT
BRANCH   1  21
HETATM   21  C   UNL     1      -9.195   3.593 -32.943  1.00  0.00     0.123 C 
BRANCH  21  22
HETATM   22  C   UNL     1     -10.289   3.537 -34.004  1.00  0.00     0.138 C 
BRANCH  22  23
HETATM   23  N   UNL     1     -11.614   3.489 -33.397  1.00  0.00    -0.349 N 
HETATM   24  C   UNL     1     -12.494   2.432 -33.551  1.00  0.00     0.045 A 
HETATM   25  C   UNL     1     -13.652   2.760 -32.843  1.00  0.00    -0.001 A 
HETATM   26  C   UNL     1     -12.371   1.220 -34.252  1.00  0.00     0.030 A 
HETATM   27  C   UNL     1     -13.447   4.047 -32.252  1.00  0.00    -0.027 A 
HETATM   28  C   UNL     1     -14.723   1.840 -32.837  1.00  0.00     0.014 A 
HETATM   29  C   UNL     1     -14.416   4.792 -31.400  1.00  0.00     0.051 C 
HETATM   30  C   UNL     1     -12.179   4.476 -32.616  1.00  0.00     0.015 A 
HETATM   31  C   UNL     1     -11.474   5.739 -32.258  1.00  0.00     0.069 C 
HETATM   32  C   UNL     1     -14.607   0.630 -33.529  1.00  0.00     0.001 A 
HETATM   33  C   UNL     1     -13.445   0.326 -34.227  1.00  0.00     0.002 A 
ENDBRANCH  22  23
ENDBRANCH  21  22
ENDBRANCH   1  21
TORSDOF 3
ENDMDL
MODEL 10
REMARK VINA RESULT:      -9.1      5.081      8.883
REMARK  3 active torsions:
REMARK  status: ('A' for Active; 'I' for Inactive)
REMARK    1  A    between atoms: N_9  and  C_10 
REMARK    2  A    between atoms: C_10  and  C_11 
REMARK    3  A    between atoms: C_11  and  C_12 
REMARK       I    between atoms: C_12  and  N_13 
ROOT
HETATM    1  C   UNL     1      -9.878   1.484 -33.404  1.00  0.00     0.221 C 
HETATM    2  N   UNL     1      -8.604   0.935 -33.582  1.00  0.00    -0.352 N 
HETATM    3  C   UNL     1      -7.788   1.171 -34.773  1.00  0.00     0.129 C 
HETATM    4  C   UNL     1      -6.297   1.079 -34.476  1.00  0.00     0.068 C 
HETATM    5  C   UNL     1      -5.918  -0.217 -33.743  1.00  0.00     0.094 C 
HETATM    6  N   UNL     1      -4.521  -0.138 -33.367  1.00  0.00    -0.334 N 
HETATM    7  C   UNL     1      -3.781  -1.235 -33.017  1.00  0.00     0.255 C 
HETATM    8  O   UNL     1      -2.762  -1.128 -32.347  1.00  0.00    -0.268 OA
HETATM    9  C   UNL     1      -4.267  -2.534 -33.515  1.00  0.00     0.053 A 
HETATM   10  C   UNL     1      -5.411  -2.537 -34.320  1.00  0.00     0.026 A 
HETATM   11  N   UNL     1      -6.063  -1.344 -34.666  1.00  0.00    -0.265 NA
HETATM   12  C   UNL     1      -3.580  -3.715 -33.215  1.00  0.00     0.019 A 
HETATM   13  C   UNL     1      -4.025  -4.921 -33.752  1.00  0.00     0.001 A 
HETATM   14  C   UNL     1      -5.135  -4.936 -34.595  1.00  0.00     0.002 A 
HETATM   15  C   UNL     1      -5.814  -3.749 -34.889  1.00  0.00     0.024 A 
HETATM   16  C   UNL     1      -6.800  -0.382 -32.496  1.00  0.00     0.068 C 
HETATM   17  C   UNL     1      -8.284  -0.264 -32.811  1.00  0.00     0.129 C 
HETATM   18  O   UNL     1     -10.640   1.094 -32.520  1.00  0.00    -0.273 OA
HETATM   19  H   UNL     1      -4.185   0.711 -32.935  1.00  0.00     0.164 HD
HETATM   20  H   UNL     1      -7.013  -1.510 -34.983  1.00  0.00     0.130 HD
ENDROOT
BRANCH   1  21
HETATM   21  C   UNL     1     -10.289   2.593 -34.351  1.00  0.00     0.123 C 
BRANCH  21  22
HETATM   22  C   UNL     1     -11.645   2.304 -34.985  1.00  0.00     0.138 C 
BRANCH  22  23
HETATM   23  N   UNL     1     -12.736   2.694 -34.100  1.00  0.00    -0.349 N 
HETATM   24  C   UNL     1     -12.919   3.978 -33.620  1.00  0.00     0.045 A 
HETATM   25  C   UNL     1     -14.047   3.950 -32.798  1.00  0.00    -0.001 A 
HETATM   26  C   UNL     1     -12.188   5.160 -33.838  1.00  0.00     0.030 A 
HETATM   27  C   UNL     1     -14.546   2.610 -32.796  1.00  0.00    -0.027 A 
HETATM   28  C   UNL     1     -14.458   5.148 -32.174  1.00  0.00     0.014 A 
HETATM   29  C   UNL     1     -15.743   2.114 -32.059  1.00  0.00     0.051 C 
HETATM   30  C   UNL     1     -13.712   1.853 -33.606  1.00  0.00     0.015 A 
HETATM   31  C   UNL     1     -13.794   0.405 -33.949  1.00  0.00     0.069 C 
HETATM   32  C   UNL     1     -13.739   6.328 -32.387  1.00  0.00     0.001 A 
HETATM   33  C   UNL     1     -12.618   6.332 -33.209  1.00  0.00     0.002 A 
ENDBRANCH  22  23
ENDBRANCH  21  22
ENDBRANCH   1  21
TORSDOF 3
ENDMDL
