MODEL 1
REMARK VINA RESULT:      -8.1      0.000      0.000
REMARK  4 active torsions:
REMARK  status: ('A' for Active; 'I' for Inactive)
REMARK    1  A    between atoms: C_2  and  C_3 
REMARK    2  A    between atoms: C_7  and  N_8 
REMARK       I    between atoms: N_8  and  C_9 
REMARK    3  A    between atoms: C_9  and  C_10 
REMARK    4  A    between atoms: C_12  and  C_13 
ROOT
HETATM    1  N   UNL     1      -9.925   0.363 -33.330  1.00  0.00    -0.308 N 
HETATM    2  C   UNL     1      -8.864   1.021 -33.933  1.00  0.00     0.257 C 
HETATM    3  O   UNL     1      -8.952   2.100 -34.515  1.00  0.00    -0.267 OA
HETATM    4  H   UNL     1      -9.774  -0.483 -32.796  1.00  0.00     0.170 HD
ENDROOT
BRANCH   2   5
HETATM    5  C   UNL     1      -7.536   0.358 -33.808  1.00  0.00     0.033 A 
HETATM    6  C   UNL     1      -7.333  -0.977 -34.186  1.00  0.00     0.029 A 
HETATM    7  C   UNL     1      -6.076  -1.576 -34.019  1.00  0.00    -0.023 A 
HETATM    8  C   UNL     1      -5.024  -0.820 -33.485  1.00  0.00     0.012 A 
HETATM    9  C   UNL     1      -5.216   0.518 -33.136  1.00  0.00     0.002 A 
HETATM   10  C   UNL     1      -6.469   1.107 -33.301  1.00  0.00     0.017 A 
BRANCH   7  11
HETATM   11  C   UNL     1      -5.860  -2.968 -34.373  1.00  0.00    -0.002 A 
HETATM   12  C   UNL     1      -6.824  -3.798 -34.907  1.00  0.00     0.153 A 
HETATM   13  O   UNL     1      -6.321  -5.040 -35.129  1.00  0.00    -0.334 OA
HETATM   14  C   UNL     1      -5.020  -5.013 -34.745  1.00  0.00     0.142 A 
HETATM   15  C   UNL     1      -4.684  -3.762 -34.281  1.00  0.00     0.038 A 
ENDBRANCH   7  11
ENDBRANCH   2   5
BRANCH   1  16
HETATM   16  C   UNL     1     -11.203   0.884 -33.342  1.00  0.00     0.126 A 
HETATM   17  N   UNL     1     -11.524   2.165 -32.978  1.00  0.00    -0.262 N 
HETATM   18  N   UNL     1     -12.841   2.431 -33.053  1.00  0.00    -0.178 NA
HETATM   19  H   UNL     1     -10.877   2.884 -32.661  1.00  0.00     0.191 HD
HETATM   20  C   UNL     1     -13.377   1.283 -33.486  1.00  0.00     0.058 A 
HETATM   21  C   UNL     1     -12.390   0.286 -33.688  1.00  0.00     0.079 A 
BRANCH  20  22
HETATM   22  C   UNL     1     -14.848   1.168 -33.698  1.00  0.00     0.056 C 
HETATM   23  C   UNL     1     -15.647   1.919 -32.643  1.00  0.00     0.011 C 
ENDBRANCH  20  22
ENDBRANCH   1  16
TORSDOF 4
ENDMDL
MODEL 2
REMARK VINA RESULT:      -8.0      4.681      7.664
REMARK  4 active torsions:
REMARK  status: ('A' for Active; 'I' for Inactive)
REMARK    1  A    between atoms: C_2  and  C_3 
REMARK    2  A    between atoms: C_7  and  N_8 
REMARK       I    between atoms: N_8  and  C_9 
REMARK    3  A    between atoms: C_9  and  C_10 
REMARK    4  A    between atoms: C_12  and  C_13 
ROOT
HETATM    1  N   UNL     1      -3.862   2.673 -32.925  1.00  0.00    -0.308 N 
HETATM    2  C   UNL     1      -3.869   1.349 -32.517  1.00  0.00     0.257 C 
HETATM    3  O   UNL     1      -3.071   0.859 -31.721  1.00  0.00    -0.267 OA
HETATM    4  H   UNL     1      -4.595   3.036 -33.521  1.00  0.00     0.170 HD
ENDROOT
BRANCH   2   5
HETATM    5  C   UNL     1      -4.961   0.505 -33.077  1.00  0.00     0.033 A 
HETATM    6  C   UNL     1      -4.772  -0.851 -33.381  1.00  0.00     0.029 A 
HETATM    7  C   UNL     1      -5.815  -1.602 -33.942  1.00  0.00    -0.023 A 
HETATM    8  C   UNL     1      -7.051  -0.986 -34.179  1.00  0.00     0.012 A 
HETATM    9  C   UNL     1      -7.251   0.356 -33.849  1.00  0.00     0.002 A 
HETATM   10  C   UNL     1      -6.209   1.099 -33.296  1.00  0.00     0.017 A 
BRANCH   7  11
HETATM   11  C   UNL     1      -5.623  -2.998 -34.295  1.00  0.00    -0.002 A 
HETATM   12  C   UNL     1      -6.591  -3.803 -34.859  1.00  0.00     0.153 A 
HETATM   13  O   UNL     1      -6.112  -5.057 -35.070  1.00  0.00    -0.334 OA
HETATM   14  C   UNL     1      -4.822  -5.061 -34.650  1.00  0.00     0.142 A 
HETATM   15  C   UNL     1      -4.469  -3.820 -34.173  1.00  0.00     0.038 A 
ENDBRANCH   7  11
ENDBRANCH   2   5
BRANCH   1  16
HETATM   16  C   UNL     1      -2.925   3.572 -32.456  1.00  0.00     0.126 A 
HETATM   17  N   UNL     1      -2.448   3.600 -31.172  1.00  0.00    -0.262 N 
HETATM   18  N   UNL     1      -1.556   4.583 -30.950  1.00  0.00    -0.178 NA
HETATM   19  H   UNL     1      -2.714   2.975 -30.414  1.00  0.00     0.191 HD
HETATM   20  C   UNL     1      -1.456   5.199 -32.135  1.00  0.00     0.058 A 
HETATM   21  C   UNL     1      -2.289   4.597 -33.112  1.00  0.00     0.079 A 
BRANCH  20  22
HETATM   22  C   UNL     1      -0.549   6.369 -32.305  1.00  0.00     0.056 C 
HETATM   23  C   UNL     1       0.421   6.524 -31.143  1.00  0.00     0.011 C 
ENDBRANCH  20  22
ENDBRANCH   1  16
TORSDOF 4
ENDMDL
MODEL 3
REMARK VINA RESULT:      -7.6      4.932      8.404
REMARK  4 active torsions:
REMARK  status: ('A' for Active; 'I' for Inactive)
REMARK    1  A    between atoms: C_2  and  C_3 
REMARK    2  A    between atoms: C_7  and  N_8 
REMARK       I    between atoms: N_8  and  C_9 
REMARK    3  A    between atoms: C_9  and  C_10 
REMARK    4  A    between atoms: C_12  and  C_13 
ROOT
HETATM    1  N   UNL     1      -3.700   2.985 -32.623  1.00  0.00    -0.308 N 
HETATM    2  C   UNL     1      -3.614   1.721 -32.060  1.00  0.00     0.257 C 
HETATM    3  O   UNL     1      -2.835   1.408 -31.162  1.00  0.00    -0.267 OA
HETATM    4  H   UNL     1      -4.417   3.201 -33.302  1.00  0.00     0.170 HD
ENDROOT
BRANCH   2   5
HETATM    5  C   UNL     1      -4.578   0.713 -32.582  1.00  0.00     0.033 A 
HETATM    6  C   UNL     1      -5.935   1.010 -32.774  1.00  0.00     0.029 A 
HETATM    7  C   UNL     1      -6.818   0.022 -33.233  1.00  0.00    -0.023 A 
HETATM    8  C   UNL     1      -6.324  -1.259 -33.512  1.00  0.00     0.012 A 
HETATM    9  C   UNL     1      -4.968  -1.549 -33.351  1.00  0.00     0.002 A 
HETATM   10  C   UNL     1      -4.095  -0.564 -32.890  1.00  0.00     0.017 A 
BRANCH   7  11
HETATM   11  C   UNL     1      -8.231   0.305 -33.403  1.00  0.00    -0.002 A 
HETATM   12  C   UNL     1      -8.764   1.031 -34.449  1.00  0.00     0.153 A 
HETATM   13  O   UNL     1     -10.114   1.128 -34.330  1.00  0.00    -0.334 OA
HETATM   14  C   UNL     1     -10.460   0.452 -33.205  1.00  0.00     0.142 A 
HETATM   15  C   UNL     1      -9.343  -0.079 -32.603  1.00  0.00     0.038 A 
ENDBRANCH   7  11
ENDBRANCH   2   5
BRANCH   1  16
HETATM   16  C   UNL     1      -2.888   4.021 -32.208  1.00  0.00     0.126 A 
HETATM   17  N   UNL     1      -2.864   4.529 -30.935  1.00  0.00    -0.262 N 
HETATM   18  N   UNL     1      -2.004   5.552 -30.780  1.00  0.00    -0.178 NA
HETATM   19  H   UNL     1      -3.427   4.214 -30.147  1.00  0.00     0.191 HD
HETATM   20  C   UNL     1      -1.457   5.698 -31.994  1.00  0.00     0.058 A 
HETATM   21  C   UNL     1      -1.973   4.757 -32.919  1.00  0.00     0.079 A 
BRANCH  20  22
HETATM   22  C   UNL     1      -0.435   6.755 -32.240  1.00  0.00     0.056 C 
HETATM   23  C   UNL     1       0.602   6.828 -31.130  1.00  0.00     0.011 C 
ENDBRANCH  20  22
ENDBRANCH   1  16
TORSDOF 4
ENDMDL
MODEL 4
REMARK VINA RESULT:      -7.5      6.290      9.152
REMARK  4 active torsions:
REMARK  status: ('A' for Active; 'I' for Inactive)
REMARK    1  A    between atoms: C_2  and  C_3 
REMARK    2  A    between atoms: C_7  and  N_8 
REMARK       I    between atoms: N_8  and  C_9 
REMARK    3  A    between atoms: C_9  and  C_10 
REMARK    4  A    between atoms: C_12  and  C_13 
ROOT
HETATM    1  N   UNL     1      -4.101   0.000 -32.268  1.00  0.00    -0.308 N 
HETATM    2  C   UNL     1      -3.307   0.806 -31.467  1.00  0.00     0.257 C 
HETATM    3  O   UNL     1      -2.325   0.418 -30.839  1.00  0.00    -0.267 OA
HETATM    4  H   UNL     1      -4.847   0.396 -32.823  1.00  0.00     0.170 HD
ENDROOT
BRANCH   2   5
HETATM    5  C   UNL     1      -3.684   2.247 -31.425  1.00  0.00     0.033 A 
HETATM    6  C   UNL     1      -2.955   3.227 -32.115  1.00  0.00     0.029 A 
HETATM    7  C   UNL     1      -3.321   4.578 -32.020  1.00  0.00    -0.023 A 
HETATM    8  C   UNL     1      -4.430   4.933 -31.241  1.00  0.00     0.012 A 
HETATM    9  C   UNL     1      -5.176   3.956 -30.579  1.00  0.00     0.002 A 
HETATM   10  C   UNL     1      -4.805   2.614 -30.673  1.00  0.00     0.017 A 
BRANCH   7  11
HETATM   11  C   UNL     1      -2.555   5.607 -32.699  1.00  0.00    -0.002 A 
HETATM   12  C   UNL     1      -2.875   6.134 -33.934  1.00  0.00     0.153 A 
HETATM   13  O   UNL     1      -1.968   7.075 -34.306  1.00  0.00    -0.334 OA
HETATM   14  C   UNL     1      -1.061   7.167 -33.301  1.00  0.00     0.142 A 
HETATM   15  C   UNL     1      -1.379   6.293 -32.288  1.00  0.00     0.038 A 
ENDBRANCH   7  11
ENDBRANCH   2   5
BRANCH   1  16
HETATM   16  C   UNL     1      -3.843  -1.347 -32.422  1.00  0.00     0.126 A 
HETATM   17  N   UNL     1      -3.072  -2.094 -31.570  1.00  0.00    -0.262 N 
HETATM   18  N   UNL     1      -2.949  -3.381 -31.944  1.00  0.00    -0.178 NA
HETATM   19  H   UNL     1      -2.601  -1.762 -30.731  1.00  0.00     0.191 HD
HETATM   20  C   UNL     1      -3.672  -3.459 -33.068  1.00  0.00     0.058 A 
HETATM   21  C   UNL     1      -4.258  -2.212 -33.404  1.00  0.00     0.079 A 
BRANCH  20  22
HETATM   22  C   UNL     1      -3.786  -4.749 -33.806  1.00  0.00     0.056 C 
HETATM   23  C   UNL     1      -5.119  -4.890 -34.526  1.00  0.00     0.011 C 
ENDBRANCH  20  22
ENDBRANCH   1  16
TORSDOF 4
ENDMDL
MODEL 5
REMARK VINA RESULT:      -7.3      1.643      2.367
REMARK  4 active torsions:
REMARK  status: ('A' for Active; 'I' for Inactive)
REMARK    1  A    between atoms: C_2  and  C_3 
REMARK    2  A    between atoms: C_7  and  N_8 
REMARK       I    between atoms: N_8  and  C_9 
REMARK    3  A    between atoms: C_9  and  C_10 
REMARK    4  A    between atoms: C_12  and  C_13 
ROOT
HETATM    1  N   UNL     1     -11.342   1.500 -33.822  1.00  0.00    -0.308 N 
HETATM    2  C   UNL     1     -10.500   0.494 -33.378  1.00  0.00     0.257 C 
HETATM    3  O   UNL     1     -10.873  -0.532 -32.812  1.00  0.00    -0.267 OA
HETATM    4  H   UNL     1     -10.981   2.281 -34.353  1.00  0.00     0.170 HD
ENDROOT
BRANCH   2   5
HETATM    5  C   UNL     1      -9.050   0.691 -33.661  1.00  0.00     0.033 A 
HETATM    6  C   UNL     1      -8.158  -0.386 -33.758  1.00  0.00     0.029 A 
HETATM    7  C   UNL     1      -6.793  -0.156 -33.990  1.00  0.00    -0.023 A 
HETATM    8  C   UNL     1      -6.338   1.161 -34.138  1.00  0.00     0.012 A 
HETATM    9  C   UNL     1      -7.230   2.233 -34.072  1.00  0.00     0.002 A 
HETATM   10  C   UNL     1      -8.585   1.999 -33.838  1.00  0.00     0.017 A 
BRANCH   7  11
HETATM   11  C   UNL     1      -5.852  -1.259 -34.058  1.00  0.00    -0.002 A 
HETATM   12  C   UNL     1      -4.693  -1.346 -33.315  1.00  0.00     0.153 A 
HETATM   13  O   UNL     1      -4.022  -2.491 -33.601  1.00  0.00    -0.334 OA
HETATM   14  C   UNL     1      -4.756  -3.158 -34.527  1.00  0.00     0.142 A 
HETATM   15  C   UNL     1      -5.893  -2.448 -34.837  1.00  0.00     0.038 A 
ENDBRANCH   7  11
ENDBRANCH   2   5
BRANCH   1  16
HETATM   16  C   UNL     1     -12.711   1.427 -33.654  1.00  0.00     0.126 A 
HETATM   17  N   UNL     1     -13.529   0.542 -34.307  1.00  0.00    -0.262 N 
HETATM   18  N   UNL     1     -14.830   0.680 -33.992  1.00  0.00    -0.178 NA
HETATM   19  H   UNL     1     -13.241  -0.162 -34.983  1.00  0.00     0.191 HD
HETATM   20  C   UNL     1     -14.841   1.682 -33.103  1.00  0.00     0.058 A 
HETATM   21  C   UNL     1     -13.536   2.178 -32.854  1.00  0.00     0.079 A 
BRANCH  20  22
HETATM   22  C   UNL     1     -16.125   2.149 -32.505  1.00  0.00     0.056 C 
HETATM   23  C   UNL     1     -16.050   3.590 -32.025  1.00  0.00     0.011 C 
ENDBRANCH  20  22
ENDBRANCH   1  16
TORSDOF 4
ENDMDL
MODEL 6
REMARK VINA RESULT:      -7.3      4.190      7.102
REMARK  4 active torsions:
REMARK  status: ('A' for Active; 'I' for Inactive)
REMARK    1  A    between atoms: C_2  and  C_3 
REMARK    2  A    between atoms: C_7  and  N_8 
REMARK       I    between atoms: N_8  and  C_9 
REMARK    3  A    between atoms: C_9  and  C_10 
REMARK    4  A    between atoms: C_12  and  C_13 
ROOT
HETATM    1  N   UNL     1      -4.607   2.570 -32.442  1.00  0.00    -0.308 N 
HETATM    2  C   UNL     1      -5.645   2.657 -33.356  1.00  0.00     0.257 C 
HETATM    3  O   UNL     1      -5.899   3.652 -34.032  1.00  0.00    -0.267 OA
HETATM    4  H   UNL     1      -4.400   1.697 -31.975  1.00  0.00     0.170 HD
ENDROOT
BRANCH   2   5
HETATM    5  C   UNL     1      -6.461   1.423 -33.529  1.00  0.00     0.033 A 
HETATM    6  C   UNL     1      -5.878   0.179 -33.812  1.00  0.00     0.029 A 
HETATM    7  C   UNL     1      -6.683  -0.953 -34.004  1.00  0.00    -0.023 A 
HETATM    8  C   UNL     1      -8.074  -0.828 -33.893  1.00  0.00     0.012 A 
HETATM    9  C   UNL     1      -8.655   0.402 -33.581  1.00  0.00     0.002 A 
HETATM   10  C   UNL     1      -7.850   1.526 -33.395  1.00  0.00     0.017 A 
BRANCH   7  11
HETATM   11  C   UNL     1      -6.096  -2.239 -34.332  1.00  0.00    -0.002 A 
HETATM   12  C   UNL     1      -4.751  -2.534 -34.232  1.00  0.00     0.153 A 
HETATM   13  O   UNL     1      -4.509  -3.815 -34.612  1.00  0.00    -0.334 OA
HETATM   14  C   UNL     1      -5.706  -4.359 -34.951  1.00  0.00     0.142 A 
HETATM   15  C   UNL     1      -6.713  -3.436 -34.789  1.00  0.00     0.038 A 
ENDBRANCH   7  11
ENDBRANCH   2   5
BRANCH   1  16
HETATM   16  C   UNL     1      -3.754   3.630 -32.209  1.00  0.00     0.126 A 
HETATM   17  N   UNL     1      -4.014   4.663 -31.346  1.00  0.00    -0.262 N 
HETATM   18  N   UNL     1      -3.039   5.589 -31.307  1.00  0.00    -0.178 NA
HETATM   19  H   UNL     1      -4.849   4.779 -30.776  1.00  0.00     0.191 HD
HETATM   20  C   UNL     1      -2.123   5.129 -32.169  1.00  0.00     0.058 A 
HETATM   21  C   UNL     1      -2.523   3.901 -32.754  1.00  0.00     0.079 A 
BRANCH  20  22
HETATM   22  C   UNL     1      -0.866   5.891 -32.416  1.00  0.00     0.056 C 
HETATM   23  C   UNL     1      -1.049   6.992 -33.450  1.00  0.00     0.011 C 
ENDBRANCH  20  22
ENDBRANCH   1  16
TORSDOF 4
ENDMDL
MODEL 7
REMARK VINA RESULT:      -7.1      7.679     10.585
REMARK  4 active torsions:
REMARK  status: ('A' for Active; 'I' for Inactive)
REMARK    1  A    between atoms: C_2  and  C_3 
REMARK    2  A    between atoms: C_7  and  N_8 
REMARK       I    between atoms: N_8  and  C_9 
REMARK    3  A    between atoms: C_9  and  C_10 
REMARK    4  A    between atoms: C_12  and  C_13 
ROOT
HETATM    1  N   UNL     1      -1.909   5.910 -30.259  1.00  0.00    -0.308 N 
HETATM    2  C   UNL     1      -1.707   5.013 -31.296  1.00  0.00     0.257 C 
HETATM    3  O   UNL     1      -0.616   4.542 -31.611  1.00  0.00    -0.267 OA
HETATM    4  H   UNL     1      -2.842   6.198 -29.998  1.00  0.00     0.170 HD
ENDROOT
BRANCH   2   5
HETATM    5  C   UNL     1      -2.932   4.585 -32.029  1.00  0.00     0.033 A 
HETATM    6  C   UNL     1      -3.476   3.301 -31.883  1.00  0.00     0.029 A 
HETATM    7  C   UNL     1      -4.609   2.925 -32.619  1.00  0.00    -0.023 A 
HETATM    8  C   UNL     1      -5.199   3.853 -33.487  1.00  0.00     0.012 A 
HETATM    9  C   UNL     1      -4.677   5.142 -33.611  1.00  0.00     0.002 A 
HETATM   10  C   UNL     1      -3.548   5.509 -32.880  1.00  0.00     0.017 A 
BRANCH   7  11
HETATM   11  C   UNL     1      -5.162   1.587 -32.504  1.00  0.00    -0.002 A 
HETATM   12  C   UNL     1      -5.092   0.805 -31.369  1.00  0.00     0.153 A 
HETATM   13  O   UNL     1      -5.697  -0.394 -31.572  1.00  0.00    -0.334 OA
HETATM   14  C   UNL     1      -6.173  -0.385 -32.842  1.00  0.00     0.142 A 
HETATM   15  C   UNL     1      -5.879   0.810 -33.456  1.00  0.00     0.038 A 
ENDBRANCH   7  11
ENDBRANCH   2   5
BRANCH   1  16
HETATM   16  C   UNL     1      -0.864   6.363 -29.478  1.00  0.00     0.126 A 
HETATM   17  N   UNL     1      -0.065   5.560 -28.707  1.00  0.00    -0.262 N 
HETATM   18  N   UNL     1       0.873   6.236 -28.018  1.00  0.00    -0.178 NA
HETATM   19  H   UNL     1      -0.133   4.548 -28.613  1.00  0.00     0.191 HD
HETATM   20  C   UNL     1       0.668   7.513 -28.367  1.00  0.00     0.058 A 
HETATM   21  C   UNL     1      -0.404   7.642 -29.285  1.00  0.00     0.079 A 
BRANCH  20  22
HETATM   22  C   UNL     1       1.521   8.597 -27.801  1.00  0.00     0.056 C 
HETATM   23  C   UNL     1       1.958   8.306 -26.373  1.00  0.00     0.011 C 
ENDBRANCH  20  22
ENDBRANCH   1  16
TORSDOF 4
ENDMDL
MODEL 8
REMARK VINA RESULT:      -7.1      8.475     11.578
REMARK  4 active torsions:
REMARK  status: ('A' for Active; 'I' for Inactive)
REMARK    1  A    between atoms: C_2  and  C_3 
REMARK    2  A    between atoms: C_7  and  N_8 
REMARK       I    between atoms: N_8  and  C_9 
REMARK    3  A    between atoms: C_9  and  C_10 
REMARK    4  A    between atoms: C_12  and  C_13 
ROOT
HETATM    1  N   UNL     1      -0.862   6.437 -29.921  1.00  0.00    -0.308 N 
HETATM    2  C   UNL     1      -0.633   5.287 -30.659  1.00  0.00     0.257 C 
HETATM    3  O   UNL     1       0.112   4.372 -30.315  1.00  0.00    -0.267 OA
HETATM    4  H   UNL     1      -1.549   7.117 -30.220  1.00  0.00     0.170 HD
ENDROOT
BRANCH   2   5
HETATM    5  C   UNL     1      -1.393   5.176 -31.936  1.00  0.00     0.033 A 
HETATM    6  C   UNL     1      -2.652   4.561 -32.001  1.00  0.00     0.029 A 
HETATM    7  C   UNL     1      -3.318   4.443 -33.230  1.00  0.00    -0.023 A 
HETATM    8  C   UNL     1      -2.719   4.961 -34.385  1.00  0.00     0.012 A 
HETATM    9  C   UNL     1      -1.480   5.601 -34.318  1.00  0.00     0.002 A 
HETATM   10  C   UNL     1      -0.819   5.711 -33.094  1.00  0.00     0.017 A 
BRANCH   7  11
HETATM   11  C   UNL     1      -4.606   3.778 -33.318  1.00  0.00    -0.002 A 
HETATM   12  C   UNL     1      -4.997   2.721 -32.522  1.00  0.00     0.153 A 
HETATM   13  O   UNL     1      -6.252   2.314 -32.844  1.00  0.00    -0.334 OA
HETATM   14  C   UNL     1      -6.682   3.118 -33.849  1.00  0.00     0.142 A 
HETATM   15  C   UNL     1      -5.713   4.039 -34.172  1.00  0.00     0.038 A 
ENDBRANCH   7  11
ENDBRANCH   2   5
BRANCH   1  16
HETATM   16  C   UNL     1      -0.248   6.652 -28.703  1.00  0.00     0.126 A 
HETATM   17  N   UNL     1      -0.564   5.990 -27.545  1.00  0.00    -0.262 N 
HETATM   18  N   UNL     1       0.160   6.390 -26.483  1.00  0.00    -0.178 NA
HETATM   19  H   UNL     1      -1.274   5.269 -27.435  1.00  0.00     0.191 HD
HETATM   20  C   UNL     1       0.968   7.334 -26.982  1.00  0.00     0.058 A 
HETATM   21  C   UNL     1       0.755   7.528 -28.370  1.00  0.00     0.079 A 
BRANCH  20  22
HETATM   22  C   UNL     1       1.942   8.039 -26.100  1.00  0.00     0.056 C 
HETATM   23  C   UNL     1       1.588   9.505 -25.902  1.00  0.00     0.011 C 
ENDBRANCH  20  22
ENDBRANCH   1  16
TORSDOF 4
ENDMDL
MODEL 9
REMARK VINA RESULT:      -7.1      6.297      9.248
REMARK  4 active torsions:
REMARK  status: ('A' for Active; 'I' for Inactive)
REMARK    1  A    between atoms: C_2  and  C_3 
REMARK    2  A    between atoms: C_7  and  N_8 
REMARK       I    between atoms: N_8  and  C_9 
REMARK    3  A    between atoms: C_9  and  C_10 
REMARK    4  A    between atoms: C_12  and  C_13 
ROOT
HETATM    1  N   UNL     1      -4.534   2.921 -32.788  1.00  0.00    -0.308 N 
HETATM    2  C   UNL     1      -3.332   2.945 -32.098  1.00  0.00     0.257 C 
HETATM    3  O   UNL     1      -2.934   2.048 -31.358  1.00  0.00    -0.267 OA
HETATM    4  H   UNL     1      -4.769   3.654 -33.445  1.00  0.00     0.170 HD
ENDROOT
BRANCH   2   5
HETATM    5  C   UNL     1      -2.478   4.144 -32.328  1.00  0.00     0.033 A 
HETATM    6  C   UNL     1      -1.973   4.912 -31.269  1.00  0.00     0.029 A 
HETATM    7  C   UNL     1      -1.202   6.055 -31.529  1.00  0.00    -0.023 A 
HETATM    8  C   UNL     1      -0.930   6.408 -32.857  1.00  0.00     0.012 A 
HETATM    9  C   UNL     1      -1.406   5.627 -33.912  1.00  0.00     0.002 A 
HETATM   10  C   UNL     1      -2.175   4.495 -33.648  1.00  0.00     0.017 A 
BRANCH   7  11
HETATM   11  C   UNL     1      -0.703   6.880 -30.443  1.00  0.00    -0.002 A 
HETATM   12  C   UNL     1      -1.382   7.948 -29.896  1.00  0.00     0.153 A 
HETATM   13  O   UNL     1      -0.657   8.522 -28.901  1.00  0.00    -0.334 OA
HETATM   14  C   UNL     1       0.495   7.814 -28.795  1.00  0.00     0.142 A 
HETATM   15  C   UNL     1       0.514   6.790 -29.713  1.00  0.00     0.038 A 
ENDBRANCH   7  11
ENDBRANCH   2   5
BRANCH   1  16
HETATM   16  C   UNL     1      -5.405   1.855 -32.691  1.00  0.00     0.126 A 
HETATM   17  N   UNL     1      -5.964   1.411 -31.521  1.00  0.00    -0.262 N 
HETATM   18  N   UNL     1      -6.765   0.342 -31.679  1.00  0.00    -0.178 NA
HETATM   19  H   UNL     1      -5.816   1.803 -30.593  1.00  0.00     0.191 HD
HETATM   20  C   UNL     1      -6.720   0.099 -32.995  1.00  0.00     0.058 A 
HETATM   21  C   UNL     1      -5.887   1.025 -33.672  1.00  0.00     0.079 A 
BRANCH  20  22
HETATM   22  C   UNL     1      -7.490  -1.035 -33.581  1.00  0.00     0.056 C 
HETATM   23  C   UNL     1      -6.706  -1.775 -34.654  1.00  0.00     0.011 C 
ENDBRANCH  20  22
ENDBRANCH   1  16
TORSDOF 4
ENDMDL
MODEL 10
REMARK VINA RESULT:      -7.0      4.945      7.972
REMARK  4 active torsions:
REMARK  status: ('A' for Active; 'I' for Inactive)
REMARK    1  A    between atoms: C_2  and  C_3 
REMARK    2  A    between atoms: C_7  and  N_8 
REMARK       I    between atoms: N_8  and  C_9 
REMARK    3  A    between atoms: C_9  and  C_10 
REMARK    4  A    between atoms: C_12  and  C_13 
ROOT
HETATM    1  N   UNL     1      -5.308   0.917 -33.292  1.00  0.00    -0.308 N 
HETATM    2  C   UNL     1      -5.595   1.411 -32.029  1.00  0.00     0.257 C 
HETATM    3  O   UNL     1      -6.177   0.781 -31.148  1.00  0.00    -0.267 OA
HETATM    4  H   UNL     1      -4.755   1.456 -33.945  1.00  0.00     0.170 HD
ENDROOT
BRANCH   2   5
HETATM    5  C   UNL     1      -5.113   2.792 -31.749  1.00  0.00     0.033 A 
HETATM    6  C   UNL     1      -4.217   3.454 -32.600  1.00  0.00     0.029 A 
HETATM    7  C   UNL     1      -3.758   4.741 -32.282  1.00  0.00    -0.023 A 
HETATM    8  C   UNL     1      -4.217   5.360 -31.112  1.00  0.00     0.012 A 
HETATM    9  C   UNL     1      -5.133   4.715 -30.279  1.00  0.00     0.002 A 
HETATM   10  C   UNL     1      -5.583   3.434 -30.598  1.00  0.00     0.017 A 
BRANCH   7  11
HETATM   11  C   UNL     1      -2.803   5.424 -33.136  1.00  0.00    -0.002 A 
HETATM   12  C   UNL     1      -2.654   6.794 -33.203  1.00  0.00     0.153 A 
HETATM   13  O   UNL     1      -1.684   7.130 -34.093  1.00  0.00    -0.334 OA
HETATM   14  C   UNL     1      -1.194   5.970 -34.599  1.00  0.00     0.142 A 
HETATM   15  C   UNL     1      -1.841   4.893 -34.039  1.00  0.00     0.038 A 
ENDBRANCH   7  11
ENDBRANCH   2   5
BRANCH   1  16
HETATM   16  C   UNL     1      -5.669  -0.360 -33.671  1.00  0.00     0.126 A 
HETATM   17  N   UNL     1      -6.960  -0.813 -33.747  1.00  0.00    -0.262 N 
HETATM   18  N   UNL     1      -7.056  -2.103 -34.120  1.00  0.00    -0.178 NA
HETATM   19  H   UNL     1      -7.802  -0.279 -33.541  1.00  0.00     0.191 HD
HETATM   20  C   UNL     1      -5.784  -2.483 -34.293  1.00  0.00     0.058 A 
HETATM   21  C   UNL     1      -4.879  -1.424 -34.031  1.00  0.00     0.079 A 
BRANCH  20  22
HETATM   22  C   UNL     1      -5.462  -3.877 -34.713  1.00  0.00     0.056 C 
HETATM   23  C   UNL     1      -6.644  -4.571 -35.372  1.00  0.00     0.011 C 
ENDBRANCH  20  22
ENDBRANCH   1  16
TORSDOF 4
ENDMDL
