MODEL 1
REMARK VINA RESULT:      -7.7      0.000      0.000
REMARK  5 active torsions:
REMARK  status: ('A' for Active; 'I' for Inactive)
REMARK    1  A    between atoms: C_2  and  O_3 
REMARK    2  A    between atoms: C_4  and  C_5 
REMARK    3  A    between atoms: C_5  and  O_6 
REMARK    4  A    between atoms: C_9  and  C_10 
REMARK    5  A    between atoms: C_22  and  O_23 
ROOT
HETATM    1  C   UNL     1      -8.506   3.869 -33.319  1.00  0.00     0.047 C 
HETATM    2  C   UNL     1      -7.805   2.628 -32.741  1.00  0.00     0.073 C 
HETATM    3  C   UNL     1      -6.497   2.273 -33.526  1.00  0.00     0.133 C 
HETATM    4  C   UNL     1      -5.567   1.194 -32.896  1.00  0.00     0.074 C 
HETATM    5  C   UNL     1      -5.711   1.116 -31.418  1.00  0.00     0.030 A 
HETATM    6  C   UNL     1      -6.632   1.836 -30.689  1.00  0.00     0.042 A 
HETATM    7  N   UNL     1      -6.424   1.531 -29.372  1.00  0.00    -0.279 N 
HETATM    8  H   UNL     1      -6.907   1.888 -28.553  1.00  0.00     0.189 HD
HETATM    9  N   UNL     1      -5.413   0.655 -29.193  1.00  0.00    -0.149 NA
HETATM   10  C   UNL     1      -4.986   0.445 -30.431  1.00  0.00     0.190 A 
HETATM   11  C   UNL     1      -7.613   2.820 -31.208  1.00  0.00     0.097 C 
ENDROOT
BRANCH   4  12
HETATM   12  C   UNL     1      -5.785  -0.201 -33.480  1.00  0.00    -0.048 A 
HETATM   13  C   UNL     1      -4.644  -0.977 -33.769  1.00  0.00     0.009 A 
HETATM   14  C   UNL     1      -4.757  -2.259 -34.313  1.00  0.00     0.019 A 
HETATM   15  C   UNL     1      -6.015  -2.783 -34.590  1.00  0.00     0.011 A 
HETATM   16 BR   UNL     1      -6.173  -4.518 -35.322  1.00  0.00    -0.051 Br
HETATM   17  C   UNL     1      -7.159  -2.037 -34.321  1.00  0.00     0.019 A 
HETATM   18  C   UNL     1      -7.044  -0.758 -33.769  1.00  0.00     0.009 A 
ENDBRANCH   4  12
BRANCH   3  19
HETATM   19  C   UNL     1      -5.654   3.517 -33.720  1.00  0.00     0.266 C 
HETATM   20  O   UNL     1      -5.878   4.393 -34.544  1.00  0.00    -0.265 OA
BRANCH  19  21
HETATM   21  O   UNL     1      -4.608   3.517 -32.848  1.00  0.00    -0.326 OA
HETATM   22  C   UNL     1      -4.493   4.707 -32.066  1.00  0.00     0.213 C 
ENDBRANCH  19  21
ENDBRANCH   3  19
BRANCH   2  23
HETATM   23  O   UNL     1      -8.757   1.565 -32.953  1.00  0.00    -0.389 OA
HETATM   24  H   UNL     1      -9.545   1.756 -32.418  1.00  0.00     0.210 HD
ENDBRANCH   2  23
BRANCH  10  25
HETATM   25  O   UNL     1      -3.938  -0.363 -30.543  1.00  0.00    -0.343 OA
HETATM   26  H   UNL     1      -3.980  -0.929 -29.754  1.00  0.00     0.219 HD
ENDBRANCH  10  25
TORSDOF 5
ENDMDL
MODEL 2
REMARK VINA RESULT:      -7.6      2.023      3.042
REMARK  5 active torsions:
REMARK  status: ('A' for Active; 'I' for Inactive)
REMARK    1  A    between atoms: C_2  and  O_3 
REMARK    2  A    between atoms: C_4  and  C_5 
REMARK    3  A    between atoms: C_5  and  O_6 
REMARK    4  A    between atoms: C_9  and  C_10 
REMARK    5  A    between atoms: C_22  and  O_23 
ROOT
HETATM    1  C   UNL     1      -4.199   5.763 -33.975  1.00  0.00     0.047 C 
HETATM    2  C   UNL     1      -4.889   4.570 -33.292  1.00  0.00     0.073 C 
HETATM    3  C   UNL     1      -3.860   3.614 -32.600  1.00  0.00     0.133 C 
HETATM    4  C   UNL     1      -4.440   2.507 -31.669  1.00  0.00     0.074 C 
HETATM    5  C   UNL     1      -5.758   2.886 -31.094  1.00  0.00     0.030 A 
HETATM    6  C   UNL     1      -6.447   4.033 -31.422  1.00  0.00     0.042 A 
HETATM    7  N   UNL     1      -7.581   4.049 -30.657  1.00  0.00    -0.279 N 
HETATM    8  H   UNL     1      -8.314   4.751 -30.622  1.00  0.00     0.189 HD
HETATM    9  N   UNL     1      -7.674   2.978 -29.841  1.00  0.00    -0.149 NA
HETATM   10  C   UNL     1      -6.557   2.313 -30.102  1.00  0.00     0.190 A 
HETATM   11  C   UNL     1      -6.016   5.100 -32.358  1.00  0.00     0.097 C 
ENDROOT
BRANCH   4  12
HETATM   12  C   UNL     1      -4.582   1.153 -32.362  1.00  0.00    -0.048 A 
HETATM   13  C   UNL     1      -3.540   0.219 -32.196  1.00  0.00     0.009 A 
HETATM   14  C   UNL     1      -3.588  -1.038 -32.805  1.00  0.00     0.019 A 
HETATM   15  C   UNL     1      -4.677  -1.378 -33.601  1.00  0.00     0.011 A 
HETATM   16 BR   UNL     1      -4.749  -3.078 -34.423  1.00  0.00    -0.051 Br
HETATM   17  C   UNL     1      -5.717  -0.473 -33.788  1.00  0.00     0.019 A 
HETATM   18  C   UNL     1      -5.670   0.781 -33.172  1.00  0.00     0.009 A 
ENDBRANCH   4  12
BRANCH   3  19
HETATM   19  C   UNL     1      -2.883   4.417 -31.767  1.00  0.00     0.266 C 
HETATM   20  O   UNL     1      -3.192   5.141 -30.830  1.00  0.00    -0.265 OA
BRANCH  19  21
HETATM   21  O   UNL     1      -1.611   4.222 -32.213  1.00  0.00    -0.326 OA
HETATM   22  C   UNL     1      -0.763   5.366 -32.095  1.00  0.00     0.213 C 
ENDBRANCH  19  21
ENDBRANCH   3  19
BRANCH   2  23
HETATM   23  O   UNL     1      -5.501   3.854 -34.385  1.00  0.00    -0.389 OA
HETATM   24  H   UNL     1      -6.462   3.858 -34.248  1.00  0.00     0.210 HD
ENDBRANCH   2  23
BRANCH  10  25
HETATM   25  O   UNL     1      -6.367   1.213 -29.383  1.00  0.00    -0.343 OA
HETATM   26  H   UNL     1      -5.783   1.493 -28.658  1.00  0.00     0.219 HD
ENDBRANCH  10  25
TORSDOF 5
ENDMDL
MODEL 3
REMARK VINA RESULT:      -7.3      4.646      6.943
REMARK  5 active torsions:
REMARK  status: ('A' for Active; 'I' for Inactive)
REMARK    1  A    between atoms: C_2  and  O_3 
REMARK    2  A    between atoms: C_4  and  C_5 
REMARK    3  A    between atoms: C_5  and  O_6 
REMARK    4  A    between atoms: C_9  and  C_10 
REMARK    5  A    between atoms: C_22  and  O_23 
ROOT
HETATM    1  C   UNL     1      -0.047   7.036 -29.885  1.00  0.00     0.047 C 
HETATM    2  C   UNL     1      -0.882   6.175 -30.848  1.00  0.00     0.073 C 
HETATM    3  C   UNL     1      -2.418   6.432 -30.685  1.00  0.00     0.133 C 
HETATM    4  C   UNL     1      -3.356   5.810 -31.763  1.00  0.00     0.074 C 
HETATM    5  C   UNL     1      -2.667   5.613 -33.066  1.00  0.00     0.030 A 
HETATM    6  C   UNL     1      -1.326   5.851 -33.279  1.00  0.00     0.042 A 
HETATM    7  N   UNL     1      -1.083   5.601 -34.601  1.00  0.00    -0.279 N 
HETATM    8  H   UNL     1      -0.211   5.688 -35.114  1.00  0.00     0.189 HD
HETATM    9  N   UNL     1      -2.190   5.218 -35.272  1.00  0.00    -0.149 NA
HETATM   10  C   UNL     1      -3.129   5.260 -34.336  1.00  0.00     0.190 A 
HETATM   11  C   UNL     1      -0.340   6.360 -32.296  1.00  0.00     0.097 C 
ENDROOT
BRANCH   4  12
HETATM   12  C   UNL     1      -3.967   4.479 -31.330  1.00  0.00    -0.048 A 
HETATM   13  C   UNL     1      -5.160   4.519 -30.579  1.00  0.00     0.009 A 
HETATM   14  C   UNL     1      -5.778   3.347 -30.136  1.00  0.00     0.019 A 
HETATM   15  C   UNL     1      -5.206   2.113 -30.427  1.00  0.00     0.011 A 
HETATM   16 BR   UNL     1      -6.041   0.524 -29.834  1.00  0.00    -0.051 Br
HETATM   17  C   UNL     1      -4.026   2.043 -31.161  1.00  0.00     0.019 A 
HETATM   18  C   UNL     1      -3.413   3.217 -31.609  1.00  0.00     0.009 A 
ENDBRANCH   4  12
BRANCH   3  19
HETATM   19  C   UNL     1      -2.697   7.921 -30.671  1.00  0.00     0.266 C 
HETATM   20  O   UNL     1      -2.661   8.649 -31.653  1.00  0.00    -0.265 OA
BRANCH  19  21
HETATM   21  O   UNL     1      -2.989   8.333 -29.406  1.00  0.00    -0.326 OA
HETATM   22  C   UNL     1      -3.590   7.331 -28.584  1.00  0.00     0.213 C 
ENDBRANCH  19  21
ENDBRANCH   3  19
BRANCH   2  23
HETATM   23  O   UNL     1      -0.607   4.823 -30.427  1.00  0.00    -0.389 OA
HETATM   24  H   UNL     1       0.126   4.482 -30.966  1.00  0.00     0.210 HD
ENDBRANCH   2  23
BRANCH  10  25
HETATM   25  O   UNL     1      -4.357   4.968 -34.747  1.00  0.00    -0.343 OA
HETATM   26  H   UNL     1      -4.910   5.068 -33.953  1.00  0.00     0.219 HD
ENDBRANCH  10  25
TORSDOF 5
ENDMDL
MODEL 4
REMARK VINA RESULT:      -7.3      2.957      4.040
REMARK  5 active torsions:
REMARK  status: ('A' for Active; 'I' for Inactive)
REMARK    1  A    between atoms: C_2  and  O_3 
REMARK    2  A    between atoms: C_4  and  C_5 
REMARK    3  A    between atoms: C_5  and  O_6 
REMARK    4  A    between atoms: C_9  and  C_10 
REMARK    5  A    between atoms: C_22  and  O_23 
ROOT
HETATM    1  C   UNL     1      -5.613   3.377 -29.905  1.00  0.00     0.047 C 
HETATM    2  C   UNL     1      -6.106   2.216 -30.786  1.00  0.00     0.073 C 
HETATM    3  C   UNL     1      -6.598   2.710 -32.187  1.00  0.00     0.133 C 
HETATM    4  C   UNL     1      -6.892   1.616 -33.258  1.00  0.00     0.074 C 
HETATM    5  C   UNL     1      -6.104   0.376 -33.029  1.00  0.00     0.030 A 
HETATM    6  C   UNL     1      -5.286   0.166 -31.941  1.00  0.00     0.042 A 
HETATM    7  N   UNL     1      -4.704  -1.060 -32.111  1.00  0.00    -0.279 N 
HETATM    8  H   UNL     1      -4.032  -1.533 -31.514  1.00  0.00     0.189 HD
HETATM    9  N   UNL     1      -5.090  -1.667 -33.254  1.00  0.00    -0.149 NA
HETATM   10  C   UNL     1      -5.906  -0.774 -33.797  1.00  0.00     0.190 A 
HETATM   11  C   UNL     1      -5.011   1.111 -30.831  1.00  0.00     0.097 C 
ENDROOT
BRANCH   4  12
HETATM   12  C   UNL     1      -8.371   1.244 -33.346  1.00  0.00    -0.048 A 
HETATM   13  C   UNL     1      -9.184   1.993 -34.220  1.00  0.00     0.009 A 
HETATM   14  C   UNL     1     -10.549   1.724 -34.352  1.00  0.00     0.019 A 
HETATM   15  C   UNL     1     -11.127   0.706 -33.601  1.00  0.00     0.011 A 
HETATM   16 BR   UNL     1     -12.971   0.335 -33.779  1.00  0.00    -0.051 Br
HETATM   17  C   UNL     1     -10.350  -0.046 -32.725  1.00  0.00     0.019 A 
HETATM   18  C   UNL     1      -8.983   0.221 -32.600  1.00  0.00     0.009 A 
ENDBRANCH   4  12
BRANCH   3  19
HETATM   19  C   UNL     1      -5.579   3.652 -32.794  1.00  0.00     0.266 C 
HETATM   20  O   UNL     1      -4.435   3.343 -33.099  1.00  0.00    -0.265 OA
BRANCH  19  21
HETATM   21  O   UNL     1      -6.117   4.893 -32.948  1.00  0.00    -0.326 OA
HETATM   22  C   UNL     1      -5.162   5.955 -32.939  1.00  0.00     0.213 C 
ENDBRANCH  19  21
ENDBRANCH   3  19
BRANCH   2  23
HETATM   23  O   UNL     1      -7.246   1.700 -30.067  1.00  0.00    -0.389 OA
HETATM   24  H   UNL     1      -7.000   0.841 -29.688  1.00  0.00     0.210 HD
ENDBRANCH   2  23
BRANCH  10  25
HETATM   25  O   UNL     1      -6.404  -1.103 -34.984  1.00  0.00    -0.343 OA
HETATM   26  H   UNL     1      -5.827  -1.820 -35.300  1.00  0.00     0.219 HD
ENDBRANCH  10  25
TORSDOF 5
ENDMDL
MODEL 5
REMARK VINA RESULT:      -7.3      2.334      3.485
REMARK  5 active torsions:
REMARK  status: ('A' for Active; 'I' for Inactive)
REMARK    1  A    between atoms: C_2  and  O_3 
REMARK    2  A    between atoms: C_4  and  C_5 
REMARK    3  A    between atoms: C_5  and  O_6 
REMARK    4  A    between atoms: C_9  and  C_10 
REMARK    5  A    between atoms: C_22  and  O_23 
ROOT
HETATM    1  C   UNL     1      -8.734   3.135 -30.478  1.00  0.00     0.047 C 
HETATM    2  C   UNL     1      -7.230   2.911 -30.707  1.00  0.00     0.073 C 
HETATM    3  C   UNL     1      -6.930   2.355 -32.139  1.00  0.00     0.133 C 
HETATM    4  C   UNL     1      -5.436   2.316 -32.583  1.00  0.00     0.074 C 
HETATM    5  C   UNL     1      -4.613   3.339 -31.885  1.00  0.00     0.030 A 
HETATM    6  C   UNL     1      -5.081   4.161 -30.884  1.00  0.00     0.042 A 
HETATM    7  N   UNL     1      -4.050   4.988 -30.533  1.00  0.00    -0.279 N 
HETATM    8  H   UNL     1      -4.038   5.731 -29.841  1.00  0.00     0.189 HD
HETATM    9  N   UNL     1      -2.930   4.759 -31.251  1.00  0.00    -0.149 NA
HETATM   10  C   UNL     1      -3.303   3.786 -32.072  1.00  0.00     0.190 A 
HETATM   11  C   UNL     1      -6.459   4.212 -30.338  1.00  0.00     0.097 C 
ENDROOT
BRANCH   4  12
HETATM   12  C   UNL     1      -4.786   0.948 -32.381  1.00  0.00    -0.048 A 
HETATM   13  C   UNL     1      -5.130  -0.080 -33.283  1.00  0.00     0.009 A 
HETATM   14  C   UNL     1      -4.587  -1.362 -33.162  1.00  0.00     0.019 A 
HETATM   15  C   UNL     1      -3.699  -1.641 -32.129  1.00  0.00     0.011 A 
HETATM   16 BR   UNL     1      -2.960  -3.373 -31.965  1.00  0.00    -0.051 Br
HETATM   17  C   UNL     1      -3.347  -0.648 -31.221  1.00  0.00     0.019 A 
HETATM   18  C   UNL     1      -3.885   0.636 -31.348  1.00  0.00     0.009 A 
ENDBRANCH   4  12
BRANCH   3  19
HETATM   19  C   UNL     1      -7.672   3.168 -33.179  1.00  0.00     0.266 C 
HETATM   20  O   UNL     1      -7.350   4.287 -33.553  1.00  0.00    -0.265 OA
BRANCH  19  21
HETATM   21  O   UNL     1      -8.754   2.477 -33.634  1.00  0.00    -0.326 OA
HETATM   22  C   UNL     1      -8.430   1.298 -34.373  1.00  0.00     0.213 C 
ENDBRANCH  19  21
ENDBRANCH   3  19
BRANCH   2  23
HETATM   23  O   UNL     1      -6.885   1.889 -29.748  1.00  0.00    -0.389 OA
HETATM   24  H   UNL     1      -5.975   2.049 -29.450  1.00  0.00     0.210 HD
ENDBRANCH   2  23
BRANCH  10  25
HETATM   25  O   UNL     1      -2.382   3.391 -32.944  1.00  0.00    -0.343 OA
HETATM   26  H   UNL     1      -2.661   3.785 -33.788  1.00  0.00     0.219 HD
ENDBRANCH  10  25
TORSDOF 5
ENDMDL
MODEL 6
REMARK VINA RESULT:      -7.1      1.860      2.844
REMARK  5 active torsions:
REMARK  status: ('A' for Active; 'I' for Inactive)
REMARK    1  A    between atoms: C_2  and  O_3 
REMARK    2  A    between atoms: C_4  and  C_5 
REMARK    3  A    between atoms: C_5  and  O_6 
REMARK    4  A    between atoms: C_9  and  C_10 
REMARK    5  A    between atoms: C_22  and  O_23 
ROOT
HETATM    1  C   UNL     1     -10.564   3.459 -30.963  1.00  0.00     0.047 C 
HETATM    2  C   UNL     1      -9.172   2.845 -31.191  1.00  0.00     0.073 C 
HETATM    3  C   UNL     1      -8.710   2.975 -32.681  1.00  0.00     0.133 C 
HETATM    4  C   UNL     1      -7.226   2.617 -32.994  1.00  0.00     0.074 C 
HETATM    5  C   UNL     1      -6.338   2.807 -31.816  1.00  0.00     0.030 A 
HETATM    6  C   UNL     1      -6.781   3.158 -30.559  1.00  0.00     0.042 A 
HETATM    7  N   UNL     1      -5.674   3.282 -29.767  1.00  0.00    -0.279 N 
HETATM    8  H   UNL     1      -5.619   3.544 -28.787  1.00  0.00     0.189 HD
HETATM    9  N   UNL     1      -4.526   3.036 -30.434  1.00  0.00    -0.149 NA
HETATM   10  C   UNL     1      -4.950   2.783 -31.664  1.00  0.00     0.190 A 
HETATM   11  C   UNL     1      -8.179   3.435 -30.148  1.00  0.00     0.097 C 
ENDROOT
BRANCH   4  12
HETATM   12  C   UNL     1      -7.049   1.189 -33.510  1.00  0.00    -0.048 A 
HETATM   13  C   UNL     1      -6.632   0.207 -32.590  1.00  0.00     0.009 A 
HETATM   14  C   UNL     1      -6.437  -1.120 -32.984  1.00  0.00     0.019 A 
HETATM   15  C   UNL     1      -6.645  -1.484 -34.310  1.00  0.00     0.011 A 
HETATM   16 BR   UNL     1      -6.387  -3.278 -34.846  1.00  0.00    -0.051 Br
HETATM   17  C   UNL     1      -7.051  -0.533 -35.242  1.00  0.00     0.019 A 
HETATM   18  C   UNL     1      -7.252   0.792 -34.844  1.00  0.00     0.009 A 
ENDBRANCH   4  12
BRANCH   3  19
HETATM   19  C   UNL     1      -8.930   4.390 -33.173  1.00  0.00     0.266 C 
HETATM   20  O   UNL     1      -8.305   5.369 -32.789  1.00  0.00    -0.265 OA
BRANCH  19  21
HETATM   21  O   UNL     1      -9.927   4.417 -34.101  1.00  0.00    -0.326 OA
HETATM   22  C   UNL     1      -9.961   5.605 -34.894  1.00  0.00     0.213 C 
ENDBRANCH  19  21
ENDBRANCH   3  19
BRANCH   2  23
HETATM   23  O   UNL     1      -9.362   1.445 -30.900  1.00  0.00    -0.389 OA
HETATM   24  H   UNL     1     -10.045   1.102 -31.500  1.00  0.00     0.210 HD
ENDBRANCH   2  23
BRANCH  10  25
HETATM   25  O   UNL     1      -3.998   2.550 -32.560  1.00  0.00    -0.343 OA
HETATM   26  H   UNL     1      -3.798   1.603 -32.464  1.00  0.00     0.219 HD
ENDBRANCH  10  25
TORSDOF 5
ENDMDL
MODEL 7
REMARK VINA RESULT:      -7.1      3.466      5.340
REMARK  5 active torsions:
REMARK  status: ('A' for Active; 'I' for Inactive)
REMARK    1  A    between atoms: C_2  and  O_3 
REMARK    2  A    between atoms: C_4  and  C_5 
REMARK    3  A    between atoms: C_5  and  O_6 
REMARK    4  A    between atoms: C_9  and  C_10 
REMARK    5  A    between atoms: C_22  and  O_23 
ROOT
HETATM    1  C   UNL     1      -8.283   1.641 -34.129  1.00  0.00     0.047 C 
HETATM    2  C   UNL     1      -6.804   1.552 -33.718  1.00  0.00     0.073 C 
HETATM    3  C   UNL     1      -6.561   2.102 -32.273  1.00  0.00     0.133 C 
HETATM    4  C   UNL     1      -5.158   1.845 -31.645  1.00  0.00     0.074 C 
HETATM    5  C   UNL     1      -4.499   0.636 -32.210  1.00  0.00     0.030 A 
HETATM    6  C   UNL     1      -5.014  -0.116 -33.243  1.00  0.00     0.042 A 
HETATM    7  N   UNL     1      -4.152  -1.160 -33.442  1.00  0.00    -0.279 N 
HETATM    8  H   UNL     1      -4.221  -1.922 -34.109  1.00  0.00     0.189 HD
HETATM    9  N   UNL     1      -3.102  -1.138 -32.594  1.00  0.00    -0.149 NA
HETATM   10  C   UNL     1      -3.349  -0.069 -31.849  1.00  0.00     0.190 A 
HETATM   11  C   UNL     1      -6.296   0.100 -33.956  1.00  0.00     0.097 C 
ENDROOT
BRANCH   4  12
HETATM   12  C   UNL     1      -4.207   3.032 -31.795  1.00  0.00    -0.048 A 
HETATM   13  C   UNL     1      -4.402   4.138 -30.944  1.00  0.00     0.009 A 
HETATM   14  C   UNL     1      -3.583   5.267 -31.023  1.00  0.00     0.019 A 
HETATM   15  C   UNL     1      -2.560   5.313 -31.964  1.00  0.00     0.011 A 
HETATM   16 BR   UNL     1      -1.446   6.836 -32.072  1.00  0.00    -0.051 Br
HETATM   17  C   UNL     1      -2.349   4.238 -32.822  1.00  0.00     0.019 A 
HETATM   18  C   UNL     1      -3.165   3.107 -32.736  1.00  0.00     0.009 A 
ENDBRANCH   4  12
BRANCH   3  19
HETATM   19  C   UNL     1      -7.580   1.518 -31.316  1.00  0.00     0.266 C 
HETATM   20  O   UNL     1      -7.634   0.341 -30.984  1.00  0.00    -0.265 OA
BRANCH  19  21
HETATM   21  O   UNL     1      -8.430   2.489 -30.882  1.00  0.00    -0.326 OA
HETATM   22  C   UNL     1      -7.886   3.339 -29.871  1.00  0.00     0.213 C 
ENDBRANCH  19  21
ENDBRANCH   3  19
BRANCH   2  23
HETATM   23  O   UNL     1      -6.135   2.428 -34.649  1.00  0.00    -0.389 OA
HETATM   24  H   UNL     1      -6.402   2.173 -35.548  1.00  0.00     0.210 HD
ENDBRANCH   2  23
BRANCH  10  25
HETATM   25  O   UNL     1      -2.475   0.164 -30.877  1.00  0.00    -0.343 OA
HETATM   26  H   UNL     1      -3.013   0.207 -30.069  1.00  0.00     0.219 HD
ENDBRANCH  10  25
TORSDOF 5
ENDMDL
MODEL 8
REMARK VINA RESULT:      -7.0      4.271      5.667
REMARK  5 active torsions:
REMARK  status: ('A' for Active; 'I' for Inactive)
REMARK    1  A    between atoms: C_2  and  O_3 
REMARK    2  A    between atoms: C_4  and  C_5 
REMARK    3  A    between atoms: C_5  and  O_6 
REMARK    4  A    between atoms: C_9  and  C_10 
REMARK    5  A    between atoms: C_22  and  O_23 
ROOT
HETATM    1  C   UNL     1      -9.939   6.097 -33.093  1.00  0.00     0.047 C 
HETATM    2  C   UNL     1     -10.277   4.666 -33.544  1.00  0.00     0.073 C 
HETATM    3  C   UNL     1     -10.020   3.617 -32.410  1.00  0.00     0.133 C 
HETATM    4  C   UNL     1     -10.551   2.172 -32.652  1.00  0.00     0.074 C 
HETATM    5  C   UNL     1     -11.713   2.145 -33.580  1.00  0.00     0.030 A 
HETATM    6  C   UNL     1     -12.207   3.250 -34.239  1.00  0.00     0.042 A 
HETATM    7  N   UNL     1     -13.296   2.833 -34.953  1.00  0.00    -0.279 N 
HETATM    8  H   UNL     1     -13.916   3.380 -35.542  1.00  0.00     0.189 HD
HETATM    9  N   UNL     1     -13.549   1.517 -34.798  1.00  0.00    -0.149 NA
HETATM   10  C   UNL     1     -12.604   1.135 -33.950  1.00  0.00     0.190 A 
HETATM   11  C   UNL     1     -11.716   4.646 -34.138  1.00  0.00     0.097 C 
ENDROOT
BRANCH   4  12
HETATM   12  C   UNL     1      -9.480   1.221 -33.186  1.00  0.00    -0.048 A 
HETATM   13  C   UNL     1      -8.759   0.455 -32.248  1.00  0.00     0.009 A 
HETATM   14  C   UNL     1      -7.757  -0.431 -32.652  1.00  0.00     0.019 A 
HETATM   15  C   UNL     1      -7.450  -0.556 -34.003  1.00  0.00     0.011 A 
HETATM   16 BR   UNL     1      -6.098  -1.756 -34.554  1.00  0.00    -0.051 Br
HETATM   17  C   UNL     1      -8.141   0.193 -34.950  1.00  0.00     0.019 A 
HETATM   18  C   UNL     1      -9.149   1.073 -34.544  1.00  0.00     0.009 A 
ENDBRANCH   4  12
BRANCH   3  19
HETATM   19  C   UNL     1     -10.635   4.096 -31.111  1.00  0.00     0.266 C 
HETATM   20  O   UNL     1     -11.834   4.110 -30.868  1.00  0.00    -0.265 OA
BRANCH  19  21
HETATM   21  O   UNL     1      -9.661   4.511 -30.254  1.00  0.00    -0.326 OA
HETATM   22  C   UNL     1      -8.515   3.660 -30.208  1.00  0.00     0.213 C 
ENDBRANCH  19  21
ENDBRANCH   3  19
BRANCH   2  23
HETATM   23  O   UNL     1      -9.339   4.412 -34.611  1.00  0.00    -0.389 OA
HETATM   24  H   UNL     1      -9.767   4.646 -35.451  1.00  0.00     0.210 HD
ENDBRANCH   2  23
BRANCH  10  25
HETATM   25  O   UNL     1     -12.652  -0.139 -33.578  1.00  0.00    -0.343 OA
HETATM   26  H   UNL     1     -13.562  -0.268 -33.261  1.00  0.00     0.219 HD
ENDBRANCH  10  25
TORSDOF 5
ENDMDL
MODEL 9
REMARK VINA RESULT:      -6.9      3.679      5.144
REMARK  5 active torsions:
REMARK  status: ('A' for Active; 'I' for Inactive)
REMARK    1  A    between atoms: C_2  and  O_3 
REMARK    2  A    between atoms: C_4  and  C_5 
REMARK    3  A    between atoms: C_5  and  O_6 
REMARK    4  A    between atoms: C_9  and  C_10 
REMARK    5  A    between atoms: C_22  and  O_23 
ROOT
HETATM    1  C   UNL     1     -10.090   4.861 -32.791  1.00  0.00     0.047 C 
HETATM    2  C   UNL     1      -8.898   4.074 -33.361  1.00  0.00     0.073 C 
HETATM    3  C   UNL     1      -7.792   3.820 -32.283  1.00  0.00     0.133 C 
HETATM    4  C   UNL     1      -6.651   2.828 -32.662  1.00  0.00     0.074 C 
HETATM    5  C   UNL     1      -7.082   1.833 -33.680  1.00  0.00     0.030 A 
HETATM    6  C   UNL     1      -8.312   1.841 -34.301  1.00  0.00     0.042 A 
HETATM    7  N   UNL     1      -8.348   0.752 -35.127  1.00  0.00    -0.279 N 
HETATM    8  H   UNL     1      -9.103   0.434 -35.726  1.00  0.00     0.189 HD
HETATM    9  N   UNL     1      -7.212   0.024 -35.080  1.00  0.00    -0.149 NA
HETATM   10  C   UNL     1      -6.483   0.678 -34.186  1.00  0.00     0.190 A 
HETATM   11  C   UNL     1      -9.426   2.792 -34.068  1.00  0.00     0.097 C 
ENDROOT
BRANCH   4  12
HETATM   12  C   UNL     1      -5.392   3.529 -33.169  1.00  0.00    -0.048 A 
HETATM   13  C   UNL     1      -4.182   3.274 -32.492  1.00  0.00     0.009 A 
HETATM   14  C   UNL     1      -2.987   3.882 -32.886  1.00  0.00     0.019 A 
HETATM   15  C   UNL     1      -2.985   4.766 -33.960  1.00  0.00     0.011 A 
HETATM   16 BR   UNL     1      -1.371   5.587 -34.499  1.00  0.00    -0.051 Br
HETATM   17  C   UNL     1      -4.165   5.041 -34.643  1.00  0.00     0.019 A 
HETATM   18  C   UNL     1      -5.358   4.426 -34.251  1.00  0.00     0.009 A 
ENDBRANCH   4  12
BRANCH   3  19
HETATM   19  C   UNL     1      -8.420   3.295 -31.008  1.00  0.00     0.266 C 
HETATM   20  O   UNL     1      -8.909   2.181 -30.876  1.00  0.00    -0.265 OA
BRANCH  19  21
HETATM   21  O   UNL     1      -8.366   4.242 -30.031  1.00  0.00    -0.326 OA
HETATM   22  C   UNL     1      -7.086   4.376 -29.411  1.00  0.00     0.213 C 
ENDBRANCH  19  21
ENDBRANCH   3  19
BRANCH   2  23
HETATM   23  O   UNL     1      -8.352   4.956 -34.363  1.00  0.00    -0.389 OA
HETATM   24  H   UNL     1      -8.780   4.752 -35.211  1.00  0.00     0.210 HD
ENDBRANCH   2  23
BRANCH  10  25
HETATM   25  O   UNL     1      -5.303   0.135 -33.905  1.00  0.00    -0.343 OA
HETATM   26  H   UNL     1      -4.876   0.018 -34.771  1.00  0.00     0.219 HD
ENDBRANCH  10  25
TORSDOF 5
ENDMDL
MODEL 10
REMARK VINA RESULT:      -6.9      2.538      4.210
REMARK  5 active torsions:
REMARK  status: ('A' for Active; 'I' for Inactive)
REMARK    1  A    between atoms: C_2  and  O_3 
REMARK    2  A    between atoms: C_4  and  C_5 
REMARK    3  A    between atoms: C_5  and  O_6 
REMARK    4  A    between atoms: C_9  and  C_10 
REMARK    5  A    between atoms: C_22  and  O_23 
ROOT
HETATM    1  C   UNL     1     -10.218   3.534 -30.454  1.00  0.00     0.047 C 
HETATM    2  C   UNL     1      -8.886   3.445 -31.218  1.00  0.00     0.073 C 
HETATM    3  C   UNL     1      -9.086   2.958 -32.692  1.00  0.00     0.133 C 
HETATM    4  C   UNL     1      -7.855   3.059 -33.643  1.00  0.00     0.074 C 
HETATM    5  C   UNL     1      -6.908   4.128 -33.228  1.00  0.00     0.030 A 
HETATM    6  C   UNL     1      -7.039   4.879 -32.081  1.00  0.00     0.042 A 
HETATM    7  N   UNL     1      -6.010   5.780 -32.076  1.00  0.00    -0.279 N 
HETATM    8  H   UNL     1      -5.801   6.502 -31.392  1.00  0.00     0.189 HD
HETATM    9  N   UNL     1      -5.212   5.667 -33.159  1.00  0.00    -0.149 NA
HETATM   10  C   UNL     1      -5.788   4.690 -33.846  1.00  0.00     0.190 A 
HETATM   11  C   UNL     1      -8.126   4.796 -31.076  1.00  0.00     0.097 C 
ENDROOT
BRANCH   4  12
HETATM   12  C   UNL     1      -7.083   1.746 -33.766  1.00  0.00    -0.048 A 
HETATM   13  C   UNL     1      -7.480   0.845 -34.775  1.00  0.00     0.009 A 
HETATM   14  C   UNL     1      -6.833  -0.381 -34.948  1.00  0.00     0.019 A 
HETATM   15  C   UNL     1      -5.783  -0.732 -34.106  1.00  0.00     0.011 A 
HETATM   16 BR   UNL     1      -4.902  -2.388 -34.339  1.00  0.00    -0.051 Br
HETATM   17  C   UNL     1      -5.374   0.134 -33.097  1.00  0.00     0.019 A 
HETATM   18  C   UNL     1      -6.018   1.364 -32.930  1.00  0.00     0.009 A 
ENDBRANCH   4  12
BRANCH   3  19
HETATM   19  C   UNL     1     -10.209   3.734 -33.349  1.00  0.00     0.266 C 
HETATM   20  O   UNL     1     -10.131   4.897 -33.722  1.00  0.00    -0.265 OA
BRANCH  19  21
HETATM   21  O   UNL     1     -11.319   2.954 -33.460  1.00  0.00    -0.326 OA
HETATM   22  C   UNL     1     -11.214   1.917 -34.437  1.00  0.00     0.213 C 
ENDBRANCH  19  21
ENDBRANCH   3  19
BRANCH   2  23
HETATM   23  O   UNL     1      -8.149   2.430 -30.506  1.00  0.00    -0.389 OA
HETATM   24  H   UNL     1      -8.101   2.691 -29.572  1.00  0.00     0.210 HD
ENDBRANCH   2  23
BRANCH  10  25
HETATM   25  O   UNL     1      -5.220   4.400 -35.011  1.00  0.00    -0.343 OA
HETATM   26  H   UNL     1      -5.753   3.668 -35.366  1.00  0.00     0.219 HD
ENDBRANCH  10  25
TORSDOF 5
ENDMDL
