MODEL 1
REMARK VINA RESULT:      -7.9      0.000      0.000
REMARK  10 active torsions:
REMARK  status: ('A' for Active; 'I' for Inactive)
REMARK    1  A    between atoms: C_8  and  N_9 
REMARK    2  A    between atoms: C_10  and  S_11 
REMARK    3  A    between atoms: S_11  and  C_12 
REMARK    4  A    between atoms: C_12  and  C_13 
REMARK       I    between atoms: C_13  and  N_14 
REMARK    5  A    between atoms: N_14  and  C_15 
REMARK    6  A    between atoms: C_15  and  C_16 
REMARK    7  A    between atoms: C_16  and  C_17 
REMARK    8  A    between atoms: C_19  and  O_20 
REMARK    9  A    between atoms: C_22  and  O_23 
REMARK   10  A    between atoms: C_31  and  N_32 
ROOT
HETATM    1  N   UNL     1      -5.533   4.279 -32.179  1.00  0.00    -0.275 N 
HETATM    2  C   UNL     1      -5.306   2.971 -31.671  1.00  0.00     0.177 A 
HETATM    3  N   UNL     1      -6.186   2.227 -31.047  1.00  0.00    -0.204 NA
HETATM    4  C   UNL     1      -7.396   2.810 -30.911  1.00  0.00     0.162 A 
HETATM    5  C   UNL     1      -7.812   4.052 -31.309  1.00  0.00     0.081 A 
HETATM    6  C   UNL     1      -6.846   4.877 -31.969  1.00  0.00     0.124 A 
HETATM    7  N   UNL     1      -8.488   2.234 -30.331  1.00  0.00    -0.260 N 
HETATM    8  H   UNL     1      -8.562   1.307 -29.928  1.00  0.00     0.191 HD
HETATM    9  N   UNL     1      -9.571   3.042 -30.328  1.00  0.00    -0.177 NA
HETATM   10  C   UNL     1      -9.160   4.165 -30.938  1.00  0.00     0.068 A 
HETATM   11  C   UNL     1     -10.114   5.283 -31.126  1.00  0.00     0.073 C 
ENDROOT
BRANCH   2  12
HETATM   12  S   UNL     1      -3.714   2.211 -31.869  1.00  0.00    -0.082 SA
BRANCH  12  13
HETATM   13  C   UNL     1      -4.057   0.614 -31.074  1.00  0.00     0.185 C 
BRANCH  13  14
HETATM   14  C   UNL     1      -3.595  -0.561 -31.925  1.00  0.00     0.227 C 
HETATM   15  N   UNL     1      -4.500  -1.121 -32.794  1.00  0.00    -0.360 N 
HETATM   16  H   UNL     1      -4.127  -1.934 -33.276  1.00  0.00     0.162 HD
HETATM   17  O   UNL     1      -2.449  -1.009 -31.912  1.00  0.00    -0.273 OA
BRANCH  15  18
HETATM   18  C   UNL     1      -5.925  -0.859 -32.845  1.00  0.00     0.127 C 
BRANCH  18  19
HETATM   19  C   UNL     1      -6.322   0.121 -33.949  1.00  0.00     0.058 C 
BRANCH  19  20
HETATM   20  C   UNL     1      -7.779   0.492 -33.814  1.00  0.00    -0.054 A 
HETATM   21  C   UNL     1      -8.279   1.647 -34.439  1.00  0.00     0.046 A 
HETATM   22  C   UNL     1      -9.608   2.045 -34.247  1.00  0.00     0.102 A 
HETATM   23  C   UNL     1     -10.452   1.281 -33.417  1.00  0.00     0.101 A 
HETATM   24  C   UNL     1      -9.958   0.120 -32.814  1.00  0.00     0.040 A 
HETATM   25  C   UNL     1      -8.630  -0.269 -33.009  1.00  0.00     0.010 A 
BRANCH  22  26
HETATM   26  O   UNL     1     -10.167   3.171 -34.799  1.00  0.00    -0.353 OA
HETATM   27  C   UNL     1      -9.515   4.413 -34.579  1.00  0.00     0.210 C 
ENDBRANCH  22  26
BRANCH  23  28
HETATM   28  O   UNL     1     -11.735   1.747 -33.266  1.00  0.00    -0.353 OA
HETATM   29  C   UNL     1     -12.790   0.946 -33.778  1.00  0.00     0.210 C 
ENDBRANCH  23  28
ENDBRANCH  19  20
ENDBRANCH  18  19
ENDBRANCH  15  18
ENDBRANCH  13  14
ENDBRANCH  12  13
ENDBRANCH   2  12
BRANCH   1  30
HETATM   30  C   UNL     1      -4.525   4.986 -32.906  1.00  0.00     0.051 A 
HETATM   31  C   UNL     1      -3.576   5.801 -32.243  1.00  0.00    -0.013 A 
HETATM   32  C   UNL     1      -3.648   6.034 -30.754  1.00  0.00     0.052 C 
HETATM   33  C   UNL     1      -2.540   6.377 -33.004  1.00  0.00     0.042 A 
HETATM   34 CL   UNL     1      -1.289   7.318 -32.270  1.00  0.00    -0.084 Cl
HETATM   35  C   UNL     1      -2.468   6.184 -34.386  1.00  0.00     0.024 A 
HETATM   36  C   UNL     1      -3.418   5.401 -35.035  1.00  0.00     0.004 A 
HETATM   37  C   UNL     1      -4.432   4.795 -34.297  1.00  0.00     0.031 A 
ENDBRANCH   1  30
BRANCH   6  38
HETATM   38  N   UNL     1      -7.136   6.110 -32.341  1.00  0.00    -0.384 N 
HETATM   39  H   UNL     1      -7.357   6.339 -33.299  1.00  0.00     0.157 HD
HETATM   40  H   UNL     1      -7.159   6.852 -31.654  1.00  0.00     0.157 HD
ENDBRANCH   6  38
TORSDOF 10
ENDMDL
MODEL 2
REMARK VINA RESULT:      -7.6      3.281      7.265
REMARK  10 active torsions:
REMARK  status: ('A' for Active; 'I' for Inactive)
REMARK    1  A    between atoms: C_8  and  N_9 
REMARK    2  A    between atoms: C_10  and  S_11 
REMARK    3  A    between atoms: S_11  and  C_12 
REMARK    4  A    between atoms: C_12  and  C_13 
REMARK       I    between atoms: C_13  and  N_14 
REMARK    5  A    between atoms: N_14  and  C_15 
REMARK    6  A    between atoms: C_15  and  C_16 
REMARK    7  A    between atoms: C_16  and  C_17 
REMARK    8  A    between atoms: C_19  and  O_20 
REMARK    9  A    between atoms: C_22  and  O_23 
REMARK   10  A    between atoms: C_31  and  N_32 
ROOT
HETATM    1  N   UNL     1      -9.214   1.405 -33.133  1.00  0.00    -0.275 N 
HETATM    2  C   UNL     1      -9.246   2.730 -33.646  1.00  0.00     0.177 A 
HETATM    3  N   UNL     1     -10.298   3.333 -34.145  1.00  0.00    -0.204 NA
HETATM    4  C   UNL     1     -11.416   2.577 -34.138  1.00  0.00     0.162 A 
HETATM    5  C   UNL     1     -11.592   1.289 -33.710  1.00  0.00     0.081 A 
HETATM    6  C   UNL     1     -10.440   0.619 -33.186  1.00  0.00     0.124 A 
HETATM    7  N   UNL     1     -12.644   2.983 -34.570  1.00  0.00    -0.260 N 
HETATM    8  H   UNL     1     -12.903   3.887 -34.948  1.00  0.00     0.191 HD
HETATM    9  N   UNL     1     -13.589   2.024 -34.451  1.00  0.00    -0.177 NA
HETATM   10  C   UNL     1     -12.943   0.976 -33.913  1.00  0.00     0.068 A 
HETATM   11  C   UNL     1     -13.692  -0.269 -33.625  1.00  0.00     0.073 C 
ENDROOT
BRANCH   2  12
HETATM   12  S   UNL     1      -7.771   3.717 -33.635  1.00  0.00    -0.082 SA
BRANCH  12  13
HETATM   13  C   UNL     1      -8.373   5.121 -32.651  1.00  0.00     0.185 C 
BRANCH  13  14
HETATM   14  C   UNL     1      -8.816   4.696 -31.257  1.00  0.00     0.227 C 
HETATM   15  N   UNL     1      -7.936   4.882 -30.218  1.00  0.00    -0.360 N 
HETATM   16  H   UNL     1      -8.288   4.517 -29.338  1.00  0.00     0.162 HD
HETATM   17  O   UNL     1      -9.928   4.239 -31.001  1.00  0.00    -0.273 OA
BRANCH  15  18
HETATM   18  C   UNL     1      -6.535   5.244 -30.325  1.00  0.00     0.127 C 
BRANCH  18  19
HETATM   19  C   UNL     1      -5.588   4.053 -30.177  1.00  0.00     0.058 C 
BRANCH  19  20
HETATM   20  C   UNL     1      -4.350   4.267 -31.013  1.00  0.00    -0.054 A 
HETATM   21  C   UNL     1      -3.593   5.443 -30.875  1.00  0.00     0.046 A 
HETATM   22  C   UNL     1      -2.494   5.688 -31.708  1.00  0.00     0.102 A 
HETATM   23  C   UNL     1      -2.145   4.747 -32.696  1.00  0.00     0.101 A 
HETATM   24  C   UNL     1      -2.887   3.568 -32.818  1.00  0.00     0.040 A 
HETATM   25  C   UNL     1      -3.983   3.333 -31.985  1.00  0.00     0.010 A 
BRANCH  22  26
HETATM   26  O   UNL     1      -1.719   6.820 -31.655  1.00  0.00    -0.353 OA
HETATM   27  C   UNL     1      -2.295   8.041 -32.093  1.00  0.00     0.210 C 
ENDBRANCH  22  26
BRANCH  23  28
HETATM   28  O   UNL     1      -1.067   5.069 -33.483  1.00  0.00    -0.353 OA
HETATM   29  C   UNL     1      -1.314   5.353 -34.853  1.00  0.00     0.210 C 
ENDBRANCH  23  28
ENDBRANCH  19  20
ENDBRANCH  18  19
ENDBRANCH  15  18
ENDBRANCH  13  14
ENDBRANCH  12  13
ENDBRANCH   2  12
BRANCH   1  30
HETATM   30  C   UNL     1      -8.030   0.858 -32.546  1.00  0.00     0.051 A 
HETATM   31  C   UNL     1      -7.083   0.149 -33.325  1.00  0.00    -0.013 A 
HETATM   32  C   UNL     1      -7.331  -0.140 -34.785  1.00  0.00     0.052 C 
HETATM   33  C   UNL     1      -5.885  -0.263 -32.711  1.00  0.00     0.042 A 
HETATM   34 CL   UNL     1      -4.635  -1.060 -33.602  1.00  0.00    -0.084 Cl
HETATM   35  C   UNL     1      -5.647  -0.017 -31.356  1.00  0.00     0.024 A 
HETATM   36  C   UNL     1      -6.592   0.659 -30.591  1.00  0.00     0.004 A 
HETATM   37  C   UNL     1      -7.770   1.105 -31.185  1.00  0.00     0.031 A 
ENDBRANCH   1  30
BRANCH   6  38
HETATM   38  N   UNL     1     -10.497  -0.642 -32.799  1.00  0.00    -0.384 N 
HETATM   39  H   UNL     1     -11.363  -1.160 -32.797  1.00  0.00     0.157 HD
HETATM   40  H   UNL     1      -9.653  -1.120 -32.510  1.00  0.00     0.157 HD
ENDBRANCH   6  38
TORSDOF 10
ENDMDL
MODEL 3
REMARK VINA RESULT:      -7.6      2.812      6.057
REMARK  10 active torsions:
REMARK  status: ('A' for Active; 'I' for Inactive)
REMARK    1  A    between atoms: C_8  and  N_9 
REMARK    2  A    between atoms: C_10  and  S_11 
REMARK    3  A    between atoms: S_11  and  C_12 
REMARK    4  A    between atoms: C_12  and  C_13 
REMARK       I    between atoms: C_13  and  N_14 
REMARK    5  A    between atoms: N_14  and  C_15 
REMARK    6  A    between atoms: C_15  and  C_16 
REMARK    7  A    between atoms: C_16  and  C_17 
REMARK    8  A    between atoms: C_19  and  O_20 
REMARK    9  A    between atoms: C_22  and  O_23 
REMARK   10  A    between atoms: C_31  and  N_32 
ROOT
HETATM    1  N   UNL     1      -5.830   4.986 -32.414  1.00  0.00    -0.275 N 
HETATM    2  C   UNL     1      -5.590   4.727 -31.038  1.00  0.00     0.177 A 
HETATM    3  N   UNL     1      -4.414   4.553 -30.484  1.00  0.00    -0.204 NA
HETATM    4  C   UNL     1      -3.383   4.644 -31.350  1.00  0.00     0.162 A 
HETATM    5  C   UNL     1      -3.399   4.868 -32.700  1.00  0.00     0.081 A 
HETATM    6  C   UNL     1      -4.684   5.034 -33.313  1.00  0.00     0.124 A 
HETATM    7  N   UNL     1      -2.065   4.535 -31.020  1.00  0.00    -0.260 N 
HETATM    8  H   UNL     1      -1.664   4.377 -30.102  1.00  0.00     0.191 HD
HETATM    9  N   UNL     1      -1.242   4.667 -32.084  1.00  0.00    -0.177 NA
HETATM   10  C   UNL     1      -2.063   4.879 -33.125  1.00  0.00     0.068 A 
HETATM   11  C   UNL     1      -1.489   5.087 -34.474  1.00  0.00     0.073 C 
ENDROOT
BRANCH   2  12
HETATM   12  S   UNL     1      -6.955   4.623 -29.908  1.00  0.00    -0.082 SA
BRANCH  12  13
HETATM   13  C   UNL     1      -7.391   2.875 -30.143  1.00  0.00     0.185 C 
BRANCH  13  14
HETATM   14  C   UNL     1      -8.825   2.701 -30.624  1.00  0.00     0.227 C 
HETATM   15  N   UNL     1      -9.182   1.487 -31.160  1.00  0.00    -0.360 N 
HETATM   16  H   UNL     1     -10.136   1.479 -31.508  1.00  0.00     0.162 HD
HETATM   17  O   UNL     1      -9.692   3.567 -30.521  1.00  0.00    -0.273 OA
BRANCH  15  18
HETATM   18  C   UNL     1      -8.286   0.405 -31.521  1.00  0.00     0.127 C 
BRANCH  18  19
HETATM   19  C   UNL     1      -8.457  -0.067 -32.965  1.00  0.00     0.058 C 
BRANCH  19  20
HETATM   20  C   UNL     1      -7.292  -0.937 -33.368  1.00  0.00    -0.054 A 
HETATM   21  C   UNL     1      -5.984  -0.599 -32.982  1.00  0.00     0.046 A 
HETATM   22  C   UNL     1      -4.890  -1.352 -33.425  1.00  0.00     0.102 A 
HETATM   23  C   UNL     1      -5.102  -2.459 -34.269  1.00  0.00     0.101 A 
HETATM   24  C   UNL     1      -6.406  -2.807 -34.636  1.00  0.00     0.040 A 
HETATM   25  C   UNL     1      -7.492  -2.049 -34.191  1.00  0.00     0.010 A 
BRANCH  22  26
HETATM   26  O   UNL     1      -3.581  -1.074 -33.114  1.00  0.00    -0.353 OA
HETATM   27  C   UNL     1      -3.163  -1.266 -31.771  1.00  0.00     0.210 C 
ENDBRANCH  22  26
BRANCH  23  28
HETATM   28  O   UNL     1      -3.978  -3.135 -34.675  1.00  0.00    -0.353 OA
HETATM   29  C   UNL     1      -3.750  -4.424 -34.125  1.00  0.00     0.210 C 
ENDBRANCH  23  28
ENDBRANCH  19  20
ENDBRANCH  18  19
ENDBRANCH  15  18
ENDBRANCH  13  14
ENDBRANCH  12  13
ENDBRANCH   2  12
BRANCH   1  30
HETATM   30  C   UNL     1      -7.148   5.228 -32.912  1.00  0.00     0.051 A 
HETATM   31  C   UNL     1      -7.865   4.228 -33.613  1.00  0.00    -0.013 A 
HETATM   32  C   UNL     1      -7.231   2.900 -33.947  1.00  0.00     0.052 C 
HETATM   33  C   UNL     1      -9.201   4.490 -33.975  1.00  0.00     0.042 A 
HETATM   34 CL   UNL     1     -10.180   3.300 -34.759  1.00  0.00    -0.084 Cl
HETATM   35  C   UNL     1      -9.797   5.721 -33.687  1.00  0.00     0.024 A 
HETATM   36  C   UNL     1      -9.079   6.708 -33.019  1.00  0.00     0.004 A 
HETATM   37  C   UNL     1      -7.768   6.458 -32.622  1.00  0.00     0.031 A 
ENDBRANCH   1  30
BRANCH   6  38
HETATM   38  N   UNL     1      -4.804   5.201 -34.617  1.00  0.00    -0.384 N 
HETATM   39  H   UNL     1      -5.062   4.441 -35.229  1.00  0.00     0.157 HD
HETATM   40  H   UNL     1      -4.654   6.115 -35.025  1.00  0.00     0.157 HD
ENDBRANCH   6  38
TORSDOF 10
ENDMDL
MODEL 4
REMARK VINA RESULT:      -7.6      3.775      7.967
REMARK  10 active torsions:
REMARK  status: ('A' for Active; 'I' for Inactive)
REMARK    1  A    between atoms: C_8  and  N_9 
REMARK    2  A    between atoms: C_10  and  S_11 
REMARK    3  A    between atoms: S_11  and  C_12 
REMARK    4  A    between atoms: C_12  and  C_13 
REMARK       I    between atoms: C_13  and  N_14 
REMARK    5  A    between atoms: N_14  and  C_15 
REMARK    6  A    between atoms: C_15  and  C_16 
REMARK    7  A    between atoms: C_16  and  C_17 
REMARK    8  A    between atoms: C_19  and  O_20 
REMARK    9  A    between atoms: C_22  and  O_23 
REMARK   10  A    between atoms: C_31  and  N_32 
ROOT
HETATM    1  N   UNL     1      -7.734   2.760 -33.382  1.00  0.00    -0.275 N 
HETATM    2  C   UNL     1      -6.920   3.918 -33.496  1.00  0.00     0.177 A 
HETATM    3  N   UNL     1      -7.321   5.102 -33.892  1.00  0.00    -0.204 NA
HETATM    4  C   UNL     1      -8.634   5.160 -34.198  1.00  0.00     0.162 A 
HETATM    5  C   UNL     1      -9.577   4.168 -34.173  1.00  0.00     0.081 A 
HETATM    6  C   UNL     1      -9.137   2.867 -33.764  1.00  0.00     0.124 A 
HETATM    7  N   UNL     1      -9.301   6.279 -34.601  1.00  0.00    -0.260 N 
HETATM    8  H   UNL     1      -8.929   7.213 -34.726  1.00  0.00     0.191 HD
HETATM    9  N   UNL     1     -10.611   6.054 -34.843  1.00  0.00    -0.177 NA
HETATM   10  C   UNL     1     -10.788   4.750 -34.573  1.00  0.00     0.068 A 
HETATM   11  C   UNL     1     -12.136   4.153 -34.718  1.00  0.00     0.073 C 
ENDROOT
BRANCH   2  12
HETATM   12  S   UNL     1      -5.197   3.831 -33.075  1.00  0.00    -0.082 SA
BRANCH  12  13
HETATM   13  C   UNL     1      -4.698   5.510 -33.560  1.00  0.00     0.185 C 
BRANCH  13  14
HETATM   14  C   UNL     1      -3.812   5.509 -34.798  1.00  0.00     0.227 C 
HETATM   15  N   UNL     1      -2.619   6.188 -34.736  1.00  0.00    -0.360 N 
HETATM   16  H   UNL     1      -2.121   6.186 -35.622  1.00  0.00     0.162 HD
HETATM   17  O   UNL     1      -4.081   4.903 -35.834  1.00  0.00    -0.273 OA
BRANCH  15  18
HETATM   18  C   UNL     1      -2.194   7.094 -33.686  1.00  0.00     0.127 C 
BRANCH  18  19
HETATM   19  C   UNL     1      -0.816   6.758 -33.117  1.00  0.00     0.058 C 
BRANCH  19  20
HETATM   20  C   UNL     1      -0.851   6.808 -31.608  1.00  0.00    -0.054 A 
HETATM   21  C   UNL     1      -2.079   6.814 -30.926  1.00  0.00     0.046 A 
HETATM   22  C   UNL     1      -2.122   6.949 -29.532  1.00  0.00     0.102 A 
HETATM   23  C   UNL     1      -0.921   7.081 -28.808  1.00  0.00     0.101 A 
HETATM   24  C   UNL     1       0.301   7.054 -29.487  1.00  0.00     0.040 A 
HETATM   25  C   UNL     1       0.334   6.921 -30.878  1.00  0.00     0.010 A 
BRANCH  22  26
HETATM   26  O   UNL     1      -3.278   6.989 -28.793  1.00  0.00    -0.353 OA
HETATM   27  C   UNL     1      -4.471   7.394 -29.447  1.00  0.00     0.210 C 
ENDBRANCH  22  26
BRANCH  23  28
HETATM   28  O   UNL     1      -1.048   7.227 -27.448  1.00  0.00    -0.353 OA
HETATM   29  C   UNL     1      -0.155   6.494 -26.622  1.00  0.00     0.210 C 
ENDBRANCH  23  28
ENDBRANCH  19  20
ENDBRANCH  18  19
ENDBRANCH  15  18
ENDBRANCH  13  14
ENDBRANCH  12  13
ENDBRANCH   2  12
BRANCH   1  30
HETATM   30  C   UNL     1      -7.217   1.526 -32.875  1.00  0.00     0.051 A 
HETATM   31  C   UNL     1      -6.752   0.511 -33.746  1.00  0.00    -0.013 A 
HETATM   32  C   UNL     1      -6.873   0.649 -35.244  1.00  0.00     0.052 C 
HETATM   33  C   UNL     1      -6.148  -0.630 -33.183  1.00  0.00     0.042 A 
HETATM   34 CL   UNL     1      -5.477  -1.882 -34.168  1.00  0.00    -0.084 Cl
HETATM   35  C   UNL     1      -6.043  -0.780 -31.798  1.00  0.00     0.024 A 
HETATM   36  C   UNL     1      -6.524   0.211 -30.947  1.00  0.00     0.004 A 
HETATM   37  C   UNL     1      -7.094   1.362 -31.483  1.00  0.00     0.031 A 
ENDBRANCH   1  30
BRANCH   6  38
HETATM   38  N   UNL     1      -9.960   1.835 -33.759  1.00  0.00    -0.384 N 
HETATM   39  H   UNL     1      -9.801   1.024 -34.338  1.00  0.00     0.157 HD
HETATM   40  H   UNL     1     -10.768   1.837 -33.150  1.00  0.00     0.157 HD
ENDBRANCH   6  38
TORSDOF 10
ENDMDL
MODEL 5
REMARK VINA RESULT:      -7.6      3.244      7.785
REMARK  10 active torsions:
REMARK  status: ('A' for Active; 'I' for Inactive)
REMARK    1  A    between atoms: C_8  and  N_9 
REMARK    2  A    between atoms: C_10  and  S_11 
REMARK    3  A    between atoms: S_11  and  C_12 
REMARK    4  A    between atoms: C_12  and  C_13 
REMARK       I    between atoms: C_13  and  N_14 
REMARK    5  A    between atoms: N_14  and  C_15 
REMARK    6  A    between atoms: C_15  and  C_16 
REMARK    7  A    between atoms: C_16  and  C_17 
REMARK    8  A    between atoms: C_19  and  O_20 
REMARK    9  A    between atoms: C_22  and  O_23 
REMARK   10  A    between atoms: C_31  and  N_32 
ROOT
HETATM    1  N   UNL     1      -8.959   1.273 -33.240  1.00  0.00    -0.275 N 
HETATM    2  C   UNL     1      -8.819   2.549 -33.849  1.00  0.00     0.177 A 
HETATM    3  N   UNL     1      -9.783   3.244 -34.404  1.00  0.00    -0.204 NA
HETATM    4  C   UNL     1     -10.990   2.641 -34.354  1.00  0.00     0.162 A 
HETATM    5  C   UNL     1     -11.332   1.422 -33.834  1.00  0.00     0.081 A 
HETATM    6  C   UNL     1     -10.276   0.649 -33.249  1.00  0.00     0.124 A 
HETATM    7  N   UNL     1     -12.155   3.168 -34.828  1.00  0.00    -0.260 N 
HETATM    8  H   UNL     1     -12.294   4.067 -35.275  1.00  0.00     0.191 HD
HETATM    9  N   UNL     1     -13.215   2.350 -34.649  1.00  0.00    -0.177 NA
HETATM   10  C   UNL     1     -12.712   1.271 -34.029  1.00  0.00     0.068 A 
HETATM   11  C   UNL     1     -13.616   0.157 -33.658  1.00  0.00     0.073 C 
ENDROOT
BRANCH   2  12
HETATM   12  S   UNL     1      -7.229   3.337 -33.894  1.00  0.00    -0.082 SA
BRANCH  12  13
HETATM   13  C   UNL     1      -7.742   5.041 -33.527  1.00  0.00     0.185 C 
BRANCH  13  14
HETATM   14  C   UNL     1      -7.803   5.310 -32.029  1.00  0.00     0.227 C 
HETATM   15  N   UNL     1      -6.991   6.294 -31.519  1.00  0.00    -0.360 N 
HETATM   16  H   UNL     1      -7.053   6.366 -30.507  1.00  0.00     0.162 HD
HETATM   17  O   UNL     1      -8.567   4.731 -31.259  1.00  0.00    -0.273 OA
BRANCH  15  18
HETATM   18  C   UNL     1      -5.913   6.972 -32.214  1.00  0.00     0.127 C 
BRANCH  18  19
HETATM   19  C   UNL     1      -4.927   7.665 -31.273  1.00  0.00     0.058 C 
BRANCH  19  20
HETATM   20  C   UNL     1      -3.625   6.904 -31.233  1.00  0.00    -0.054 A 
HETATM   21  C   UNL     1      -3.595   5.529 -31.520  1.00  0.00     0.046 A 
HETATM   22  C   UNL     1      -2.407   4.798 -31.399  1.00  0.00     0.102 A 
HETATM   23  C   UNL     1      -1.228   5.448 -30.984  1.00  0.00     0.101 A 
HETATM   24  C   UNL     1      -1.255   6.821 -30.719  1.00  0.00     0.040 A 
HETATM   25  C   UNL     1      -2.445   7.542 -30.840  1.00  0.00     0.010 A 
BRANCH  22  26
HETATM   26  O   UNL     1      -2.299   3.450 -31.636  1.00  0.00    -0.353 OA
HETATM   27  C   UNL     1      -3.422   2.632 -31.344  1.00  0.00     0.210 C 
ENDBRANCH  22  26
BRANCH  23  28
HETATM   28  O   UNL     1      -0.110   4.660 -30.873  1.00  0.00    -0.353 OA
HETATM   29  C   UNL     1       0.734   4.869 -29.750  1.00  0.00     0.210 C 
ENDBRANCH  23  28
ENDBRANCH  19  20
ENDBRANCH  18  19
ENDBRANCH  15  18
ENDBRANCH  13  14
ENDBRANCH  12  13
ENDBRANCH   2  12
BRANCH   1  30
HETATM   30  C   UNL     1      -7.857   0.623 -32.601  1.00  0.00     0.051 A 
HETATM   31  C   UNL     1      -7.020  -0.272 -33.310  1.00  0.00    -0.013 A 
HETATM   32  C   UNL     1      -7.314  -0.651 -34.741  1.00  0.00     0.052 C 
HETATM   33  C   UNL     1      -5.885  -0.789 -32.656  1.00  0.00     0.042 A 
HETATM   34 CL   UNL     1      -4.760  -1.821 -33.467  1.00  0.00    -0.084 Cl
HETATM   35  C   UNL     1      -5.608  -0.460 -31.326  1.00  0.00     0.024 A 
HETATM   36  C   UNL     1      -6.448   0.401 -30.628  1.00  0.00     0.004 A 
HETATM   37  C   UNL     1      -7.557   0.950 -31.265  1.00  0.00     0.031 A 
ENDBRANCH   1  30
BRANCH   6  38
HETATM   38  N   UNL     1     -10.497  -0.561 -32.771  1.00  0.00    -0.384 N 
HETATM   39  H   UNL     1      -9.984  -0.923 -31.981  1.00  0.00     0.157 HD
HETATM   40  H   UNL     1     -11.210  -1.146 -33.188  1.00  0.00     0.157 HD
ENDBRANCH   6  38
TORSDOF 10
ENDMDL
MODEL 6
REMARK VINA RESULT:      -7.5      2.886      5.253
REMARK  10 active torsions:
REMARK  status: ('A' for Active; 'I' for Inactive)
REMARK    1  A    between atoms: C_8  and  N_9 
REMARK    2  A    between atoms: C_10  and  S_11 
REMARK    3  A    between atoms: S_11  and  C_12 
REMARK    4  A    between atoms: C_12  and  C_13 
REMARK       I    between atoms: C_13  and  N_14 
REMARK    5  A    between atoms: N_14  and  C_15 
REMARK    6  A    between atoms: C_15  and  C_16 
REMARK    7  A    between atoms: C_16  and  C_17 
REMARK    8  A    between atoms: C_19  and  O_20 
REMARK    9  A    between atoms: C_22  and  O_23 
REMARK   10  A    between atoms: C_31  and  N_32 
ROOT
HETATM    1  N   UNL     1      -4.639   3.174 -31.639  1.00  0.00    -0.275 N 
HETATM    2  C   UNL     1      -5.385   3.802 -30.605  1.00  0.00     0.177 A 
HETATM    3  N   UNL     1      -5.142   4.984 -30.094  1.00  0.00    -0.204 NA
HETATM    4  C   UNL     1      -4.081   5.611 -30.645  1.00  0.00     0.162 A 
HETATM    5  C   UNL     1      -3.231   5.179 -31.628  1.00  0.00     0.081 A 
HETATM    6  C   UNL     1      -3.479   3.877 -32.171  1.00  0.00     0.124 A 
HETATM    7  N   UNL     1      -3.643   6.859 -30.315  1.00  0.00    -0.260 N 
HETATM    8  H   UNL     1      -4.035   7.494 -29.628  1.00  0.00     0.191 HD
HETATM    9  N   UNL     1      -2.558   7.242 -31.023  1.00  0.00    -0.177 NA
HETATM   10  C   UNL     1      -2.303   6.208 -31.841  1.00  0.00     0.068 A 
HETATM   11  C   UNL     1      -1.168   6.293 -32.789  1.00  0.00     0.073 C 
ENDROOT
BRANCH   2  12
HETATM   12  S   UNL     1      -6.787   2.973 -29.899  1.00  0.00    -0.082 SA
BRANCH  12  13
HETATM   13  C   UNL     1      -8.078   3.584 -31.023  1.00  0.00     0.185 C 
BRANCH  13  14
HETATM   14  C   UNL     1      -9.456   3.048 -30.659  1.00  0.00     0.227 C 
HETATM   15  N   UNL     1      -9.738   1.739 -30.966  1.00  0.00    -0.360 N 
HETATM   16  H   UNL     1     -10.696   1.483 -30.742  1.00  0.00     0.162 HD
HETATM   17  O   UNL     1     -10.312   3.703 -30.069  1.00  0.00    -0.273 OA
BRANCH  15  18
HETATM   18  C   UNL     1      -8.945   0.855 -31.798  1.00  0.00     0.127 C 
BRANCH  18  19
HETATM   19  C   UNL     1      -9.750   0.185 -32.911  1.00  0.00     0.058 C 
BRANCH  19  20
HETATM   20  C   UNL     1     -10.522   1.222 -33.690  1.00  0.00    -0.054 A 
HETATM   21  C   UNL     1      -9.872   2.356 -34.202  1.00  0.00     0.046 A 
HETATM   22  C   UNL     1     -10.596   3.365 -34.849  1.00  0.00     0.102 A 
HETATM   23  C   UNL     1     -11.992   3.241 -34.986  1.00  0.00     0.101 A 
HETATM   24  C   UNL     1     -12.635   2.101 -34.495  1.00  0.00     0.040 A 
HETATM   25  C   UNL     1     -11.905   1.101 -33.848  1.00  0.00     0.010 A 
BRANCH  22  26
HETATM   26  O   UNL     1     -10.042   4.515 -35.355  1.00  0.00    -0.353 OA
HETATM   27  C   UNL     1      -9.446   5.423 -34.440  1.00  0.00     0.210 C 
ENDBRANCH  22  26
BRANCH  23  28
HETATM   28  O   UNL     1     -12.633   4.280 -35.617  1.00  0.00    -0.353 OA
HETATM   29  C   UNL     1     -13.215   5.286 -34.801  1.00  0.00     0.210 C 
ENDBRANCH  23  28
ENDBRANCH  19  20
ENDBRANCH  18  19
ENDBRANCH  15  18
ENDBRANCH  13  14
ENDBRANCH  12  13
ENDBRANCH   2  12
BRANCH   1  30
HETATM   30  C   UNL     1      -5.025   1.906 -32.177  1.00  0.00     0.051 A 
HETATM   31  C   UNL     1      -5.799   1.814 -33.359  1.00  0.00    -0.013 A 
HETATM   32  C   UNL     1      -6.330   3.048 -34.045  1.00  0.00     0.052 C 
HETATM   33  C   UNL     1      -6.046   0.537 -33.900  1.00  0.00     0.042 A 
HETATM   34 CL   UNL     1      -6.910   0.330 -35.383  1.00  0.00    -0.084 Cl
HETATM   35  C   UNL     1      -5.574  -0.617 -33.268  1.00  0.00     0.024 A 
HETATM   36  C   UNL     1      -4.834  -0.520 -32.094  1.00  0.00     0.004 A 
HETATM   37  C   UNL     1      -4.549   0.734 -31.560  1.00  0.00     0.031 A 
ENDBRANCH   1  30
BRANCH   6  38
HETATM   38  N   UNL     1      -2.682   3.352 -33.083  1.00  0.00    -0.384 N 
HETATM   39  H   UNL     1      -1.682   3.312 -32.957  1.00  0.00     0.157 HD
HETATM   40  H   UNL     1      -3.074   2.960 -33.930  1.00  0.00     0.157 HD
ENDBRANCH   6  38
TORSDOF 10
ENDMDL
MODEL 7
REMARK VINA RESULT:      -7.4      2.948      6.266
REMARK  10 active torsions:
REMARK  status: ('A' for Active; 'I' for Inactive)
REMARK    1  A    between atoms: C_8  and  N_9 
REMARK    2  A    between atoms: C_10  and  S_11 
REMARK    3  A    between atoms: S_11  and  C_12 
REMARK    4  A    between atoms: C_12  and  C_13 
REMARK       I    between atoms: C_13  and  N_14 
REMARK    5  A    between atoms: N_14  and  C_15 
REMARK    6  A    between atoms: C_15  and  C_16 
REMARK    7  A    between atoms: C_16  and  C_17 
REMARK    8  A    between atoms: C_19  and  O_20 
REMARK    9  A    between atoms: C_22  and  O_23 
REMARK   10  A    between atoms: C_31  and  N_32 
ROOT
HETATM    1  N   UNL     1      -5.768   5.885 -31.922  1.00  0.00    -0.275 N 
HETATM    2  C   UNL     1      -6.467   5.351 -33.038  1.00  0.00     0.177 A 
HETATM    3  N   UNL     1      -5.940   5.049 -34.201  1.00  0.00    -0.204 NA
HETATM    4  C   UNL     1      -4.613   5.288 -34.278  1.00  0.00     0.162 A 
HETATM    5  C   UNL     1      -3.768   5.808 -33.336  1.00  0.00     0.081 A 
HETATM    6  C   UNL     1      -4.344   6.161 -32.073  1.00  0.00     0.124 A 
HETATM    7  N   UNL     1      -3.828   5.030 -35.362  1.00  0.00    -0.260 N 
HETATM    8  H   UNL     1      -4.106   4.629 -36.250  1.00  0.00     0.191 HD
HETATM    9  N   UNL     1      -2.533   5.366 -35.168  1.00  0.00    -0.177 NA
HETATM   10  C   UNL     1      -2.491   5.842 -33.913  1.00  0.00     0.068 A 
HETATM   11  C   UNL     1      -1.197   6.297 -33.351  1.00  0.00     0.073 C 
ENDROOT
BRANCH   2  12
HETATM   12  S   UNL     1      -8.208   5.029 -32.918  1.00  0.00    -0.082 SA
BRANCH  12  13
HETATM   13  C   UNL     1      -8.195   3.244 -33.258  1.00  0.00     0.185 C 
BRANCH  13  14
HETATM   14  C   UNL     1      -9.312   2.832 -34.207  1.00  0.00     0.227 C 
HETATM   15  N   UNL     1      -9.478   1.493 -34.462  1.00  0.00    -0.360 N 
HETATM   16  H   UNL     1     -10.205   1.313 -35.149  1.00  0.00     0.162 HD
HETATM   17  O   UNL     1     -10.100   3.623 -34.722  1.00  0.00    -0.273 OA
BRANCH  15  18
HETATM   18  C   UNL     1      -8.569   0.423 -34.097  1.00  0.00     0.127 C 
BRANCH  18  19
HETATM   19  C   UNL     1      -7.682  -0.040 -35.252  1.00  0.00     0.058 C 
BRANCH  19  20
HETATM   20  C   UNL     1      -6.637  -1.006 -34.750  1.00  0.00    -0.054 A 
HETATM   21  C   UNL     1      -5.609  -0.563 -33.902  1.00  0.00     0.046 A 
HETATM   22  C   UNL     1      -4.586  -1.432 -33.502  1.00  0.00     0.102 A 
HETATM   23  C   UNL     1      -4.587  -2.765 -33.957  1.00  0.00     0.101 A 
HETATM   24  C   UNL     1      -5.623  -3.210 -34.784  1.00  0.00     0.040 A 
HETATM   25  C   UNL     1      -6.638  -2.335 -35.179  1.00  0.00     0.010 A 
BRANCH  22  26
HETATM   26  O   UNL     1      -3.533  -1.072 -32.696  1.00  0.00    -0.353 OA
HETATM   27  C   UNL     1      -3.351   0.308 -32.419  1.00  0.00     0.210 C 
ENDBRANCH  22  26
BRANCH  23  28
HETATM   28  O   UNL     1      -3.542  -3.549 -33.535  1.00  0.00    -0.353 OA
HETATM   29  C   UNL     1      -3.780  -4.942 -33.392  1.00  0.00     0.210 C 
ENDBRANCH  23  28
ENDBRANCH  19  20
ENDBRANCH  18  19
ENDBRANCH  15  18
ENDBRANCH  13  14
ENDBRANCH  12  13
ENDBRANCH   2  12
BRANCH   1  30
HETATM   30  C   UNL     1      -6.420   6.118 -30.671  1.00  0.00     0.051 A 
HETATM   31  C   UNL     1      -7.052   7.354 -30.391  1.00  0.00    -0.013 A 
HETATM   32  C   UNL     1      -6.981   8.508 -31.362  1.00  0.00     0.052 C 
HETATM   33  C   UNL     1      -7.776   7.479 -29.189  1.00  0.00     0.042 A 
HETATM   34 CL   UNL     1      -8.649   8.919 -28.800  1.00  0.00    -0.084 Cl
HETATM   35  C   UNL     1      -7.839   6.425 -28.273  1.00  0.00     0.024 A 
HETATM   36  C   UNL     1      -7.195   5.222 -28.544  1.00  0.00     0.004 A 
HETATM   37  C   UNL     1      -6.502   5.065 -29.741  1.00  0.00     0.031 A 
ENDBRANCH   1  30
BRANCH   6  38
HETATM   38  N   UNL     1      -3.621   6.720 -31.121  1.00  0.00    -0.384 N 
HETATM   39  H   UNL     1      -2.613   6.673 -31.121  1.00  0.00     0.157 HD
HETATM   40  H   UNL     1      -4.076   7.228 -30.373  1.00  0.00     0.157 HD
ENDBRANCH   6  38
TORSDOF 10
ENDMDL
MODEL 8
REMARK VINA RESULT:      -7.3      1.759      2.793
REMARK  10 active torsions:
REMARK  status: ('A' for Active; 'I' for Inactive)
REMARK    1  A    between atoms: C_8  and  N_9 
REMARK    2  A    between atoms: C_10  and  S_11 
REMARK    3  A    between atoms: S_11  and  C_12 
REMARK    4  A    between atoms: C_12  and  C_13 
REMARK       I    between atoms: C_13  and  N_14 
REMARK    5  A    between atoms: N_14  and  C_15 
REMARK    6  A    between atoms: C_15  and  C_16 
REMARK    7  A    between atoms: C_16  and  C_17 
REMARK    8  A    between atoms: C_19  and  O_20 
REMARK    9  A    between atoms: C_22  and  O_23 
REMARK   10  A    between atoms: C_31  and  N_32 
ROOT
HETATM    1  N   UNL     1      -5.915   3.446 -31.503  1.00  0.00    -0.275 N 
HETATM    2  C   UNL     1      -6.290   2.082 -31.374  1.00  0.00     0.177 A 
HETATM    3  N   UNL     1      -7.475   1.642 -31.026  1.00  0.00    -0.204 NA
HETATM    4  C   UNL     1      -8.373   2.622 -30.786  1.00  0.00     0.162 A 
HETATM    5  C   UNL     1      -8.211   3.980 -30.837  1.00  0.00     0.081 A 
HETATM    6  C   UNL     1      -6.911   4.464 -31.194  1.00  0.00     0.124 A 
HETATM    7  N   UNL     1      -9.678   2.428 -30.442  1.00  0.00    -0.260 N 
HETATM    8  H   UNL     1     -10.164   1.547 -30.319  1.00  0.00     0.191 HD
HETATM    9  N   UNL     1     -10.353   3.584 -30.260  1.00  0.00    -0.177 NA
HETATM   10  C   UNL     1      -9.451   4.547 -30.510  1.00  0.00     0.068 A 
HETATM   11  C   UNL     1      -9.860   5.968 -30.419  1.00  0.00     0.073 C 
ENDROOT
BRANCH   2  12
HETATM   12  S   UNL     1      -5.103   0.804 -31.706  1.00  0.00    -0.082 SA
BRANCH  12  13
HETATM   13  C   UNL     1      -5.517   0.472 -33.445  1.00  0.00     0.185 C 
BRANCH  13  14
HETATM   14  C   UNL     1      -5.962  -0.967 -33.663  1.00  0.00     0.227 C 
HETATM   15  N   UNL     1      -7.311  -1.219 -33.739  1.00  0.00    -0.360 N 
HETATM   16  H   UNL     1      -7.519  -2.210 -33.825  1.00  0.00     0.162 HD
HETATM   17  O   UNL     1      -5.187  -1.909 -33.819  1.00  0.00    -0.273 OA
BRANCH  15  18
HETATM   18  C   UNL     1      -8.382  -0.295 -33.419  1.00  0.00     0.127 C 
BRANCH  18  19
HETATM   19  C   UNL     1      -8.754   0.627 -34.581  1.00  0.00     0.058 C 
BRANCH  19  20
HETATM   20  C   UNL     1      -9.873   1.554 -34.171  1.00  0.00    -0.054 A 
HETATM   21  C   UNL     1     -11.132   1.037 -33.822  1.00  0.00     0.046 A 
HETATM   22  C   UNL     1     -12.199   1.894 -33.525  1.00  0.00     0.102 A 
HETATM   23  C   UNL     1     -12.009   3.288 -33.579  1.00  0.00     0.101 A 
HETATM   24  C   UNL     1     -10.750   3.800 -33.906  1.00  0.00     0.040 A 
HETATM   25  C   UNL     1      -9.691   2.938 -34.203  1.00  0.00     0.010 A 
BRANCH  22  26
HETATM   26  O   UNL     1     -13.465   1.471 -33.200  1.00  0.00    -0.353 OA
HETATM   27  C   UNL     1     -13.969   0.318 -33.858  1.00  0.00     0.210 C 
ENDBRANCH  22  26
BRANCH  23  28
HETATM   28  O   UNL     1     -13.108   4.060 -33.293  1.00  0.00    -0.353 OA
HETATM   29  C   UNL     1     -13.019   4.947 -32.188  1.00  0.00     0.210 C 
ENDBRANCH  23  28
ENDBRANCH  19  20
ENDBRANCH  18  19
ENDBRANCH  15  18
ENDBRANCH  13  14
ENDBRANCH  12  13
ENDBRANCH   2  12
BRANCH   1  30
HETATM   30  C   UNL     1      -4.612   3.825 -31.956  1.00  0.00     0.051 A 
HETATM   31  C   UNL     1      -4.386   4.221 -33.297  1.00  0.00    -0.013 A 
HETATM   32  C   UNL     1      -5.489   4.166 -34.325  1.00  0.00     0.052 C 
HETATM   33  C   UNL     1      -3.107   4.693 -33.649  1.00  0.00     0.042 A 
HETATM   34 CL   UNL     1      -2.760   5.276 -35.239  1.00  0.00    -0.084 Cl
HETATM   35  C   UNL     1      -2.071   4.735 -32.712  1.00  0.00     0.024 A 
HETATM   36  C   UNL     1      -2.294   4.323 -31.402  1.00  0.00     0.004 A 
HETATM   37  C   UNL     1      -3.559   3.884 -31.023  1.00  0.00     0.031 A 
ENDBRANCH   1  30
BRANCH   6  38
HETATM   38  N   UNL     1      -6.643   5.756 -31.216  1.00  0.00    -0.384 N 
HETATM   39  H   UNL     1      -7.361   6.446 -31.378  1.00  0.00     0.157 HD
HETATM   40  H   UNL     1      -5.698   6.078 -31.051  1.00  0.00     0.157 HD
ENDBRANCH   6  38
TORSDOF 10
ENDMDL
MODEL 9
REMARK VINA RESULT:      -7.2      2.366      4.712
REMARK  10 active torsions:
REMARK  status: ('A' for Active; 'I' for Inactive)
REMARK    1  A    between atoms: C_8  and  N_9 
REMARK    2  A    between atoms: C_10  and  S_11 
REMARK    3  A    between atoms: S_11  and  C_12 
REMARK    4  A    between atoms: C_12  and  C_13 
REMARK       I    between atoms: C_13  and  N_14 
REMARK    5  A    between atoms: N_14  and  C_15 
REMARK    6  A    between atoms: C_15  and  C_16 
REMARK    7  A    between atoms: C_16  and  C_17 
REMARK    8  A    between atoms: C_19  and  O_20 
REMARK    9  A    between atoms: C_22  and  O_23 
REMARK   10  A    between atoms: C_31  and  N_32 
ROOT
HETATM    1  N   UNL     1      -3.979   4.526 -31.509  1.00  0.00    -0.275 N 
HETATM    2  C   UNL     1      -5.013   5.055 -30.690  1.00  0.00     0.177 A 
HETATM    3  N   UNL     1      -5.877   4.353 -29.996  1.00  0.00    -0.204 NA
HETATM    4  C   UNL     1      -5.712   3.018 -30.110  1.00  0.00     0.162 A 
HETATM    5  C   UNL     1      -4.801   2.314 -30.849  1.00  0.00     0.081 A 
HETATM    6  C   UNL     1      -3.872   3.077 -31.628  1.00  0.00     0.124 A 
HETATM    7  N   UNL     1      -6.457   2.075 -29.465  1.00  0.00    -0.260 N 
HETATM    8  H   UNL     1      -7.223   2.222 -28.818  1.00  0.00     0.191 HD
HETATM    9  N   UNL     1      -6.079   0.811 -29.760  1.00  0.00    -0.177 NA
HETATM   10  C   UNL     1      -5.050   0.955 -30.611  1.00  0.00     0.068 A 
HETATM   11  C   UNL     1      -4.368  -0.251 -31.138  1.00  0.00     0.073 C 
ENDROOT
BRANCH   2  12
HETATM   12  S   UNL     1      -5.209   6.813 -30.539  1.00  0.00    -0.082 SA
BRANCH  12  13
HETATM   13  C   UNL     1      -7.021   6.909 -30.627  1.00  0.00     0.185 C 
BRANCH  13  14
HETATM   14  C   UNL     1      -7.496   7.672 -31.856  1.00  0.00     0.227 C 
HETATM   15  N   UNL     1      -8.139   6.966 -32.843  1.00  0.00    -0.360 N 
HETATM   16  H   UNL     1      -8.368   7.540 -33.650  1.00  0.00     0.162 HD
HETATM   17  O   UNL     1      -7.376   8.888 -31.997  1.00  0.00    -0.273 OA
BRANCH  15  18
HETATM   18  C   UNL     1      -8.235   5.522 -32.952  1.00  0.00     0.127 C 
BRANCH  18  19
HETATM   19  C   UNL     1      -7.031   4.886 -33.647  1.00  0.00     0.058 C 
BRANCH  19  20
HETATM   20  C   UNL     1      -7.172   3.383 -33.656  1.00  0.00    -0.054 A 
HETATM   21  C   UNL     1      -8.270   2.768 -33.033  1.00  0.00     0.046 A 
HETATM   22  C   UNL     1      -8.362   1.372 -32.961  1.00  0.00     0.102 A 
HETATM   23  C   UNL     1      -7.342   0.577 -33.517  1.00  0.00     0.101 A 
HETATM   24  C   UNL     1      -6.260   1.191 -34.155  1.00  0.00     0.040 A 
HETATM   25  C   UNL     1      -6.174   2.584 -34.221  1.00  0.00     0.010 A 
BRANCH  22  26
HETATM   26  O   UNL     1      -9.388   0.694 -32.350  1.00  0.00    -0.353 OA
HETATM   27  C   UNL     1     -10.575   0.473 -33.096  1.00  0.00     0.210 C 
ENDBRANCH  22  26
BRANCH  23  28
HETATM   28  O   UNL     1      -7.496  -0.782 -33.390  1.00  0.00    -0.353 OA
HETATM   29  C   UNL     1      -6.545  -1.615 -34.037  1.00  0.00     0.210 C 
ENDBRANCH  23  28
ENDBRANCH  19  20
ENDBRANCH  18  19
ENDBRANCH  15  18
ENDBRANCH  13  14
ENDBRANCH  12  13
ENDBRANCH   2  12
BRANCH   1  30
HETATM   30  C   UNL     1      -3.042   5.376 -32.176  1.00  0.00     0.051 A 
HETATM   31  C   UNL     1      -1.866   5.824 -31.527  1.00  0.00    -0.013 A 
HETATM   32  C   UNL     1      -1.600   5.502 -30.077  1.00  0.00     0.052 C 
HETATM   33  C   UNL     1      -0.929   6.563 -32.276  1.00  0.00     0.042 A 
HETATM   34 CL   UNL     1       0.573   7.080 -31.593  1.00  0.00    -0.084 Cl
HETATM   35  C   UNL     1      -1.167   6.882 -33.615  1.00  0.00     0.024 A 
HETATM   36  C   UNL     1      -2.336   6.459 -34.239  1.00  0.00     0.004 A 
HETATM   37  C   UNL     1      -3.261   5.699 -33.528  1.00  0.00     0.031 A 
ENDBRANCH   1  30
BRANCH   6  38
HETATM   38  N   UNL     1      -2.991   2.488 -32.415  1.00  0.00    -0.384 N 
HETATM   39  H   UNL     1      -1.998   2.567 -32.256  1.00  0.00     0.157 HD
HETATM   40  H   UNL     1      -3.308   1.924 -33.194  1.00  0.00     0.157 HD
ENDBRANCH   6  38
TORSDOF 10
ENDMDL
MODEL 10
REMARK VINA RESULT:      -7.2      3.277      6.173
REMARK  10 active torsions:
REMARK  status: ('A' for Active; 'I' for Inactive)
REMARK    1  A    between atoms: C_8  and  N_9 
REMARK    2  A    between atoms: C_10  and  S_11 
REMARK    3  A    between atoms: S_11  and  C_12 
REMARK    4  A    between atoms: C_12  and  C_13 
REMARK       I    between atoms: C_13  and  N_14 
REMARK    5  A    between atoms: N_14  and  C_15 
REMARK    6  A    between atoms: C_15  and  C_16 
REMARK    7  A    between atoms: C_16  and  C_17 
REMARK    8  A    between atoms: C_19  and  O_20 
REMARK    9  A    between atoms: C_22  and  O_23 
REMARK   10  A    between atoms: C_31  and  N_32 
ROOT
HETATM    1  N   UNL     1      -8.879   1.343 -33.275  1.00  0.00    -0.275 N 
HETATM    2  C   UNL     1      -8.677   2.616 -33.871  1.00  0.00     0.177 A 
HETATM    3  N   UNL     1      -9.612   3.384 -34.378  1.00  0.00    -0.204 NA
HETATM    4  C   UNL     1     -10.854   2.862 -34.289  1.00  0.00     0.162 A 
HETATM    5  C   UNL     1     -11.257   1.659 -33.774  1.00  0.00     0.081 A 
HETATM    6  C   UNL     1     -10.235   0.808 -33.242  1.00  0.00     0.124 A 
HETATM    7  N   UNL     1     -11.998   3.473 -34.710  1.00  0.00    -0.260 N 
HETATM    8  H   UNL     1     -12.093   4.387 -35.138  1.00  0.00     0.191 HD
HETATM    9  N   UNL     1     -13.104   2.725 -34.502  1.00  0.00    -0.177 NA
HETATM   10  C   UNL     1     -12.651   1.605 -33.917  1.00  0.00     0.068 A 
HETATM   11  C   UNL     1     -13.613   0.547 -33.527  1.00  0.00     0.073 C 
ENDROOT
BRANCH   2  12
HETATM   12  S   UNL     1      -7.040   3.297 -33.967  1.00  0.00    -0.082 SA
BRANCH  12  13
HETATM   13  C   UNL     1      -7.372   4.943 -33.273  1.00  0.00     0.185 C 
BRANCH  13  14
HETATM   14  C   UNL     1      -6.135   5.554 -32.630  1.00  0.00     0.227 C 
HETATM   15  N   UNL     1      -5.808   5.153 -31.357  1.00  0.00    -0.360 N 
HETATM   16  H   UNL     1      -5.006   5.653 -30.984  1.00  0.00     0.162 HD
HETATM   17  O   UNL     1      -5.389   6.350 -33.197  1.00  0.00    -0.273 OA
BRANCH  15  18
HETATM   18  C   UNL     1      -6.631   4.365 -30.460  1.00  0.00     0.127 C 
BRANCH  18  19
HETATM   19  C   UNL     1      -7.548   5.212 -29.577  1.00  0.00     0.058 C 
BRANCH  19  20
HETATM   20  C   UNL     1      -8.966   5.152 -30.094  1.00  0.00    -0.054 A 
HETATM   21  C   UNL     1      -9.750   6.316 -30.155  1.00  0.00     0.046 A 
HETATM   22  C   UNL     1     -11.092   6.254 -30.549  1.00  0.00     0.102 A 
HETATM   23  C   UNL     1     -11.663   5.012 -30.887  1.00  0.00     0.101 A 
HETATM   24  C   UNL     1     -10.875   3.858 -30.845  1.00  0.00     0.040 A 
HETATM   25  C   UNL     1      -9.537   3.928 -30.448  1.00  0.00     0.010 A 
BRANCH  22  26
HETATM   26  O   UNL     1     -11.932   7.339 -30.612  1.00  0.00    -0.353 OA
HETATM   27  C   UNL     1     -12.294   7.970 -29.393  1.00  0.00     0.210 C 
ENDBRANCH  22  26
BRANCH  23  28
HETATM   28  O   UNL     1     -12.988   5.032 -31.246  1.00  0.00    -0.353 OA
HETATM   29  C   UNL     1     -13.732   3.833 -31.085  1.00  0.00     0.210 C 
ENDBRANCH  23  28
ENDBRANCH  19  20
ENDBRANCH  18  19
ENDBRANCH  15  18
ENDBRANCH  13  14
ENDBRANCH  12  13
ENDBRANCH   2  12
BRANCH   1  30
HETATM   30  C   UNL     1      -7.800   0.610 -32.689  1.00  0.00     0.051 A 
HETATM   31  C   UNL     1      -6.998  -0.262 -33.465  1.00  0.00    -0.013 A 
HETATM   32  C   UNL     1      -7.308  -0.527 -34.917  1.00  0.00     0.052 C 
HETATM   33  C   UNL     1      -5.880  -0.864 -32.854  1.00  0.00     0.042 A 
HETATM   34 CL   UNL     1      -4.796  -1.877 -33.742  1.00  0.00    -0.084 Cl
HETATM   35  C   UNL     1      -5.589  -0.641 -31.506  1.00  0.00     0.024 A 
HETATM   36  C   UNL     1      -6.395   0.198 -30.744  1.00  0.00     0.004 A 
HETATM   37  C   UNL     1      -7.486   0.830 -31.335  1.00  0.00     0.031 A 
ENDBRANCH   1  30
BRANCH   6  38
HETATM   38  N   UNL     1     -10.518  -0.392 -32.773  1.00  0.00    -0.384 N 
HETATM   39  H   UNL     1     -11.283  -0.548 -32.133  1.00  0.00     0.157 HD
HETATM   40  H   UNL     1      -9.973  -1.192 -33.069  1.00  0.00     0.157 HD
ENDBRANCH   6  38
TORSDOF 10
ENDMDL
