MODEL 1
REMARK VINA RESULT:      -9.1      0.000      0.000
REMARK  6 active torsions:
REMARK  status: ('A' for Active; 'I' for Inactive)
REMARK    1  A    between atoms: C_4  and  N_5 
REMARK       I    between atoms: N_5  and  C_6 
REMARK       I    between atoms: C_6  and  N_7 
REMARK    2  A    between atoms: N_7  and  C_8 
REMARK    3  A    between atoms: C_11  and  C_12 
REMARK    4  A    between atoms: C_12  and  C_13 
REMARK       I    between atoms: C_13  and  N_14 
REMARK    5  A    between atoms: N_14  and  C_15 
REMARK    6  A    between atoms: C_17  and  C_18 
ROOT
HETATM    1  C   UNL     1      -8.680   4.485 -33.993  1.00  0.00     0.174 A 
HETATM    2  S   UNL     1      -9.933   5.170 -34.924  1.00  0.00    -0.062 SA
HETATM    3  C   UNL     1     -10.889   3.772 -34.631  1.00  0.00     0.081 A 
HETATM    4  C   UNL     1     -10.191   2.884 -33.833  1.00  0.00     0.052 A 
HETATM    5  N   UNL     1      -8.920   3.309 -33.478  1.00  0.00    -0.228 NA
ENDROOT
BRANCH   4   6
HETATM    6  C   UNL     1     -10.652   1.561 -33.318  1.00  0.00     0.163 C 
BRANCH   6   7
HETATM    7  C   UNL     1      -9.505   0.618 -32.982  1.00  0.00     0.227 C 
HETATM    8  N   UNL     1      -8.640   0.376 -34.036  1.00  0.00    -0.327 N 
HETATM    9  H   UNL     1      -8.933   0.745 -34.946  1.00  0.00     0.169 HD
HETATM   10  O   UNL     1      -9.384   0.184 -31.838  1.00  0.00    -0.273 OA
BRANCH   8  11
HETATM   11  C   UNL     1      -7.469  -0.404 -34.031  1.00  0.00     0.035 A 
HETATM   12  C   UNL     1      -7.399  -1.710 -34.525  1.00  0.00     0.048 A 
HETATM   13  C   UNL     1      -6.194  -2.434 -34.480  1.00  0.00     0.088 A 
HETATM   14  C   UNL     1      -5.062  -1.821 -33.951  1.00  0.00     0.131 A 
HETATM   15  F   UNL     1      -3.898  -2.481 -33.912  1.00  0.00    -0.205 F 
HETATM   16  C   UNL     1      -5.115  -0.525 -33.452  1.00  0.00     0.045 A 
HETATM   17  C   UNL     1      -6.319   0.179 -33.483  1.00  0.00     0.032 A 
BRANCH  13  18
HETATM   18  C   UNL     1      -6.093  -3.839 -34.988  1.00  0.00     0.420 C 
HETATM   19  F   UNL     1      -7.305  -4.413 -35.242  1.00  0.00    -0.166 F 
HETATM   20  F   UNL     1      -5.397  -3.931 -36.155  1.00  0.00    -0.166 F 
HETATM   21  F   UNL     1      -5.476  -4.680 -34.111  1.00  0.00    -0.166 F 
ENDBRANCH  13  18
ENDBRANCH   8  11
ENDBRANCH   6   7
ENDBRANCH   4   6
BRANCH   1  22
HETATM   22  N   UNL     1      -7.569   5.267 -33.857  1.00  0.00    -0.287 N 
HETATM   23  C   UNL     1      -6.297   4.735 -33.941  1.00  0.00     0.326 C 
HETATM   24  N   UNL     1      -5.356   5.664 -33.514  1.00  0.00    -0.309 N 
HETATM   25  O   UNL     1      -6.043   3.602 -34.332  1.00  0.00    -0.247 OA
HETATM   26  H   UNL     1      -5.720   6.501 -33.088  1.00  0.00     0.170 HD
HETATM   27  H   UNL     1      -7.712   6.261 -33.817  1.00  0.00     0.172 HD
BRANCH  24  28
HETATM   28  C   UNL     1      -3.957   5.499 -33.434  1.00  0.00     0.036 A 
HETATM   29  C   UNL     1      -3.274   5.151 -32.267  1.00  0.00     0.029 A 
HETATM   30  C   UNL     1      -1.880   5.025 -32.272  1.00  0.00     0.002 A 
HETATM   31  C   UNL     1      -1.158   5.243 -33.442  1.00  0.00     0.000 A 
HETATM   32  C   UNL     1      -1.830   5.581 -34.613  1.00  0.00     0.002 A 
HETATM   33  C   UNL     1      -3.222   5.706 -34.609  1.00  0.00     0.029 A 
ENDBRANCH  24  28
ENDBRANCH   1  22
TORSDOF 6
ENDMDL
MODEL 2
REMARK VINA RESULT:      -9.0      2.566      6.400
REMARK  6 active torsions:
REMARK  status: ('A' for Active; 'I' for Inactive)
REMARK    1  A    between atoms: C_4  and  N_5 
REMARK       I    between atoms: N_5  and  C_6 
REMARK       I    between atoms: C_6  and  N_7 
REMARK    2  A    between atoms: N_7  and  C_8 
REMARK    3  A    between atoms: C_11  and  C_12 
REMARK    4  A    between atoms: C_12  and  C_13 
REMARK       I    between atoms: C_13  and  N_14 
REMARK    5  A    between atoms: N_14  and  C_15 
REMARK    6  A    between atoms: C_17  and  C_18 
ROOT
HETATM    1  C   UNL     1      -7.982   3.249 -33.448  1.00  0.00     0.174 A 
HETATM    2  S   UNL     1      -7.206   4.745 -33.709  1.00  0.00    -0.062 SA
HETATM    3  C   UNL     1      -5.882   4.202 -32.756  1.00  0.00     0.081 A 
HETATM    4  C   UNL     1      -6.119   2.913 -32.314  1.00  0.00     0.052 A 
HETATM    5  N   UNL     1      -7.334   2.381 -32.719  1.00  0.00    -0.228 NA
ENDROOT
BRANCH   4   6
HETATM    6  C   UNL     1      -5.225   2.053 -31.482  1.00  0.00     0.163 C 
BRANCH   6   7
HETATM    7  C   UNL     1      -5.424   0.564 -31.735  1.00  0.00     0.227 C 
HETATM    8  N   UNL     1      -5.248   0.183 -33.054  1.00  0.00    -0.327 N 
HETATM    9  H   UNL     1      -5.135   0.948 -33.728  1.00  0.00     0.169 HD
HETATM   10  O   UNL     1      -5.668  -0.189 -30.795  1.00  0.00    -0.273 OA
BRANCH   8  11
HETATM   11  C   UNL     1      -5.314  -1.114 -33.595  1.00  0.00     0.035 A 
HETATM   12  C   UNL     1      -4.420  -2.141 -33.275  1.00  0.00     0.048 A 
HETATM   13  C   UNL     1      -4.545  -3.413 -33.862  1.00  0.00     0.088 A 
HETATM   14  C   UNL     1      -5.587  -3.641 -34.755  1.00  0.00     0.131 A 
HETATM   15  F   UNL     1      -5.739  -4.849 -35.315  1.00  0.00    -0.205 F 
HETATM   16  C   UNL     1      -6.482  -2.632 -35.087  1.00  0.00     0.045 A 
HETATM   17  C   UNL     1      -6.340  -1.367 -34.515  1.00  0.00     0.032 A 
BRANCH  13  18
HETATM   18  C   UNL     1      -3.593  -4.526 -33.549  1.00  0.00     0.420 C 
HETATM   19  F   UNL     1      -4.212  -5.671 -33.138  1.00  0.00    -0.166 F 
HETATM   20  F   UNL     1      -2.833  -4.888 -34.621  1.00  0.00    -0.166 F 
HETATM   21  F   UNL     1      -2.718  -4.214 -32.553  1.00  0.00    -0.166 F 
ENDBRANCH  13  18
ENDBRANCH   8  11
ENDBRANCH   6   7
ENDBRANCH   4   6
BRANCH   1  22
HETATM   22  N   UNL     1      -9.191   3.112 -34.068  1.00  0.00    -0.287 N 
HETATM   23  C   UNL     1     -10.346   2.864 -33.352  1.00  0.00     0.326 C 
HETATM   24  N   UNL     1     -11.379   2.508 -34.210  1.00  0.00    -0.309 N 
HETATM   25  O   UNL     1     -10.438   2.946 -32.133  1.00  0.00    -0.247 OA
HETATM   26  H   UNL     1     -11.122   2.346 -35.170  1.00  0.00     0.170 HD
HETATM   27  H   UNL     1      -9.227   3.318 -35.052  1.00  0.00     0.172 HD
BRANCH  24  28
HETATM   28  C   UNL     1     -12.705   2.164 -33.867  1.00  0.00     0.036 A 
HETATM   29  C   UNL     1     -13.462   2.829 -32.902  1.00  0.00     0.029 A 
HETATM   30  C   UNL     1     -14.766   2.411 -32.612  1.00  0.00     0.002 A 
HETATM   31  C   UNL     1     -15.323   1.328 -33.286  1.00  0.00     0.000 A 
HETATM   32  C   UNL     1     -14.580   0.663 -34.257  1.00  0.00     0.002 A 
HETATM   33  C   UNL     1     -13.278   1.081 -34.548  1.00  0.00     0.029 A 
ENDBRANCH  24  28
ENDBRANCH   1  22
TORSDOF 6
ENDMDL
MODEL 3
REMARK VINA RESULT:      -9.0      1.213      2.571
REMARK  6 active torsions:
REMARK  status: ('A' for Active; 'I' for Inactive)
REMARK    1  A    between atoms: C_4  and  N_5 
REMARK       I    between atoms: N_5  and  C_6 
REMARK       I    between atoms: C_6  and  N_7 
REMARK    2  A    between atoms: N_7  and  C_8 
REMARK    3  A    between atoms: C_11  and  C_12 
REMARK    4  A    between atoms: C_12  and  C_13 
REMARK       I    between atoms: C_13  and  N_14 
REMARK    5  A    between atoms: N_14  and  C_15 
REMARK    6  A    between atoms: C_17  and  C_18 
ROOT
HETATM    1  C   UNL     1      -8.557   4.761 -34.020  1.00  0.00     0.174 A 
HETATM    2  S   UNL     1      -9.720   5.649 -34.895  1.00  0.00    -0.062 SA
HETATM    3  C   UNL     1     -10.702   4.241 -34.979  1.00  0.00     0.081 A 
HETATM    4  C   UNL     1     -10.080   3.194 -34.323  1.00  0.00     0.052 A 
HETATM    5  N   UNL     1      -8.845   3.510 -33.779  1.00  0.00    -0.228 NA
ENDROOT
BRANCH   4   6
HETATM    6  C   UNL     1     -10.589   1.803 -34.133  1.00  0.00     0.163 C 
BRANCH   6   7
HETATM    7  C   UNL     1      -9.525   0.843 -33.620  1.00  0.00     0.227 C 
HETATM    8  N   UNL     1      -8.422   0.720 -34.448  1.00  0.00    -0.327 N 
HETATM    9  H   UNL     1      -8.499   1.178 -35.362  1.00  0.00     0.169 HD
HETATM   10  O   UNL     1      -9.670   0.294 -32.529  1.00  0.00    -0.273 OA
BRANCH   8  11
HETATM   11  C   UNL     1      -7.261  -0.044 -34.233  1.00  0.00     0.035 A 
HETATM   12  C   UNL     1      -6.155   0.403 -33.503  1.00  0.00     0.048 A 
HETATM   13  C   UNL     1      -5.024  -0.416 -33.335  1.00  0.00     0.088 A 
HETATM   14  C   UNL     1      -5.028  -1.690 -33.894  1.00  0.00     0.131 A 
HETATM   15  F   UNL     1      -3.971  -2.496 -33.734  1.00  0.00    -0.205 F 
HETATM   16  C   UNL     1      -6.117  -2.149 -34.626  1.00  0.00     0.045 A 
HETATM   17  C   UNL     1      -7.227  -1.323 -34.803  1.00  0.00     0.032 A 
BRANCH  13  18
HETATM   18  C   UNL     1      -3.820   0.043 -32.571  1.00  0.00     0.420 C 
HETATM   19  F   UNL     1      -3.890   1.349 -32.181  1.00  0.00    -0.166 F 
HETATM   20  F   UNL     1      -3.618  -0.668 -31.427  1.00  0.00    -0.166 F 
HETATM   21  F   UNL     1      -2.665  -0.055 -33.288  1.00  0.00    -0.166 F 
ENDBRANCH  13  18
ENDBRANCH   8  11
ENDBRANCH   6   7
ENDBRANCH   4   6
BRANCH   1  22
HETATM   22  N   UNL     1      -7.460   5.476 -33.631  1.00  0.00    -0.287 N 
HETATM   23  C   UNL     1      -6.178   5.020 -33.872  1.00  0.00     0.326 C 
HETATM   24  N   UNL     1      -5.255   5.776 -33.162  1.00  0.00    -0.309 N 
HETATM   25  O   UNL     1      -5.904   4.079 -34.607  1.00  0.00    -0.247 OA
HETATM   26  H   UNL     1      -5.635   6.425 -32.491  1.00  0.00     0.170 HD
HETATM   27  H   UNL     1      -7.620   6.401 -33.272  1.00  0.00     0.172 HD
BRANCH  24  28
HETATM   28  C   UNL     1      -3.853   5.617 -33.129  1.00  0.00     0.036 A 
HETATM   29  C   UNL     1      -2.989   6.068 -34.128  1.00  0.00     0.029 A 
HETATM   30  C   UNL     1      -1.610   5.853 -34.024  1.00  0.00     0.002 A 
HETATM   31  C   UNL     1      -1.084   5.189 -32.919  1.00  0.00     0.000 A 
HETATM   32  C   UNL     1      -1.935   4.743 -31.913  1.00  0.00     0.002 A 
HETATM   33  C   UNL     1      -3.312   4.959 -32.016  1.00  0.00     0.029 A 
ENDBRANCH  24  28
ENDBRANCH   1  22
TORSDOF 6
ENDMDL
MODEL 4
REMARK VINA RESULT:      -8.9      2.553      3.487
REMARK  6 active torsions:
REMARK  status: ('A' for Active; 'I' for Inactive)
REMARK    1  A    between atoms: C_4  and  N_5 
REMARK       I    between atoms: N_5  and  C_6 
REMARK       I    between atoms: C_6  and  N_7 
REMARK    2  A    between atoms: N_7  and  C_8 
REMARK    3  A    between atoms: C_11  and  C_12 
REMARK    4  A    between atoms: C_12  and  C_13 
REMARK       I    between atoms: C_13  and  N_14 
REMARK    5  A    between atoms: N_14  and  C_15 
REMARK    6  A    between atoms: C_17  and  C_18 
ROOT
HETATM    1  C   UNL     1      -4.767   4.018 -32.964  1.00  0.00     0.174 A 
HETATM    2  S   UNL     1      -5.464   5.298 -33.848  1.00  0.00    -0.062 SA
HETATM    3  C   UNL     1      -6.964   4.458 -33.844  1.00  0.00     0.081 A 
HETATM    4  C   UNL     1      -6.832   3.264 -33.159  1.00  0.00     0.052 A 
HETATM    5  N   UNL     1      -5.560   3.025 -32.661  1.00  0.00    -0.228 NA
ENDROOT
BRANCH   4   6
HETATM    6  C   UNL     1      -7.887   2.241 -32.894  1.00  0.00     0.163 C 
BRANCH   6   7
HETATM    7  C   UNL     1      -7.323   0.842 -32.685  1.00  0.00     0.227 C 
HETATM    8  N   UNL     1      -6.465   0.419 -33.686  1.00  0.00    -0.327 N 
HETATM    9  H   UNL     1      -6.407   1.027 -34.509  1.00  0.00     0.169 HD
HETATM   10  O   UNL     1      -7.605   0.215 -31.666  1.00  0.00    -0.273 OA
BRANCH   8  11
HETATM   11  C   UNL     1      -5.753  -0.792 -33.758  1.00  0.00     0.035 A 
HETATM   12  C   UNL     1      -6.260  -1.964 -34.326  1.00  0.00     0.048 A 
HETATM   13  C   UNL     1      -5.492  -3.142 -34.357  1.00  0.00     0.088 A 
HETATM   14  C   UNL     1      -4.206  -3.118 -33.826  1.00  0.00     0.131 A 
HETATM   15  F   UNL     1      -3.446  -4.221 -33.857  1.00  0.00    -0.205 F 
HETATM   16  C   UNL     1      -3.687  -1.963 -33.253  1.00  0.00     0.045 A 
HETATM   17  C   UNL     1      -4.463  -0.804 -33.210  1.00  0.00     0.032 A 
BRANCH  13  18
HETATM   18  C   UNL     1      -6.015  -4.415 -34.946  1.00  0.00     0.420 C 
HETATM   19  F   UNL     1      -5.262  -5.509 -34.631  1.00  0.00    -0.166 F 
HETATM   20  F   UNL     1      -7.278  -4.711 -34.528  1.00  0.00    -0.166 F 
HETATM   21  F   UNL     1      -6.063  -4.392 -36.307  1.00  0.00    -0.166 F 
ENDBRANCH  13  18
ENDBRANCH   8  11
ENDBRANCH   6   7
ENDBRANCH   4   6
BRANCH   1  22
HETATM   22  N   UNL     1      -3.453   4.192 -32.635  1.00  0.00    -0.287 N 
HETATM   23  C   UNL     1      -3.079   4.890 -31.502  1.00  0.00     0.326 C 
HETATM   24  N   UNL     1      -1.716   5.154 -31.526  1.00  0.00    -0.309 N 
HETATM   25  O   UNL     1      -3.848   5.227 -30.610  1.00  0.00    -0.247 OA
HETATM   26  H   UNL     1      -1.237   4.941 -32.387  1.00  0.00     0.170 HD
HETATM   27  H   UNL     1      -2.774   3.691 -33.181  1.00  0.00     0.172 HD
BRANCH  24  28
HETATM   28  C   UNL     1      -0.956   5.854 -30.564  1.00  0.00     0.036 A 
HETATM   29  C   UNL     1      -1.065   7.225 -30.325  1.00  0.00     0.029 A 
HETATM   30  C   UNL     1      -0.260   7.843 -29.362  1.00  0.00     0.002 A 
HETATM   31  C   UNL     1       0.659   7.097 -28.630  1.00  0.00     0.000 A 
HETATM   32  C   UNL     1       0.771   5.728 -28.854  1.00  0.00     0.002 A 
HETATM   33  C   UNL     1      -0.035   5.110 -29.814  1.00  0.00     0.029 A 
ENDBRANCH  24  28
ENDBRANCH   1  22
TORSDOF 6
ENDMDL
MODEL 5
REMARK VINA RESULT:      -8.9      2.134      2.820
REMARK  6 active torsions:
REMARK  status: ('A' for Active; 'I' for Inactive)
REMARK    1  A    between atoms: C_4  and  N_5 
REMARK       I    between atoms: N_5  and  C_6 
REMARK       I    between atoms: C_6  and  N_7 
REMARK    2  A    between atoms: N_7  and  C_8 
REMARK    3  A    between atoms: C_11  and  C_12 
REMARK    4  A    between atoms: C_12  and  C_13 
REMARK       I    between atoms: C_13  and  N_14 
REMARK    5  A    between atoms: N_14  and  C_15 
REMARK    6  A    between atoms: C_17  and  C_18 
ROOT
HETATM    1  C   UNL     1      -6.155   4.101 -33.778  1.00  0.00     0.174 A 
HETATM    2  S   UNL     1      -7.410   4.673 -32.776  1.00  0.00    -0.062 SA
HETATM    3  C   UNL     1      -8.336   3.281 -33.176  1.00  0.00     0.081 A 
HETATM    4  C   UNL     1      -7.619   2.471 -34.037  1.00  0.00     0.052 A 
HETATM    5  N   UNL     1      -6.366   2.959 -34.375  1.00  0.00    -0.228 NA
ENDROOT
BRANCH   4   6
HETATM    6  C   UNL     1      -8.033   1.156 -34.614  1.00  0.00     0.163 C 
BRANCH   6   7
HETATM    7  C   UNL     1      -7.397  -0.033 -33.906  1.00  0.00     0.227 C 
HETATM    8  N   UNL     1      -6.032  -0.148 -34.104  1.00  0.00    -0.327 N 
HETATM    9  H   UNL     1      -5.627   0.489 -34.798  1.00  0.00     0.169 HD
HETATM   10  O   UNL     1      -8.085  -0.760 -33.192  1.00  0.00    -0.273 OA
BRANCH   8  11
HETATM   11  C   UNL     1      -5.157  -1.102 -33.553  1.00  0.00     0.035 A 
HETATM   12  C   UNL     1      -5.010  -2.403 -34.043  1.00  0.00     0.048 A 
HETATM   13  C   UNL     1      -4.120  -3.306 -33.435  1.00  0.00     0.088 A 
HETATM   14  C   UNL     1      -3.370  -2.878 -32.345  1.00  0.00     0.131 A 
HETATM   15  F   UNL     1      -2.502  -3.713 -31.758  1.00  0.00    -0.205 F 
HETATM   16  C   UNL     1      -3.505  -1.590 -31.841  1.00  0.00     0.045 A 
HETATM   17  C   UNL     1      -4.405  -0.706 -32.439  1.00  0.00     0.032 A 
BRANCH  13  18
HETATM   18  C   UNL     1      -3.954  -4.710 -33.930  1.00  0.00     0.420 C 
HETATM   19  F   UNL     1      -4.097  -5.651 -32.953  1.00  0.00    -0.166 F 
HETATM   20  F   UNL     1      -4.861  -5.043 -34.891  1.00  0.00    -0.166 F 
HETATM   21  F   UNL     1      -2.725  -4.942 -34.473  1.00  0.00    -0.166 F 
ENDBRANCH  13  18
ENDBRANCH   8  11
ENDBRANCH   6   7
ENDBRANCH   4   6
BRANCH   1  22
HETATM   22  N   UNL     1      -5.041   4.890 -33.813  1.00  0.00    -0.287 N 
HETATM   23  C   UNL     1      -4.029   4.754 -32.882  1.00  0.00     0.326 C 
HETATM   24  N   UNL     1      -3.148   5.825 -32.967  1.00  0.00    -0.309 N 
HETATM   25  O   UNL     1      -3.933   3.822 -32.094  1.00  0.00    -0.247 OA
HETATM   26  H   UNL     1      -3.430   6.586 -33.564  1.00  0.00     0.170 HD
HETATM   27  H   UNL     1      -4.930   5.489 -34.613  1.00  0.00     0.172 HD
BRANCH  24  28
HETATM   28  C   UNL     1      -2.000   6.061 -32.181  1.00  0.00     0.036 A 
HETATM   29  C   UNL     1      -0.875   5.236 -32.169  1.00  0.00     0.029 A 
HETATM   30  C   UNL     1       0.216   5.535 -31.345  1.00  0.00     0.002 A 
HETATM   31  C   UNL     1       0.192   6.663 -30.529  1.00  0.00     0.000 A 
HETATM   32  C   UNL     1      -0.921   7.497 -30.539  1.00  0.00     0.002 A 
HETATM   33  C   UNL     1      -2.010   7.200 -31.363  1.00  0.00     0.029 A 
ENDBRANCH  24  28
ENDBRANCH   1  22
TORSDOF 6
ENDMDL
MODEL 6
REMARK VINA RESULT:      -8.8      2.340      6.143
REMARK  6 active torsions:
REMARK  status: ('A' for Active; 'I' for Inactive)
REMARK    1  A    between atoms: C_4  and  N_5 
REMARK       I    between atoms: N_5  and  C_6 
REMARK       I    between atoms: C_6  and  N_7 
REMARK    2  A    between atoms: N_7  and  C_8 
REMARK    3  A    between atoms: C_11  and  C_12 
REMARK    4  A    between atoms: C_12  and  C_13 
REMARK       I    between atoms: C_13  and  N_14 
REMARK    5  A    between atoms: N_14  and  C_15 
REMARK    6  A    between atoms: C_17  and  C_18 
ROOT
HETATM    1  C   UNL     1      -7.305   4.242 -33.088  1.00  0.00     0.174 A 
HETATM    2  S   UNL     1      -7.361   5.908 -32.727  1.00  0.00    -0.062 SA
HETATM    3  C   UNL     1      -5.942   5.729 -31.774  1.00  0.00     0.081 A 
HETATM    4  C   UNL     1      -5.517   4.413 -31.806  1.00  0.00     0.052 A 
HETATM    5  N   UNL     1      -6.314   3.570 -32.565  1.00  0.00    -0.228 NA
ENDROOT
BRANCH   4   6
HETATM    6  C   UNL     1      -4.316   3.824 -31.141  1.00  0.00     0.163 C 
BRANCH   6   7
HETATM    7  C   UNL     1      -3.822   2.553 -31.819  1.00  0.00     0.227 C 
HETATM    8  N   UNL     1      -4.609   1.439 -31.583  1.00  0.00    -0.327 N 
HETATM    9  H   UNL     1      -5.349   1.556 -30.884  1.00  0.00     0.169 HD
HETATM   10  O   UNL     1      -2.830   2.593 -32.545  1.00  0.00    -0.273 OA
BRANCH   8  11
HETATM   11  C   UNL     1      -4.446   0.140 -32.101  1.00  0.00     0.035 A 
HETATM   12  C   UNL     1      -5.226  -0.393 -33.131  1.00  0.00     0.048 A 
HETATM   13  C   UNL     1      -5.010  -1.704 -33.594  1.00  0.00     0.088 A 
HETATM   14  C   UNL     1      -3.992  -2.459 -33.020  1.00  0.00     0.131 A 
HETATM   15  F   UNL     1      -3.753  -3.703 -33.454  1.00  0.00    -0.205 F 
HETATM   16  C   UNL     1      -3.209  -1.946 -31.993  1.00  0.00     0.045 A 
HETATM   17  C   UNL     1      -3.443  -0.651 -31.527  1.00  0.00     0.032 A 
BRANCH  13  18
HETATM   18  C   UNL     1      -5.840  -2.306 -34.685  1.00  0.00     0.420 C 
HETATM   19  F   UNL     1      -6.666  -3.302 -34.252  1.00  0.00    -0.166 F 
HETATM   20  F   UNL     1      -6.653  -1.398 -35.293  1.00  0.00    -0.166 F 
HETATM   21  F   UNL     1      -5.091  -2.867 -35.676  1.00  0.00    -0.166 F 
ENDBRANCH  13  18
ENDBRANCH   8  11
ENDBRANCH   6   7
ENDBRANCH   4   6
BRANCH   1  22
HETATM   22  N   UNL     1      -8.291   3.801 -33.923  1.00  0.00    -0.287 N 
HETATM   23  C   UNL     1      -9.435   3.200 -33.435  1.00  0.00     0.326 C 
HETATM   24  N   UNL     1     -10.150   2.610 -34.470  1.00  0.00    -0.309 N 
HETATM   25  O   UNL     1      -9.764   3.189 -32.255  1.00  0.00    -0.247 OA
HETATM   26  H   UNL     1      -9.689   2.577 -35.366  1.00  0.00     0.170 HD
HETATM   27  H   UNL     1      -8.207   4.039 -34.897  1.00  0.00     0.172 HD
BRANCH  24  28
HETATM   28  C   UNL     1     -11.360   1.889 -34.381  1.00  0.00     0.036 A 
HETATM   29  C   UNL     1     -12.564   2.303 -34.951  1.00  0.00     0.029 A 
HETATM   30  C   UNL     1     -13.723   1.534 -34.799  1.00  0.00     0.002 A 
HETATM   31  C   UNL     1     -13.687   0.343 -34.080  1.00  0.00     0.000 A 
HETATM   32  C   UNL     1     -12.489  -0.085 -33.514  1.00  0.00     0.002 A 
HETATM   33  C   UNL     1     -11.331   0.683 -33.666  1.00  0.00     0.029 A 
ENDBRANCH  24  28
ENDBRANCH   1  22
TORSDOF 6
ENDMDL
MODEL 7
REMARK VINA RESULT:      -8.8      2.142      2.539
REMARK  6 active torsions:
REMARK  status: ('A' for Active; 'I' for Inactive)
REMARK    1  A    between atoms: C_4  and  N_5 
REMARK       I    between atoms: N_5  and  C_6 
REMARK       I    between atoms: C_6  and  N_7 
REMARK    2  A    between atoms: N_7  and  C_8 
REMARK    3  A    between atoms: C_11  and  C_12 
REMARK    4  A    between atoms: C_12  and  C_13 
REMARK       I    between atoms: C_13  and  N_14 
REMARK    5  A    between atoms: N_14  and  C_15 
REMARK    6  A    between atoms: C_17  and  C_18 
ROOT
HETATM    1  C   UNL     1      -7.298   3.595 -30.836  1.00  0.00     0.174 A 
HETATM    2  S   UNL     1      -8.564   4.525 -30.174  1.00  0.00    -0.062 SA
HETATM    3  C   UNL     1      -9.694   3.584 -31.063  1.00  0.00     0.081 A 
HETATM    4  C   UNL     1      -9.028   2.617 -31.795  1.00  0.00     0.052 A 
HETATM    5  N   UNL     1      -7.649   2.640 -31.655  1.00  0.00    -0.228 NA
ENDROOT
BRANCH   4   6
HETATM    6  C   UNL     1      -9.621   1.574 -32.684  1.00  0.00     0.163 C 
BRANCH   6   7
HETATM    7  C   UNL     1      -8.583   0.851 -33.531  1.00  0.00     0.227 C 
HETATM    8  N   UNL     1      -7.799  -0.047 -32.826  1.00  0.00    -0.327 N 
HETATM    9  H   UNL     1      -7.910  -0.031 -31.807  1.00  0.00     0.169 HD
HETATM   10  O   UNL     1      -8.532   1.053 -34.742  1.00  0.00    -0.273 OA
BRANCH   8  11
HETATM   11  C   UNL     1      -6.794  -0.895 -33.327  1.00  0.00     0.035 A 
HETATM   12  C   UNL     1      -7.039  -2.153 -33.884  1.00  0.00     0.048 A 
HETATM   13  C   UNL     1      -5.982  -2.950 -34.358  1.00  0.00     0.088 A 
HETATM   14  C   UNL     1      -4.683  -2.457 -34.282  1.00  0.00     0.131 A 
HETATM   15  F   UNL     1      -3.660  -3.188 -34.742  1.00  0.00    -0.205 F 
HETATM   16  C   UNL     1      -4.420  -1.210 -33.728  1.00  0.00     0.045 A 
HETATM   17  C   UNL     1      -5.473  -0.434 -33.242  1.00  0.00     0.032 A 
BRANCH  13  18
HETATM   18  C   UNL     1      -6.214  -4.308 -34.946  1.00  0.00     0.420 C 
HETATM   19  F   UNL     1      -5.420  -5.276 -34.405  1.00  0.00    -0.166 F 
HETATM   20  F   UNL     1      -7.492  -4.747 -34.772  1.00  0.00    -0.166 F 
HETATM   21  F   UNL     1      -5.976  -4.356 -36.287  1.00  0.00    -0.166 F 
ENDBRANCH  13  18
ENDBRANCH   8  11
ENDBRANCH   6   7
ENDBRANCH   4   6
BRANCH   1  22
HETATM   22  N   UNL     1      -6.047   3.931 -30.402  1.00  0.00    -0.287 N 
HETATM   23  C   UNL     1      -5.203   4.712 -31.169  1.00  0.00     0.326 C 
HETATM   24  N   UNL     1      -3.918   4.695 -30.641  1.00  0.00    -0.309 N 
HETATM   25  O   UNL     1      -5.545   5.325 -32.173  1.00  0.00    -0.247 OA
HETATM   26  H   UNL     1      -3.753   4.036 -29.897  1.00  0.00     0.170 HD
HETATM   27  H   UNL     1      -5.812   3.693 -29.455  1.00  0.00     0.172 HD
BRANCH  24  28
HETATM   28  C   UNL     1      -2.772   5.350 -31.141  1.00  0.00     0.036 A 
HETATM   29  C   UNL     1      -1.901   4.798 -32.081  1.00  0.00     0.029 A 
HETATM   30  C   UNL     1      -0.776   5.511 -32.510  1.00  0.00     0.002 A 
HETATM   31  C   UNL     1      -0.514   6.782 -32.005  1.00  0.00     0.000 A 
HETATM   32  C   UNL     1      -1.381   7.345 -31.073  1.00  0.00     0.002 A 
HETATM   33  C   UNL     1      -2.505   6.634 -30.645  1.00  0.00     0.029 A 
ENDBRANCH  24  28
ENDBRANCH   1  22
TORSDOF 6
ENDMDL
MODEL 8
REMARK VINA RESULT:      -8.7      4.802      8.418
REMARK  6 active torsions:
REMARK  status: ('A' for Active; 'I' for Inactive)
REMARK    1  A    between atoms: C_4  and  N_5 
REMARK       I    between atoms: N_5  and  C_6 
REMARK       I    between atoms: C_6  and  N_7 
REMARK    2  A    between atoms: N_7  and  C_8 
REMARK    3  A    between atoms: C_11  and  C_12 
REMARK    4  A    between atoms: C_12  and  C_13 
REMARK       I    between atoms: C_13  and  N_14 
REMARK    5  A    between atoms: N_14  and  C_15 
REMARK    6  A    between atoms: C_17  and  C_18 
ROOT
HETATM    1  C   UNL     1      -7.071   2.137 -32.893  1.00  0.00     0.174 A 
HETATM    2  S   UNL     1      -8.521   2.958 -33.258  1.00  0.00    -0.062 SA
HETATM    3  C   UNL     1      -8.304   3.924 -31.853  1.00  0.00     0.081 A 
HETATM    4  C   UNL     1      -7.135   3.562 -31.209  1.00  0.00     0.052 A 
HETATM    5  N   UNL     1      -6.439   2.530 -31.820  1.00  0.00    -0.228 NA
ENDROOT
BRANCH   4   6
HETATM    6  C   UNL     1      -6.552   4.157 -29.969  1.00  0.00     0.163 C 
BRANCH   6   7
HETATM    7  C   UNL     1      -5.376   5.083 -30.248  1.00  0.00     0.227 C 
HETATM    8  N   UNL     1      -4.523   4.636 -31.242  1.00  0.00    -0.327 N 
HETATM    9  H   UNL     1      -4.698   3.686 -31.585  1.00  0.00     0.169 HD
HETATM   10  O   UNL     1      -5.278   6.148 -29.642  1.00  0.00    -0.273 OA
BRANCH   8  11
HETATM   11  C   UNL     1      -3.384   5.281 -31.758  1.00  0.00     0.035 A 
HETATM   12  C   UNL     1      -2.132   5.270 -31.137  1.00  0.00     0.048 A 
HETATM   13  C   UNL     1      -1.038   5.945 -31.709  1.00  0.00     0.088 A 
HETATM   14  C   UNL     1      -1.217   6.612 -32.916  1.00  0.00     0.131 A 
HETATM   15  F   UNL     1      -0.188   7.248 -33.491  1.00  0.00    -0.205 F 
HETATM   16  C   UNL     1      -2.456   6.637 -33.546  1.00  0.00     0.045 A 
HETATM   17  C   UNL     1      -3.540   5.980 -32.962  1.00  0.00     0.032 A 
BRANCH  13  18
HETATM   18  C   UNL     1       0.311   5.963 -31.057  1.00  0.00     0.420 C 
HETATM   19  F   UNL     1       0.257   5.892 -29.696  1.00  0.00    -0.166 F 
HETATM   20  F   UNL     1       1.099   4.922 -31.446  1.00  0.00    -0.166 F 
HETATM   21  F   UNL     1       1.018   7.096 -31.329  1.00  0.00    -0.166 F 
ENDBRANCH  13  18
ENDBRANCH   8  11
ENDBRANCH   6   7
ENDBRANCH   4   6
BRANCH   1  22
HETATM   22  N   UNL     1      -6.710   1.177 -33.794  1.00  0.00    -0.287 N 
HETATM   23  C   UNL     1      -6.582  -0.148 -33.425  1.00  0.00     0.326 C 
HETATM   24  N   UNL     1      -5.960  -0.872 -34.434  1.00  0.00    -0.309 N 
HETATM   25  O   UNL     1      -6.962  -0.610 -32.356  1.00  0.00    -0.247 OA
HETATM   26  H   UNL     1      -5.577  -0.335 -35.195  1.00  0.00     0.170 HD
HETATM   27  H   UNL     1      -6.659   1.452 -34.760  1.00  0.00     0.172 HD
BRANCH  24  28
HETATM   28  C   UNL     1      -5.635  -2.246 -34.435  1.00  0.00     0.036 A 
HETATM   29  C   UNL     1      -4.389  -2.757 -34.072  1.00  0.00     0.029 A 
HETATM   30  C   UNL     1      -4.146  -4.135 -34.118  1.00  0.00     0.002 A 
HETATM   31  C   UNL     1      -5.148  -5.012 -34.524  1.00  0.00     0.000 A 
HETATM   32  C   UNL     1      -6.397  -4.514 -34.880  1.00  0.00     0.002 A 
HETATM   33  C   UNL     1      -6.641  -3.139 -34.833  1.00  0.00     0.029 A 
ENDBRANCH  24  28
ENDBRANCH   1  22
TORSDOF 6
ENDMDL
MODEL 9
REMARK VINA RESULT:      -8.6      3.804      7.186
REMARK  6 active torsions:
REMARK  status: ('A' for Active; 'I' for Inactive)
REMARK    1  A    between atoms: C_4  and  N_5 
REMARK       I    between atoms: N_5  and  C_6 
REMARK       I    between atoms: C_6  and  N_7 
REMARK    2  A    between atoms: N_7  and  C_8 
REMARK    3  A    between atoms: C_11  and  C_12 
REMARK    4  A    between atoms: C_12  and  C_13 
REMARK       I    between atoms: C_13  and  N_14 
REMARK    5  A    between atoms: N_14  and  C_15 
REMARK    6  A    between atoms: C_17  and  C_18 
ROOT
HETATM    1  C   UNL     1      -9.060   1.529 -33.840  1.00  0.00     0.174 A 
HETATM    2  S   UNL     1     -10.765   1.516 -33.827  1.00  0.00    -0.062 SA
HETATM    3  C   UNL     1     -10.748   2.914 -32.827  1.00  0.00     0.081 A 
HETATM    4  C   UNL     1      -9.442   3.300 -32.582  1.00  0.00     0.052 A 
HETATM    5  N   UNL     1      -8.483   2.490 -33.170  1.00  0.00    -0.228 NA
ENDROOT
BRANCH   4   6
HETATM    6  C   UNL     1      -8.971   4.472 -31.785  1.00  0.00     0.163 C 
BRANCH   6   7
HETATM    7  C   UNL     1      -7.596   4.969 -32.211  1.00  0.00     0.227 C 
HETATM    8  N   UNL     1      -6.549   4.154 -31.816  1.00  0.00    -0.327 N 
HETATM    9  H   UNL     1      -6.795   3.389 -31.179  1.00  0.00     0.169 HD
HETATM   10  O   UNL     1      -7.497   5.988 -32.892  1.00  0.00    -0.273 OA
BRANCH   8  11
HETATM   11  C   UNL     1      -5.178   4.313 -32.093  1.00  0.00     0.035 A 
HETATM   12  C   UNL     1      -4.678   4.798 -33.305  1.00  0.00     0.048 A 
HETATM   13  C   UNL     1      -3.292   4.924 -33.514  1.00  0.00     0.088 A 
HETATM   14  C   UNL     1      -2.424   4.573 -32.485  1.00  0.00     0.131 A 
HETATM   15  F   UNL     1      -1.101   4.699 -32.651  1.00  0.00    -0.205 F 
HETATM   16  C   UNL     1      -2.904   4.086 -31.275  1.00  0.00     0.045 A 
HETATM   17  C   UNL     1      -4.279   3.947 -31.084  1.00  0.00     0.032 A 
BRANCH  13  18
HETATM   18  C   UNL     1      -2.728   5.426 -34.807  1.00  0.00     0.420 C 
HETATM   19  F   UNL     1      -3.651   5.501 -35.809  1.00  0.00    -0.166 F 
HETATM   20  F   UNL     1      -2.201   6.677 -34.703  1.00  0.00    -0.166 F 
HETATM   21  F   UNL     1      -1.732   4.634 -35.296  1.00  0.00    -0.166 F 
ENDBRANCH  13  18
ENDBRANCH   8  11
ENDBRANCH   6   7
ENDBRANCH   4   6
BRANCH   1  22
HETATM   22  N   UNL     1      -8.482   0.543 -34.589  1.00  0.00    -0.287 N 
HETATM   23  C   UNL     1      -7.821  -0.518 -34.000  1.00  0.00     0.326 C 
HETATM   24  N   UNL     1      -7.106  -1.230 -34.954  1.00  0.00    -0.309 N 
HETATM   25  O   UNL     1      -7.861  -0.783 -32.805  1.00  0.00    -0.247 OA
HETATM   26  H   UNL     1      -7.052  -0.815 -35.870  1.00  0.00     0.170 HD
HETATM   27  H   UNL     1      -8.661   0.556 -35.578  1.00  0.00     0.172 HD
BRANCH  24  28
HETATM   28  C   UNL     1      -6.293  -2.366 -34.751  1.00  0.00     0.036 A 
HETATM   29  C   UNL     1      -6.681  -3.672 -35.054  1.00  0.00     0.029 A 
HETATM   30  C   UNL     1      -5.817  -4.744 -34.805  1.00  0.00     0.002 A 
HETATM   31  C   UNL     1      -4.558  -4.520 -34.254  1.00  0.00     0.000 A 
HETATM   32  C   UNL     1      -4.158  -3.221 -33.957  1.00  0.00     0.002 A 
HETATM   33  C   UNL     1      -5.020  -2.149 -34.207  1.00  0.00     0.029 A 
ENDBRANCH  24  28
ENDBRANCH   1  22
TORSDOF 6
ENDMDL
MODEL 10
REMARK VINA RESULT:      -8.6      1.978      3.155
REMARK  6 active torsions:
REMARK  status: ('A' for Active; 'I' for Inactive)
REMARK    1  A    between atoms: C_4  and  N_5 
REMARK       I    between atoms: N_5  and  C_6 
REMARK       I    between atoms: C_6  and  N_7 
REMARK    2  A    between atoms: N_7  and  C_8 
REMARK    3  A    between atoms: C_11  and  C_12 
REMARK    4  A    between atoms: C_12  and  C_13 
REMARK       I    between atoms: C_13  and  N_14 
REMARK    5  A    between atoms: N_14  and  C_15 
REMARK    6  A    between atoms: C_17  and  C_18 
ROOT
HETATM    1  C   UNL     1      -6.398   4.968 -33.528  1.00  0.00     0.174 A 
HETATM    2  S   UNL     1      -7.489   6.018 -32.743  1.00  0.00    -0.062 SA
HETATM    3  C   UNL     1      -8.729   4.844 -32.940  1.00  0.00     0.081 A 
HETATM    4  C   UNL     1      -8.222   3.728 -33.581  1.00  0.00     0.052 A 
HETATM    5  N   UNL     1      -6.879   3.817 -33.915  1.00  0.00    -0.228 NA
ENDROOT
BRANCH   4   6
HETATM    6  C   UNL     1      -8.944   2.467 -33.929  1.00  0.00     0.163 C 
BRANCH   6   7
HETATM    7  C   UNL     1      -8.219   1.215 -33.455  1.00  0.00     0.227 C 
HETATM    8  N   UNL     1      -7.145   0.845 -34.247  1.00  0.00    -0.327 N 
HETATM    9  H   UNL     1      -7.037   1.367 -35.123  1.00  0.00     0.169 HD
HETATM   10  O   UNL     1      -8.575   0.656 -32.420  1.00  0.00    -0.273 OA
BRANCH   8  11
HETATM   11  C   UNL     1      -6.255  -0.227 -34.051  1.00  0.00     0.035 A 
HETATM   12  C   UNL     1      -5.246  -0.237 -33.083  1.00  0.00     0.048 A 
HETATM   13  C   UNL     1      -4.388  -1.343 -32.949  1.00  0.00     0.088 A 
HETATM   14  C   UNL     1      -4.570  -2.439 -33.785  1.00  0.00     0.131 A 
HETATM   15  F   UNL     1      -3.777  -3.513 -33.668  1.00  0.00    -0.205 F 
HETATM   16  C   UNL     1      -5.565  -2.445 -34.756  1.00  0.00     0.045 A 
HETATM   17  C   UNL     1      -6.400  -1.336 -34.895  1.00  0.00     0.032 A 
BRANCH  13  18
HETATM   18  C   UNL     1      -3.290  -1.375 -31.931  1.00  0.00     0.420 C 
HETATM   19  F   UNL     1      -2.091  -0.933 -32.411  1.00  0.00    -0.166 F 
HETATM   20  F   UNL     1      -3.554  -0.599 -30.843  1.00  0.00    -0.166 F 
HETATM   21  F   UNL     1      -3.044  -2.627 -31.452  1.00  0.00    -0.166 F 
ENDBRANCH  13  18
ENDBRANCH   8  11
ENDBRANCH   6   7
ENDBRANCH   4   6
BRANCH   1  22
HETATM   22  N   UNL     1      -5.120   5.438 -33.632  1.00  0.00    -0.287 N 
HETATM   23  C   UNL     1      -4.217   5.312 -32.593  1.00  0.00     0.326 C 
HETATM   24  N   UNL     1      -3.091   6.087 -32.836  1.00  0.00    -0.309 N 
HETATM   25  O   UNL     1      -4.395   4.616 -31.601  1.00  0.00    -0.247 OA
HETATM   26  H   UNL     1      -3.144   6.714 -33.623  1.00  0.00     0.170 HD
HETATM   27  H   UNL     1      -4.826   5.769 -34.535  1.00  0.00     0.172 HD
BRANCH  24  28
HETATM   28  C   UNL     1      -1.955   6.240 -32.012  1.00  0.00     0.036 A 
HETATM   29  C   UNL     1      -1.777   7.289 -31.109  1.00  0.00     0.029 A 
HETATM   30  C   UNL     1      -0.611   7.374 -30.341  1.00  0.00     0.002 A 
HETATM   31  C   UNL     1       0.385   6.410 -30.466  1.00  0.00     0.000 A 
HETATM   32  C   UNL     1       0.215   5.355 -31.357  1.00  0.00     0.002 A 
HETATM   33  C   UNL     1      -0.950   5.269 -32.124  1.00  0.00     0.029 A 
ENDBRANCH  24  28
ENDBRANCH   1  22
TORSDOF 6
ENDMDL
