MODEL 1
REMARK VINA RESULT:      -8.0      0.000      0.000
REMARK  9 active torsions:
REMARK  status: ('A' for Active; 'I' for Inactive)
REMARK    1  A    between atoms: C_5  and  C_6 
REMARK    2  A    between atoms: C_8  and  C_9 
REMARK    3  A    between atoms: C_9  and  C_10 
REMARK       I    between atoms: C_10  and  N_11 
REMARK    4  A    between atoms: N_11  and  C_12 
REMARK    5  A    between atoms: C_12  and  C_13 
REMARK    6  A    between atoms: C_13  and  N_14 
REMARK    7  A    between atoms: C_28  and  C_29 
REMARK    8  A    between atoms: C_29  and  O_30 
REMARK    9  A    between atoms: O_30  and  C_31 
ROOT
HETATM    1  C   UNL     1      -7.208   4.369 -32.720  1.00  0.00     0.166 C 
HETATM    2  N   UNL     1      -8.431   3.880 -33.542  1.00  0.00    -0.319 N 
HETATM    3  C   UNL     1      -9.501   3.096 -33.377  1.00  0.00     0.011 C 
HETATM    4  C   UNL     1      -9.001   5.126 -34.124  1.00  0.00     0.170 C 
HETATM    5  S   UNL     1     -10.192   4.841 -35.328  1.00  0.00    -0.086 SA
HETATM    6  C   UNL     1     -10.783   3.625 -34.113  1.00  0.00     0.135 C 
HETATM    7  N   UNL     1      -9.029   6.144 -33.346  1.00  0.00    -0.229 NA
HETATM    8  C   UNL     1      -8.539   6.008 -31.988  1.00  0.00     0.048 C 
HETATM    9  C   UNL     1      -8.935   7.391 -31.461  1.00  0.00     0.071 C 
HETATM   10  C   UNL     1      -7.903   4.905 -31.359  1.00  0.00     0.069 C 
ENDROOT
BRANCH   3  11
HETATM   11  C   UNL     1      -9.788   2.046 -32.303  1.00  0.00     0.156 C 
BRANCH  11  12
HETATM   12  C   UNL     1      -9.336   0.613 -32.552  1.00  0.00     0.223 C 
HETATM   13  N   UNL     1      -7.969   0.430 -32.620  1.00  0.00    -0.359 N 
HETATM   14  H   UNL     1      -7.382   1.260 -32.549  1.00  0.00     0.162 HD
HETATM   15  O   UNL     1     -10.140  -0.307 -32.676  1.00  0.00    -0.273 OA
BRANCH  13  16
HETATM   16  C   UNL     1      -7.232  -0.757 -33.096  1.00  0.00     0.150 C 
BRANCH  16  17
HETATM   17  C   UNL     1      -6.617  -0.825 -34.523  1.00  0.00     0.254 C 
BRANCH  17  18
HETATM   18  N   UNL     1      -5.914  -2.135 -34.862  1.00  0.00    -0.070 N 
HETATM   19  H   UNL     1      -5.592  -2.013 -35.845  1.00  0.00     0.279 HD
HETATM   20  C   UNL     1      -4.703  -2.364 -34.012  1.00  0.00     0.235 C 
HETATM   21  C   UNL     1      -4.007  -3.668 -34.355  1.00  0.00     0.028 C 
HETATM   22  C   UNL     1      -4.948  -4.854 -34.295  1.00  0.00     0.003 C 
HETATM   23  C   UNL     1      -6.138  -4.603 -35.206  1.00  0.00     0.028 C 
HETATM   24  C   UNL     1      -6.866  -3.315 -34.825  1.00  0.00     0.235 C 
ENDBRANCH  17  18
ENDBRANCH  16  17
ENDBRANCH  13  16
ENDBRANCH  11  12
ENDBRANCH   3  11
BRANCH   1  25
HETATM   25  C   UNL     1      -5.990   5.567 -33.003  1.00  0.00    -0.030 C 
HETATM   26  C   UNL     1      -5.178   6.155 -31.996  1.00  0.00     0.010 C 
HETATM   27  C   UNL     1      -3.756   5.955 -31.953  1.00  0.00     0.007 C 
HETATM   28  C   UNL     1      -3.100   5.182 -32.912  1.00  0.00    -0.062 C 
HETATM   29  C   UNL     1      -1.657   4.753 -32.792  1.00  0.00     0.048 C 
HETATM   30  C   UNL     1      -3.841   4.880 -34.048  1.00  0.00     0.007 C 
HETATM   31  C   UNL     1      -5.216   5.219 -34.141  1.00  0.00     0.010 C 
ENDBRANCH   1  25
BRANCH  10  32
HETATM   32  C   UNL     1      -7.172   3.611 -30.663  1.00  0.00     0.294 C 
HETATM   33  O   UNL     1      -7.387   3.388 -29.444  1.00  0.00    -0.259 OA
BRANCH  32  34
HETATM   34  O   UNL     1      -6.400   2.754 -31.353  1.00  0.00    -0.313 OA
BRANCH  34  35
HETATM   35  C   UNL     1      -5.211   2.000 -30.769  1.00  0.00     0.124 C 
HETATM   36  C   UNL     1      -5.401   0.596 -30.148  1.00  0.00     0.040 C 
HETATM   37  C   UNL     1      -3.953   1.921 -31.661  1.00  0.00     0.040 C 
ENDBRANCH  34  35
ENDBRANCH  32  34
ENDBRANCH  10  32
TORSDOF 9
ENDMDL
MODEL 2
REMARK VINA RESULT:      -8.0      3.374      5.714
REMARK  9 active torsions:
REMARK  status: ('A' for Active; 'I' for Inactive)
REMARK    1  A    between atoms: C_5  and  C_6 
REMARK    2  A    between atoms: C_8  and  C_9 
REMARK    3  A    between atoms: C_9  and  C_10 
REMARK       I    between atoms: C_10  and  N_11 
REMARK    4  A    between atoms: N_11  and  C_12 
REMARK    5  A    between atoms: C_12  and  C_13 
REMARK    6  A    between atoms: C_13  and  N_14 
REMARK    7  A    between atoms: C_28  and  C_29 
REMARK    8  A    between atoms: C_29  and  O_30 
REMARK    9  A    between atoms: O_30  and  C_31 
ROOT
HETATM    1  C   UNL     1      -2.836   5.372 -31.158  1.00  0.00     0.166 C 
HETATM    2  N   UNL     1      -3.686   4.074 -31.118  1.00  0.00    -0.319 N 
HETATM    3  C   UNL     1      -4.972   3.715 -31.177  1.00  0.00     0.011 C 
HETATM    4  C   UNL     1      -3.031   3.179 -32.112  1.00  0.00     0.170 C 
HETATM    5  S   UNL     1      -3.591   1.556 -32.051  1.00  0.00    -0.086 SA
HETATM    6  C   UNL     1      -5.212   2.374 -31.959  1.00  0.00     0.135 C 
HETATM    7  N   UNL     1      -2.640   3.738 -33.196  1.00  0.00    -0.229 NA
HETATM    8  C   UNL     1      -2.876   5.158 -33.383  1.00  0.00     0.048 C 
HETATM    9  C   UNL     1      -2.398   5.282 -34.832  1.00  0.00     0.071 C 
HETATM   10  C   UNL     1      -3.408   6.115 -32.478  1.00  0.00     0.069 C 
ENDROOT
BRANCH   3  11
HETATM   11  C   UNL     1      -6.232   4.559 -30.987  1.00  0.00     0.156 C 
BRANCH  11  12
HETATM   12  C   UNL     1      -7.315   4.496 -32.055  1.00  0.00     0.223 C 
HETATM   13  N   UNL     1      -8.489   3.878 -31.669  1.00  0.00    -0.359 N 
HETATM   14  H   UNL     1      -8.519   3.477 -30.732  1.00  0.00     0.162 HD
HETATM   15  O   UNL     1      -7.148   4.969 -33.176  1.00  0.00    -0.273 OA
BRANCH  13  16
HETATM   16  C   UNL     1      -9.606   3.432 -32.522  1.00  0.00     0.150 C 
BRANCH  16  17
HETATM   17  C   UNL     1      -9.773   1.946 -32.949  1.00  0.00     0.254 C 
BRANCH  17  18
HETATM   18  N   UNL     1      -8.487   1.246 -33.373  1.00  0.00    -0.070 N 
HETATM   19  H   UNL     1      -7.742   1.962 -33.244  1.00  0.00     0.279 HD
HETATM   20  C   UNL     1      -8.157   0.083 -32.490  1.00  0.00     0.235 C 
HETATM   21  C   UNL     1      -6.876  -0.609 -32.916  1.00  0.00     0.028 C 
HETATM   22  C   UNL     1      -6.904  -1.023 -34.373  1.00  0.00     0.003 C 
HETATM   23  C   UNL     1      -7.195   0.192 -35.239  1.00  0.00     0.028 C 
HETATM   24  C   UNL     1      -8.511   0.856 -34.839  1.00  0.00     0.235 C 
ENDBRANCH  17  18
ENDBRANCH  16  17
ENDBRANCH  13  16
ENDBRANCH  11  12
ENDBRANCH   3  11
BRANCH   1  25
HETATM   25  C   UNL     1      -1.135   5.674 -31.279  1.00  0.00    -0.030 C 
HETATM   26  C   UNL     1      -0.552   6.932 -31.596  1.00  0.00     0.010 C 
HETATM   27  C   UNL     1       0.257   7.654 -30.653  1.00  0.00     0.007 C 
HETATM   28  C   UNL     1       0.522   7.144 -29.382  1.00  0.00    -0.062 C 
HETATM   29  C   UNL     1       1.169   7.950 -28.279  1.00  0.00     0.048 C 
HETATM   30  C   UNL     1       0.220   5.800 -29.198  1.00  0.00     0.007 C 
HETATM   31  C   UNL     1      -0.449   5.054 -30.202  1.00  0.00     0.010 C 
ENDBRANCH   1  25
BRANCH  10  32
HETATM   32  C   UNL     1      -4.028   7.195 -31.410  1.00  0.00     0.294 C 
HETATM   33  O   UNL     1      -5.090   7.796 -31.716  1.00  0.00    -0.259 OA
BRANCH  32  34
HETATM   34  O   UNL     1      -3.478   7.422 -30.204  1.00  0.00    -0.313 OA
BRANCH  34  35
HETATM   35  C   UNL     1      -3.235   8.806 -29.613  1.00  0.00     0.124 C 
HETATM   36  C   UNL     1      -2.509   8.962 -28.256  1.00  0.00     0.040 C 
HETATM   37  C   UNL     1      -2.616   9.852 -30.566  1.00  0.00     0.040 C 
ENDBRANCH  34  35
ENDBRANCH  32  34
ENDBRANCH  10  32
TORSDOF 9
ENDMDL
MODEL 3
REMARK VINA RESULT:      -7.8      4.652      8.542
REMARK  9 active torsions:
REMARK  status: ('A' for Active; 'I' for Inactive)
REMARK    1  A    between atoms: C_5  and  C_6 
REMARK    2  A    between atoms: C_8  and  C_9 
REMARK    3  A    between atoms: C_9  and  C_10 
REMARK       I    between atoms: C_10  and  N_11 
REMARK    4  A    between atoms: N_11  and  C_12 
REMARK    5  A    between atoms: C_12  and  C_13 
REMARK    6  A    between atoms: C_13  and  N_14 
REMARK    7  A    between atoms: C_28  and  C_29 
REMARK    8  A    between atoms: C_29  and  O_30 
REMARK    9  A    between atoms: O_30  and  C_31 
ROOT
HETATM    1  C   UNL     1      -2.794   5.352 -31.199  1.00  0.00     0.166 C 
HETATM    2  N   UNL     1      -3.696   4.088 -31.202  1.00  0.00    -0.319 N 
HETATM    3  C   UNL     1      -4.992   3.781 -31.308  1.00  0.00     0.011 C 
HETATM    4  C   UNL     1      -3.042   3.177 -32.183  1.00  0.00     0.170 C 
HETATM    5  S   UNL     1      -3.668   1.577 -32.158  1.00  0.00    -0.086 SA
HETATM    6  C   UNL     1      -5.258   2.458 -32.112  1.00  0.00     0.135 C 
HETATM    7  N   UNL     1      -2.593   3.731 -33.247  1.00  0.00    -0.229 NA
HETATM    8  C   UNL     1      -2.767   5.160 -33.426  1.00  0.00     0.048 C 
HETATM    9  C   UNL     1      -2.235   5.279 -34.857  1.00  0.00     0.071 C 
HETATM   10  C   UNL     1      -3.292   6.129 -32.530  1.00  0.00     0.069 C 
ENDROOT
BRANCH   3  11
HETATM   11  C   UNL     1      -6.224   4.673 -31.152  1.00  0.00     0.156 C 
BRANCH  11  12
HETATM   12  C   UNL     1      -6.625   5.114 -29.751  1.00  0.00     0.223 C 
HETATM   13  N   UNL     1      -5.827   6.091 -29.189  1.00  0.00    -0.359 N 
HETATM   14  H   UNL     1      -5.017   6.399 -29.727  1.00  0.00     0.162 HD
HETATM   15  O   UNL     1      -7.597   4.633 -29.174  1.00  0.00    -0.273 OA
BRANCH  13  16
HETATM   16  C   UNL     1      -5.788   6.539 -27.784  1.00  0.00     0.150 C 
BRANCH  16  17
HETATM   17  C   UNL     1      -4.893   5.839 -26.722  1.00  0.00     0.254 C 
BRANCH  17  18
HETATM   18  N   UNL     1      -3.912   6.754 -25.998  1.00  0.00    -0.070 N 
HETATM   19  H   UNL     1      -3.723   6.274 -25.094  1.00  0.00     0.279 HD
HETATM   20  C   UNL     1      -2.611   6.879 -26.727  1.00  0.00     0.235 C 
HETATM   21  C   UNL     1      -1.638   7.790 -26.003  1.00  0.00     0.028 C 
HETATM   22  C   UNL     1      -2.234   9.153 -25.714  1.00  0.00     0.003 C 
HETATM   23  C   UNL     1      -3.527   8.985 -24.933  1.00  0.00     0.028 C 
HETATM   24  C   UNL     1      -4.522   8.108 -25.690  1.00  0.00     0.235 C 
ENDBRANCH  17  18
ENDBRANCH  16  17
ENDBRANCH  13  16
ENDBRANCH  11  12
ENDBRANCH   3  11
BRANCH   1  25
HETATM   25  C   UNL     1      -1.080   5.588 -31.259  1.00  0.00    -0.030 C 
HETATM   26  C   UNL     1      -0.437   6.793 -31.653  1.00  0.00     0.010 C 
HETATM   27  C   UNL     1       0.351   7.569 -30.737  1.00  0.00     0.007 C 
HETATM   28  C   UNL     1       0.537   7.165 -29.414  1.00  0.00    -0.062 C 
HETATM   29  C   UNL     1       1.159   8.044 -28.354  1.00  0.00     0.048 C 
HETATM   30  C   UNL     1       0.178   5.853 -29.131  1.00  0.00     0.007 C 
HETATM   31  C   UNL     1      -0.469   5.043 -30.100  1.00  0.00     0.010 C 
ENDBRANCH   1  25
BRANCH  10  32
HETATM   32  C   UNL     1      -3.905   7.222 -31.471  1.00  0.00     0.294 C 
HETATM   33  O   UNL     1      -4.980   7.804 -31.769  1.00  0.00    -0.259 OA
BRANCH  32  34
HETATM   34  O   UNL     1      -3.335   7.481 -30.281  1.00  0.00    -0.313 OA
BRANCH  34  35
HETATM   35  C   UNL     1      -2.998   8.877 -29.770  1.00  0.00     0.124 C 
HETATM   36  C   UNL     1      -2.413   9.942 -30.726  1.00  0.00     0.040 C 
HETATM   37  C   UNL     1      -4.098   9.581 -28.945  1.00  0.00     0.040 C 
ENDBRANCH  34  35
ENDBRANCH  32  34
ENDBRANCH  10  32
TORSDOF 9
ENDMDL
MODEL 4
REMARK VINA RESULT:      -7.6      4.503      5.970
REMARK  9 active torsions:
REMARK  status: ('A' for Active; 'I' for Inactive)
REMARK    1  A    between atoms: C_5  and  C_6 
REMARK    2  A    between atoms: C_8  and  C_9 
REMARK    3  A    between atoms: C_9  and  C_10 
REMARK       I    between atoms: C_10  and  N_11 
REMARK    4  A    between atoms: N_11  and  C_12 
REMARK    5  A    between atoms: C_12  and  C_13 
REMARK    6  A    between atoms: C_13  and  N_14 
REMARK    7  A    between atoms: C_28  and  C_29 
REMARK    8  A    between atoms: C_29  and  O_30 
REMARK    9  A    between atoms: O_30  and  C_31 
ROOT
HETATM    1  C   UNL     1      -2.899   7.324 -29.281  1.00  0.00     0.166 C 
HETATM    2  N   UNL     1      -3.512   6.379 -30.350  1.00  0.00    -0.319 N 
HETATM    3  C   UNL     1      -4.603   5.625 -30.515  1.00  0.00     0.011 C 
HETATM    4  C   UNL     1      -3.439   7.163 -31.615  1.00  0.00     0.170 C 
HETATM    5  S   UNL     1      -3.777   6.234 -33.020  1.00  0.00    -0.086 SA
HETATM    6  C   UNL     1      -5.141   5.616 -31.990  1.00  0.00     0.135 C 
HETATM    7  N   UNL     1      -3.728   8.407 -31.518  1.00  0.00    -0.229 NA
HETATM    8  C   UNL     1      -4.115   8.944 -30.227  1.00  0.00     0.048 C 
HETATM    9  C   UNL     1      -4.500  10.358 -30.672  1.00  0.00     0.071 C 
HETATM   10  C   UNL     1      -4.136   8.316 -28.953  1.00  0.00     0.069 C 
ENDROOT
BRANCH   3  11
HETATM   11  C   UNL     1      -5.614   5.128 -29.480  1.00  0.00     0.156 C 
BRANCH  11  12
HETATM   12  C   UNL     1      -6.362   3.833 -29.761  1.00  0.00     0.223 C 
HETATM   13  N   UNL     1      -5.613   2.680 -29.633  1.00  0.00    -0.359 N 
HETATM   14  H   UNL     1      -4.624   2.787 -29.412  1.00  0.00     0.162 HD
HETATM   15  O   UNL     1      -7.549   3.825 -30.074  1.00  0.00    -0.273 OA
BRANCH  13  16
HETATM   16  C   UNL     1      -5.958   1.315 -30.077  1.00  0.00     0.150 C 
BRANCH  16  17
HETATM   17  C   UNL     1      -4.910   0.374 -30.735  1.00  0.00     0.254 C 
BRANCH  17  18
HETATM   18  N   UNL     1      -5.247  -0.082 -32.150  1.00  0.00    -0.070 N 
HETATM   19  H   UNL     1      -4.907   0.687 -32.763  1.00  0.00     0.279 HD
HETATM   20  C   UNL     1      -4.512  -1.329 -32.533  1.00  0.00     0.235 C 
HETATM   21  C   UNL     1      -4.851  -1.779 -33.941  1.00  0.00     0.028 C 
HETATM   22  C   UNL     1      -6.343  -1.941 -34.149  1.00  0.00     0.003 C 
HETATM   23  C   UNL     1      -7.048  -0.642 -33.794  1.00  0.00     0.028 C 
HETATM   24  C   UNL     1      -6.744  -0.219 -32.359  1.00  0.00     0.235 C 
ENDBRANCH  17  18
ENDBRANCH  16  17
ENDBRANCH  13  16
ENDBRANCH  11  12
ENDBRANCH   3  11
BRANCH   1  25
HETATM   25  C   UNL     1      -1.552   8.412 -29.291  1.00  0.00    -0.030 C 
HETATM   26  C   UNL     1      -1.315   9.422 -28.319  1.00  0.00     0.010 C 
HETATM   27  C   UNL     1      -0.177   9.382 -27.444  1.00  0.00     0.007 C 
HETATM   28  C   UNL     1       0.762   8.352 -27.517  1.00  0.00    -0.062 C 
HETATM   29  C   UNL     1       1.843   8.135 -26.485  1.00  0.00     0.048 C 
HETATM   30  C   UNL     1       0.694   7.559 -28.657  1.00  0.00     0.007 C 
HETATM   31  C   UNL     1      -0.357   7.710 -29.597  1.00  0.00     0.010 C 
ENDBRANCH   1  25
BRANCH  10  32
HETATM   32  C   UNL     1      -4.151   7.560 -27.497  1.00  0.00     0.294 C 
HETATM   33  O   UNL     1      -5.075   7.837 -26.689  1.00  0.00    -0.259 OA
BRANCH  32  34
HETATM   34  O   UNL     1      -3.251   6.621 -27.156  1.00  0.00    -0.313 OA
BRANCH  34  35
HETATM   35  C   UNL     1      -2.508   6.580 -25.825  1.00  0.00     0.124 C 
HETATM   36  C   UNL     1      -1.151   5.848 -25.708  1.00  0.00     0.040 C 
HETATM   37  C   UNL     1      -2.344   7.932 -25.097  1.00  0.00     0.040 C 
ENDBRANCH  34  35
ENDBRANCH  32  34
ENDBRANCH  10  32
TORSDOF 9
ENDMDL
MODEL 5
REMARK VINA RESULT:      -7.6      2.779      7.159
REMARK  9 active torsions:
REMARK  status: ('A' for Active; 'I' for Inactive)
REMARK    1  A    between atoms: C_5  and  C_6 
REMARK    2  A    between atoms: C_8  and  C_9 
REMARK    3  A    between atoms: C_9  and  C_10 
REMARK       I    between atoms: C_10  and  N_11 
REMARK    4  A    between atoms: N_11  and  C_12 
REMARK    5  A    between atoms: C_12  and  C_13 
REMARK    6  A    between atoms: C_13  and  N_14 
REMARK    7  A    between atoms: C_28  and  C_29 
REMARK    8  A    between atoms: C_29  and  O_30 
REMARK    9  A    between atoms: O_30  and  C_31 
ROOT
HETATM    1  C   UNL     1      -7.796   2.862 -32.674  1.00  0.00     0.166 C 
HETATM    2  N   UNL     1      -8.481   3.607 -31.497  1.00  0.00    -0.319 N 
HETATM    3  C   UNL     1      -8.407   4.790 -30.880  1.00  0.00     0.011 C 
HETATM    4  C   UNL     1      -9.938   3.444 -31.760  1.00  0.00     0.170 C 
HETATM    5  S   UNL     1     -10.933   3.917 -30.442  1.00  0.00    -0.086 SA
HETATM    6  C   UNL     1      -9.802   5.341 -30.414  1.00  0.00     0.135 C 
HETATM    7  N   UNL     1     -10.302   3.563 -32.982  1.00  0.00    -0.229 NA
HETATM    8  C   UNL     1      -9.302   3.861 -33.991  1.00  0.00     0.048 C 
HETATM    9  C   UNL     1     -10.235   4.059 -35.189  1.00  0.00     0.071 C 
HETATM   10  C   UNL     1      -7.890   3.952 -33.868  1.00  0.00     0.069 C 
ENDROOT
BRANCH   3  11
HETATM   11  C   UNL     1      -7.303   5.847 -30.921  1.00  0.00     0.156 C 
BRANCH  11  12
HETATM   12  C   UNL     1      -6.101   5.674 -30.002  1.00  0.00     0.223 C 
HETATM   13  N   UNL     1      -5.373   6.823 -29.763  1.00  0.00    -0.359 N 
HETATM   14  H   UNL     1      -5.663   7.670 -30.249  1.00  0.00     0.162 HD
HETATM   15  O   UNL     1      -5.812   4.587 -29.511  1.00  0.00    -0.273 OA
BRANCH  13  16
HETATM   16  C   UNL     1      -4.038   6.942 -29.145  1.00  0.00     0.150 C 
BRANCH  16  17
HETATM   17  C   UNL     1      -3.162   8.215 -29.320  1.00  0.00     0.254 C 
BRANCH  17  18
HETATM   18  N   UNL     1      -1.797   7.980 -29.957  1.00  0.00    -0.070 N 
HETATM   19  H   UNL     1      -1.394   8.932 -30.075  1.00  0.00     0.279 HD
HETATM   20  C   UNL     1      -0.881   7.206 -29.061  1.00  0.00     0.235 C 
HETATM   21  C   UNL     1       0.476   6.974 -29.699  1.00  0.00     0.028 C 
HETATM   22  C   UNL     1       0.366   6.321 -31.061  1.00  0.00     0.003 C 
HETATM   23  C   UNL     1      -0.533   7.160 -31.954  1.00  0.00     0.028 C 
HETATM   24  C   UNL     1      -1.915   7.348 -31.331  1.00  0.00     0.235 C 
ENDBRANCH  17  18
ENDBRANCH  16  17
ENDBRANCH  13  16
ENDBRANCH  11  12
ENDBRANCH   3  11
BRANCH   1  25
HETATM   25  C   UNL     1      -8.142   1.382 -33.505  1.00  0.00    -0.030 C 
HETATM   26  C   UNL     1      -7.659   1.042 -34.798  1.00  0.00     0.010 C 
HETATM   27  C   UNL     1      -6.753  -0.053 -35.006  1.00  0.00     0.007 C 
HETATM   28  C   UNL     1      -6.315  -0.847 -33.946  1.00  0.00    -0.062 C 
HETATM   29  C   UNL     1      -5.198  -1.858 -34.068  1.00  0.00     0.048 C 
HETATM   30  C   UNL     1      -7.025  -0.710 -32.760  1.00  0.00     0.007 C 
HETATM   31  C   UNL     1      -8.029   0.283 -32.615  1.00  0.00     0.010 C 
ENDBRANCH   1  25
BRANCH  10  32
HETATM   32  C   UNL     1      -6.262   4.052 -33.691  1.00  0.00     0.294 C 
HETATM   33  O   UNL     1      -5.610   4.726 -34.530  1.00  0.00    -0.259 OA
BRANCH  32  34
HETATM   34  O   UNL     1      -5.606   3.489 -32.662  1.00  0.00    -0.313 OA
BRANCH  34  35
HETATM   35  C   UNL     1      -4.153   3.031 -32.708  1.00  0.00     0.124 C 
HETATM   36  C   UNL     1      -3.052   3.843 -31.987  1.00  0.00     0.040 C 
HETATM   37  C   UNL     1      -3.898   1.546 -32.370  1.00  0.00     0.040 C 
ENDBRANCH  34  35
ENDBRANCH  32  34
ENDBRANCH  10  32
TORSDOF 9
ENDMDL
MODEL 6
REMARK VINA RESULT:      -7.6      1.861      2.554
REMARK  9 active torsions:
REMARK  status: ('A' for Active; 'I' for Inactive)
REMARK    1  A    between atoms: C_5  and  C_6 
REMARK    2  A    between atoms: C_8  and  C_9 
REMARK    3  A    between atoms: C_9  and  C_10 
REMARK       I    between atoms: C_10  and  N_11 
REMARK    4  A    between atoms: N_11  and  C_12 
REMARK    5  A    between atoms: C_12  and  C_13 
REMARK    6  A    between atoms: C_13  and  N_14 
REMARK    7  A    between atoms: C_28  and  C_29 
REMARK    8  A    between atoms: C_29  and  O_30 
REMARK    9  A    between atoms: O_30  and  C_31 
ROOT
HETATM    1  C   UNL     1      -5.865   4.232 -31.187  1.00  0.00     0.166 C 
HETATM    2  N   UNL     1      -7.357   4.615 -31.384  1.00  0.00    -0.319 N 
HETATM    3  C   UNL     1      -8.565   4.091 -31.155  1.00  0.00     0.011 C 
HETATM    4  C   UNL     1      -7.459   5.986 -30.812  1.00  0.00     0.170 C 
HETATM    5  S   UNL     1      -8.943   6.772 -31.172  1.00  0.00    -0.086 SA
HETATM    6  C   UNL     1      -9.634   5.154 -30.714  1.00  0.00     0.135 C 
HETATM    7  N   UNL     1      -6.812   6.188 -29.725  1.00  0.00    -0.229 NA
HETATM    8  C   UNL     1      -6.065   5.094 -29.134  1.00  0.00     0.048 C 
HETATM    9  C   UNL     1      -5.642   5.781 -27.832  1.00  0.00     0.071 C 
HETATM   10  C   UNL     1      -5.830   3.784 -29.631  1.00  0.00     0.069 C 
ENDROOT
BRANCH   3  11
HETATM   11  C   UNL     1      -8.964   2.646 -30.857  1.00  0.00     0.156 C 
BRANCH  11  12
HETATM   12  C   UNL     1      -9.093   1.674 -32.022  1.00  0.00     0.223 C 
HETATM   13  N   UNL     1      -8.000   0.856 -32.231  1.00  0.00    -0.359 N 
HETATM   14  H   UNL     1      -7.189   0.997 -31.632  1.00  0.00     0.162 HD
HETATM   15  O   UNL     1     -10.105   1.627 -32.716  1.00  0.00    -0.273 OA
BRANCH  13  16
HETATM   16  C   UNL     1      -7.708   0.010 -33.404  1.00  0.00     0.150 C 
BRANCH  16  17
HETATM   17  C   UNL     1      -6.260  -0.426 -33.764  1.00  0.00     0.254 C 
BRANCH  17  18
HETATM   18  N   UNL     1      -6.018  -1.932 -33.764  1.00  0.00    -0.070 N 
HETATM   19  H   UNL     1      -6.153  -2.220 -32.772  1.00  0.00     0.279 HD
HETATM   20  C   UNL     1      -7.025  -2.667 -34.592  1.00  0.00     0.235 C 
HETATM   21  C   UNL     1      -6.780  -4.164 -34.588  1.00  0.00     0.028 C 
HETATM   22  C   UNL     1      -5.368  -4.516 -35.008  1.00  0.00     0.003 C 
HETATM   23  C   UNL     1      -4.377  -3.788 -34.114  1.00  0.00     0.028 C 
HETATM   24  C   UNL     1      -4.595  -2.277 -34.161  1.00  0.00     0.235 C 
ENDBRANCH  17  18
ENDBRANCH  16  17
ENDBRANCH  13  16
ENDBRANCH  11  12
ENDBRANCH   3  11
BRANCH   1  25
HETATM   25  C   UNL     1      -4.382   5.112 -31.346  1.00  0.00    -0.030 C 
HETATM   26  C   UNL     1      -3.083   4.538 -31.278  1.00  0.00     0.010 C 
HETATM   27  C   UNL     1      -2.198   4.524 -32.410  1.00  0.00     0.007 C 
HETATM   28  C   UNL     1      -2.569   5.091 -33.630  1.00  0.00    -0.062 C 
HETATM   29  C   UNL     1      -1.781   4.908 -34.906  1.00  0.00     0.048 C 
HETATM   30  C   UNL     1      -3.689   5.913 -33.595  1.00  0.00     0.007 C 
HETATM   31  C   UNL     1      -4.473   6.036 -32.419  1.00  0.00     0.010 C 
ENDBRANCH   1  25
BRANCH  10  32
HETATM   32  C   UNL     1      -5.579   2.279 -30.233  1.00  0.00     0.294 C 
HETATM   33  O   UNL     1      -6.022   1.295 -29.586  1.00  0.00    -0.259 OA
BRANCH  32  34
HETATM   34  O   UNL     1      -4.967   2.059 -31.410  1.00  0.00    -0.313 OA
BRANCH  34  35
HETATM   35  C   UNL     1      -3.742   1.172 -31.595  1.00  0.00     0.124 C 
HETATM   36  C   UNL     1      -3.717  -0.262 -31.017  1.00  0.00     0.040 C 
HETATM   37  C   UNL     1      -3.183   1.079 -33.031  1.00  0.00     0.040 C 
ENDBRANCH  34  35
ENDBRANCH  32  34
ENDBRANCH  10  32
TORSDOF 9
ENDMDL
MODEL 7
REMARK VINA RESULT:      -7.5      3.778      6.633
REMARK  9 active torsions:
REMARK  status: ('A' for Active; 'I' for Inactive)
REMARK    1  A    between atoms: C_5  and  C_6 
REMARK    2  A    between atoms: C_8  and  C_9 
REMARK    3  A    between atoms: C_9  and  C_10 
REMARK       I    between atoms: C_10  and  N_11 
REMARK    4  A    between atoms: N_11  and  C_12 
REMARK    5  A    between atoms: C_12  and  C_13 
REMARK    6  A    between atoms: C_13  and  N_14 
REMARK    7  A    between atoms: C_28  and  C_29 
REMARK    8  A    between atoms: C_29  and  O_30 
REMARK    9  A    between atoms: O_30  and  C_31 
ROOT
HETATM    1  C   UNL     1      -3.011   5.275 -31.249  1.00  0.00     0.166 C 
HETATM    2  N   UNL     1      -3.770   3.921 -31.189  1.00  0.00    -0.319 N 
HETATM    3  C   UNL     1      -5.029   3.475 -31.223  1.00  0.00     0.011 C 
HETATM    4  C   UNL     1      -3.072   3.068 -32.191  1.00  0.00     0.170 C 
HETATM    5  S   UNL     1      -3.519   1.411 -32.113  1.00  0.00    -0.086 SA
HETATM    6  C   UNL     1      -5.190   2.117 -31.995  1.00  0.00     0.135 C 
HETATM    7  N   UNL     1      -2.740   3.647 -33.284  1.00  0.00    -0.229 NA
HETATM    8  C   UNL     1      -3.076   5.046 -33.472  1.00  0.00     0.048 C 
HETATM    9  C   UNL     1      -2.633   5.195 -34.931  1.00  0.00     0.071 C 
HETATM   10  C   UNL     1      -3.656   5.970 -32.562  1.00  0.00     0.069 C 
ENDROOT
BRANCH   3  11
HETATM   11  C   UNL     1      -6.340   4.233 -31.014  1.00  0.00     0.156 C 
BRANCH  11  12
HETATM   12  C   UNL     1      -7.477   4.000 -32.000  1.00  0.00     0.223 C 
HETATM   13  N   UNL     1      -8.438   3.097 -31.589  1.00  0.00    -0.359 N 
HETATM   14  H   UNL     1      -8.289   2.629 -30.696  1.00  0.00     0.162 HD
HETATM   15  O   UNL     1      -7.528   4.584 -33.079  1.00  0.00    -0.273 OA
BRANCH  13  16
HETATM   16  C   UNL     1      -9.501   2.469 -32.397  1.00  0.00     0.150 C 
BRANCH  16  17
HETATM   17  C   UNL     1     -10.860   3.178 -32.661  1.00  0.00     0.254 C 
BRANCH  17  18
HETATM   18  N   UNL     1     -12.076   2.258 -32.687  1.00  0.00    -0.070 N 
HETATM   19  H   UNL     1     -12.051   1.763 -31.772  1.00  0.00     0.279 HD
HETATM   20  C   UNL     1     -13.362   3.022 -32.756  1.00  0.00     0.235 C 
HETATM   21  C   UNL     1     -14.568   2.102 -32.781  1.00  0.00     0.028 C 
HETATM   22  C   UNL     1     -14.484   1.075 -33.892  1.00  0.00     0.003 C 
HETATM   23  C   UNL     1     -13.189   0.291 -33.760  1.00  0.00     0.028 C 
HETATM   24  C   UNL     1     -11.975   1.217 -33.786  1.00  0.00     0.235 C 
ENDBRANCH  17  18
ENDBRANCH  16  17
ENDBRANCH  13  16
ENDBRANCH  11  12
ENDBRANCH   3  11
BRANCH   1  25
HETATM   25  C   UNL     1      -1.337   5.692 -31.402  1.00  0.00    -0.030 C 
HETATM   26  C   UNL     1      -0.844   7.003 -31.645  1.00  0.00     0.010 C 
HETATM   27  C   UNL     1      -0.047   7.707 -30.679  1.00  0.00     0.007 C 
HETATM   28  C   UNL     1       0.295   7.126 -29.456  1.00  0.00    -0.062 C 
HETATM   29  C   UNL     1       0.931   7.892 -28.319  1.00  0.00     0.048 C 
HETATM   30  C   UNL     1       0.082   5.756 -29.362  1.00  0.00     0.007 C 
HETATM   31  C   UNL     1      -0.576   5.042 -30.396  1.00  0.00     0.010 C 
ENDBRANCH   1  25
BRANCH  10  32
HETATM   32  C   UNL     1      -4.329   7.010 -31.487  1.00  0.00     0.294 C 
HETATM   33  O   UNL     1      -5.380   7.617 -31.820  1.00  0.00    -0.259 OA
BRANCH  32  34
HETATM   34  O   UNL     1      -3.837   7.199 -30.250  1.00  0.00    -0.313 OA
BRANCH  34  35
HETATM   35  C   UNL     1      -3.570   8.563 -29.625  1.00  0.00     0.124 C 
HETATM   36  C   UNL     1      -3.091   9.746 -30.498  1.00  0.00     0.040 C 
HETATM   37  C   UNL     1      -4.679   9.115 -28.703  1.00  0.00     0.040 C 
ENDBRANCH  34  35
ENDBRANCH  32  34
ENDBRANCH  10  32
TORSDOF 9
ENDMDL
MODEL 8
REMARK VINA RESULT:      -7.4      2.467      4.135
REMARK  9 active torsions:
REMARK  status: ('A' for Active; 'I' for Inactive)
REMARK    1  A    between atoms: C_5  and  C_6 
REMARK    2  A    between atoms: C_8  and  C_9 
REMARK    3  A    between atoms: C_9  and  C_10 
REMARK       I    between atoms: C_10  and  N_11 
REMARK    4  A    between atoms: N_11  and  C_12 
REMARK    5  A    between atoms: C_12  and  C_13 
REMARK    6  A    between atoms: C_13  and  N_14 
REMARK    7  A    between atoms: C_28  and  C_29 
REMARK    8  A    between atoms: C_29  and  O_30 
REMARK    9  A    between atoms: O_30  and  C_31 
ROOT
HETATM    1  C   UNL     1      -4.829   6.635 -31.690  1.00  0.00     0.166 C 
HETATM    2  N   UNL     1      -6.213   7.059 -32.252  1.00  0.00    -0.319 N 
HETATM    3  C   UNL     1      -7.277   6.491 -32.828  1.00  0.00     0.011 C 
HETATM    4  C   UNL     1      -6.807   7.890 -31.169  1.00  0.00     0.170 C 
HETATM    5  S   UNL     1      -8.220   8.740 -31.651  1.00  0.00    -0.086 SA
HETATM    6  C   UNL     1      -8.642   7.133 -32.390  1.00  0.00     0.135 C 
HETATM    7  N   UNL     1      -6.626   7.465 -29.974  1.00  0.00    -0.229 NA
HETATM    8  C   UNL     1      -5.896   6.228 -29.768  1.00  0.00     0.048 C 
HETATM    9  C   UNL     1      -6.101   6.089 -28.257  1.00  0.00     0.071 C 
HETATM   10  C   UNL     1      -5.219   5.407 -30.710  1.00  0.00     0.069 C 
ENDROOT
BRANCH   3  11
HETATM   11  C   UNL     1      -7.417   5.118 -33.485  1.00  0.00     0.156 C 
BRANCH  11  12
HETATM   12  C   UNL     1      -8.419   4.133 -32.899  1.00  0.00     0.223 C 
HETATM   13  N   UNL     1      -8.032   3.532 -31.717  1.00  0.00    -0.359 N 
HETATM   14  H   UNL     1      -7.103   3.754 -31.362  1.00  0.00     0.162 HD
HETATM   15  O   UNL     1      -9.494   3.901 -33.445  1.00  0.00    -0.273 OA
BRANCH  13  16
HETATM   16  C   UNL     1      -8.642   2.368 -31.046  1.00  0.00     0.150 C 
BRANCH  16  17
HETATM   17  C   UNL     1      -8.840   1.009 -31.776  1.00  0.00     0.254 C 
BRANCH  17  18
HETATM   18  N   UNL     1      -7.830   0.713 -32.879  1.00  0.00    -0.070 N 
HETATM   19  H   UNL     1      -7.329   1.613 -33.026  1.00  0.00     0.279 HD
HETATM   20  C   UNL     1      -6.818  -0.308 -32.460  1.00  0.00     0.235 C 
HETATM   21  C   UNL     1      -5.815  -0.599 -33.560  1.00  0.00     0.028 C 
HETATM   22  C   UNL     1      -6.487  -0.998 -34.858  1.00  0.00     0.003 C 
HETATM   23  C   UNL     1      -7.470   0.084 -35.273  1.00  0.00     0.028 C 
HETATM   24  C   UNL     1      -8.509   0.337 -34.183  1.00  0.00     0.235 C 
ENDBRANCH  17  18
ENDBRANCH  16  17
ENDBRANCH  13  16
ENDBRANCH  11  12
ENDBRANCH   3  11
BRANCH   1  25
HETATM   25  C   UNL     1      -3.617   7.464 -30.771  1.00  0.00    -0.030 C 
HETATM   26  C   UNL     1      -2.830   6.875 -29.744  1.00  0.00     0.010 C 
HETATM   27  C   UNL     1      -1.407   6.721 -29.870  1.00  0.00     0.007 C 
HETATM   28  C   UNL     1      -0.726   7.160 -31.007  1.00  0.00    -0.062 C 
HETATM   29  C   UNL     1       0.719   6.824 -31.293  1.00  0.00     0.048 C 
HETATM   30  C   UNL     1      -1.442   8.003 -31.848  1.00  0.00     0.007 C 
HETATM   31  C   UNL     1      -2.818   8.268 -31.625  1.00  0.00     0.010 C 
ENDBRANCH   1  25
BRANCH  10  32
HETATM   32  C   UNL     1      -4.448   4.481 -31.823  1.00  0.00     0.294 C 
HETATM   33  O   UNL     1      -4.986   3.399 -32.176  1.00  0.00    -0.259 OA
BRANCH  32  34
HETATM   34  O   UNL     1      -3.298   4.855 -32.410  1.00  0.00    -0.313 OA
BRANCH  34  35
HETATM   35  C   UNL     1      -2.994   4.696 -33.895  1.00  0.00     0.124 C 
HETATM   36  C   UNL     1      -4.008   5.179 -34.959  1.00  0.00     0.040 C 
HETATM   37  C   UNL     1      -1.603   5.183 -34.358  1.00  0.00     0.040 C 
ENDBRANCH  34  35
ENDBRANCH  32  34
ENDBRANCH  10  32
TORSDOF 9
ENDMDL
MODEL 9
REMARK VINA RESULT:      -7.3      2.822      5.766
REMARK  9 active torsions:
REMARK  status: ('A' for Active; 'I' for Inactive)
REMARK    1  A    between atoms: C_5  and  C_6 
REMARK    2  A    between atoms: C_8  and  C_9 
REMARK    3  A    between atoms: C_9  and  C_10 
REMARK       I    between atoms: C_10  and  N_11 
REMARK    4  A    between atoms: N_11  and  C_12 
REMARK    5  A    between atoms: C_12  and  C_13 
REMARK    6  A    between atoms: C_13  and  N_14 
REMARK    7  A    between atoms: C_28  and  C_29 
REMARK    8  A    between atoms: C_29  and  O_30 
REMARK    9  A    between atoms: O_30  and  C_31 
ROOT
HETATM    1  C   UNL     1     -10.670   4.532 -33.167  1.00  0.00     0.166 C 
HETATM    2  N   UNL     1     -10.560   5.679 -32.125  1.00  0.00    -0.319 N 
HETATM    3  C   UNL     1      -9.610   6.333 -31.451  1.00  0.00     0.011 C 
HETATM    4  C   UNL     1     -11.394   6.772 -32.697  1.00  0.00     0.170 C 
HETATM    5  S   UNL     1     -11.692   8.057 -31.597  1.00  0.00    -0.086 SA
HETATM    6  C   UNL     1      -9.916   7.862 -31.263  1.00  0.00     0.135 C 
HETATM    7  N   UNL     1     -11.292   6.949 -33.961  1.00  0.00    -0.229 NA
HETATM    8  C   UNL     1     -10.383   6.112 -34.721  1.00  0.00     0.048 C 
HETATM    9  C   UNL     1     -10.505   6.812 -36.078  1.00  0.00     0.071 C 
HETATM   10  C   UNL     1      -9.611   4.997 -34.299  1.00  0.00     0.069 C 
ENDROOT
BRANCH   3  11
HETATM   11  C   UNL     1      -8.148   5.956 -31.208  1.00  0.00     0.156 C 
BRANCH  11  12
HETATM   12  C   UNL     1      -7.848   4.720 -30.370  1.00  0.00     0.223 C 
HETATM   13  N   UNL     1      -6.975   3.817 -30.944  1.00  0.00    -0.359 N 
HETATM   14  H   UNL     1      -6.643   4.021 -31.886  1.00  0.00     0.162 HD
HETATM   15  O   UNL     1      -8.349   4.552 -29.262  1.00  0.00    -0.273 OA
BRANCH  13  16
HETATM   16  C   UNL     1      -6.688   2.433 -30.520  1.00  0.00     0.150 C 
BRANCH  16  17
HETATM   17  C   UNL     1      -5.259   1.825 -30.608  1.00  0.00     0.254 C 
BRANCH  17  18
HETATM   18  N   UNL     1      -5.013   0.923 -31.812  1.00  0.00    -0.070 N 
HETATM   19  H   UNL     1      -5.192   1.531 -32.638  1.00  0.00     0.279 HD
HETATM   20  C   UNL     1      -3.592   0.458 -31.890  1.00  0.00     0.235 C 
HETATM   21  C   UNL     1      -3.351  -0.439 -33.090  1.00  0.00     0.028 C 
HETATM   22  C   UNL     1      -4.311  -1.610 -33.132  1.00  0.00     0.003 C 
HETATM   23  C   UNL     1      -5.741  -1.095 -33.099  1.00  0.00     0.028 C 
HETATM   24  C   UNL     1      -5.992  -0.234 -31.863  1.00  0.00     0.235 C 
ENDBRANCH  17  18
ENDBRANCH  16  17
ENDBRANCH  13  16
ENDBRANCH  11  12
ENDBRANCH   3  11
BRANCH   1  25
HETATM   25  C   UNL     1     -11.978   3.917 -34.121  1.00  0.00    -0.030 C 
HETATM   26  C   UNL     1     -11.836   3.008 -35.205  1.00  0.00     0.010 C 
HETATM   27  C   UNL     1     -12.378   1.678 -35.158  1.00  0.00     0.007 C 
HETATM   28  C   UNL     1     -13.084   1.219 -34.045  1.00  0.00    -0.062 C 
HETATM   29  C   UNL     1     -13.475  -0.226 -33.845  1.00  0.00     0.048 C 
HETATM   30  C   UNL     1     -13.483   2.197 -33.142  1.00  0.00     0.007 C 
HETATM   31  C   UNL     1     -13.062   3.545 -33.285  1.00  0.00     0.010 C 
ENDBRANCH   1  25
BRANCH  10  32
HETATM   32  C   UNL     1      -8.731   3.713 -33.779  1.00  0.00     0.294 C 
HETATM   33  O   UNL     1      -7.503   3.681 -34.050  1.00  0.00    -0.259 OA
BRANCH  32  34
HETATM   34  O   UNL     1      -9.256   2.726 -33.033  1.00  0.00    -0.313 OA
BRANCH  34  35
HETATM   35  C   UNL     1      -8.943   1.246 -33.214  1.00  0.00     0.124 C 
HETATM   36  C   UNL     1      -9.759   0.173 -32.456  1.00  0.00     0.040 C 
HETATM   37  C   UNL     1      -8.814   0.753 -34.672  1.00  0.00     0.040 C 
ENDBRANCH  34  35
ENDBRANCH  32  34
ENDBRANCH  10  32
TORSDOF 9
ENDMDL
MODEL 10
REMARK VINA RESULT:      -7.3     16.151     19.226
REMARK  9 active torsions:
REMARK  status: ('A' for Active; 'I' for Inactive)
REMARK    1  A    between atoms: C_5  and  C_6 
REMARK    2  A    between atoms: C_8  and  C_9 
REMARK    3  A    between atoms: C_9  and  C_10 
REMARK       I    between atoms: C_10  and  N_11 
REMARK    4  A    between atoms: N_11  and  C_12 
REMARK    5  A    between atoms: C_12  and  C_13 
REMARK    6  A    between atoms: C_13  and  N_14 
REMARK    7  A    between atoms: C_28  and  C_29 
REMARK    8  A    between atoms: C_29  and  O_30 
REMARK    9  A    between atoms: O_30  and  C_31 
ROOT
HETATM    1  C   UNL     1      -5.176 -14.698 -36.593  1.00  0.00     0.166 C 
HETATM    2  N   UNL     1      -4.139 -15.665 -35.961  1.00  0.00    -0.319 N 
HETATM    3  C   UNL     1      -2.812 -15.781 -35.852  1.00  0.00     0.011 C 
HETATM    4  C   UNL     1      -4.620 -15.853 -34.564  1.00  0.00     0.170 C 
HETATM    5  S   UNL     1      -3.820 -17.121 -33.726  1.00  0.00    -0.086 SA
HETATM    6  C   UNL     1      -2.347 -16.355 -34.466  1.00  0.00     0.135 C 
HETATM    7  N   UNL     1      -5.059 -14.801 -33.978  1.00  0.00    -0.229 NA
HETATM    8  C   UNL     1      -5.037 -13.536 -34.689  1.00  0.00     0.048 C 
HETATM    9  C   UNL     1      -5.484 -12.622 -33.544  1.00  0.00     0.071 C 
HETATM   10  C   UNL     1      -4.685 -13.259 -36.036  1.00  0.00     0.069 C 
ENDROOT
BRANCH   3  11
HETATM   11  C   UNL     1      -1.702 -15.091 -36.645  1.00  0.00     0.156 C 
BRANCH  11  12
HETATM   12  C   UNL     1      -1.304 -15.674 -37.993  1.00  0.00     0.223 C 
HETATM   13  N   UNL     1      -2.342 -15.856 -38.886  1.00  0.00    -0.359 N 
HETATM   14  H   UNL     1      -3.283 -15.636 -38.561  1.00  0.00     0.162 HD
HETATM   15  O   UNL     1      -0.139 -15.954 -38.259  1.00  0.00    -0.273 OA
BRANCH  13  16
HETATM   16  C   UNL     1      -2.335 -16.623 -40.147  1.00  0.00     0.150 C 
BRANCH  16  17
HETATM   17  C   UNL     1      -1.832 -16.005 -41.482  1.00  0.00     0.254 C 
BRANCH  17  18
HETATM   18  N   UNL     1      -2.749 -16.219 -42.681  1.00  0.00    -0.070 N 
HETATM   19  H   UNL     1      -2.131 -16.620 -43.417  1.00  0.00     0.279 HD
HETATM   20  C   UNL     1      -3.826 -17.220 -42.398  1.00  0.00     0.235 C 
HETATM   21  C   UNL     1      -4.735 -17.430 -43.594  1.00  0.00     0.028 C 
HETATM   22  C   UNL     1      -5.320 -16.129 -44.106  1.00  0.00     0.003 C 
HETATM   23  C   UNL     1      -4.195 -15.159 -44.426  1.00  0.00     0.028 C 
HETATM   24  C   UNL     1      -3.312 -14.912 -43.205  1.00  0.00     0.235 C 
ENDBRANCH  17  18
ENDBRANCH  16  17
ENDBRANCH  13  16
ENDBRANCH  11  12
ENDBRANCH   3  11
BRANCH   1  25
HETATM   25  C   UNL     1      -6.899 -14.564 -36.478  1.00  0.00    -0.030 C 
HETATM   26  C   UNL     1      -7.667 -13.482 -36.989  1.00  0.00     0.010 C 
HETATM   27  C   UNL     1      -8.612 -13.659 -38.057  1.00  0.00     0.007 C 
HETATM   28  C   UNL     1      -8.831 -14.910 -38.635  1.00  0.00    -0.062 C 
HETATM   29  C   UNL     1      -9.634 -15.114 -39.898  1.00  0.00     0.048 C 
HETATM   30  C   UNL     1      -8.321 -15.994 -37.931  1.00  0.00     0.007 C 
HETATM   31  C   UNL     1      -7.509 -15.808 -36.783  1.00  0.00     0.010 C 
ENDBRANCH   1  25
BRANCH  10  32
HETATM   32  C   UNL     1      -4.269 -12.973 -37.598  1.00  0.00     0.294 C 
HETATM   33  O   UNL     1      -3.601 -11.940 -37.859  1.00  0.00    -0.259 OA
BRANCH  32  34
HETATM   34  O   UNL     1      -4.567 -13.822 -38.597  1.00  0.00    -0.313 OA
BRANCH  34  35
HETATM   35  C   UNL     1      -5.121 -13.401 -39.953  1.00  0.00     0.124 C 
HETATM   36  C   UNL     1      -5.903 -14.408 -40.828  1.00  0.00     0.040 C 
HETATM   37  C   UNL     1      -5.921 -12.080 -39.978  1.00  0.00     0.040 C 
ENDBRANCH  34  35
ENDBRANCH  32  34
ENDBRANCH  10  32
TORSDOF 9
ENDMDL
