MODEL 1
REMARK VINA RESULT:      -8.2      0.000      0.000
REMARK  3 active torsions:
REMARK  status: ('A' for Active; 'I' for Inactive)
REMARK    1  A    between atoms: C_2  and  N_3 
REMARK       I    between atoms: N_3  and  C_4 
REMARK    2  A    between atoms: C_4  and  C_5 
REMARK    3  A    between atoms: C_5  and  C_6 
ROOT
HETATM    1  C   UNL     1      -5.184   1.494 -31.613  1.00  0.00     0.286 C 
HETATM    2  N   UNL     1      -5.105   1.877 -33.089  1.00  0.00    -0.056 N 
HETATM    3  H   UNL     1      -4.772   2.850 -33.124  1.00  0.00     0.278 HD
HETATM    4  H   UNL     1      -4.324   1.337 -33.518  1.00  0.00     0.278 HD
HETATM    5  C   UNL     1      -6.357   1.782 -33.909  1.00  0.00     0.209 C 
HETATM    6  C   UNL     1      -7.518   2.468 -33.154  1.00  0.00     0.115 C 
HETATM    7  N   UNL     1      -7.615   2.037 -31.763  1.00  0.00    -0.353 N 
HETATM    8  C   UNL     1      -6.523   1.855 -30.951  1.00  0.00     0.249 C 
HETATM    9  O   UNL     1      -6.655   1.884 -29.732  1.00  0.00    -0.271 OA
HETATM   10  C   UNL     1      -6.646   0.332 -34.296  1.00  0.00     0.035 C 
HETATM   11  C   UNL     1      -7.964   0.220 -35.058  1.00  0.00     0.002 C 
HETATM   12  C   UNL     1      -9.116   0.814 -34.253  1.00  0.00     0.002 C 
HETATM   13  C   UNL     1      -8.851   2.273 -33.886  1.00  0.00     0.027 C 
HETATM   14  H   UNL     1      -8.443   2.312 -31.236  1.00  0.00     0.163 HD
ENDROOT
BRANCH   1  15
HETATM   15  C   UNL     1      -4.904   0.006 -31.333  1.00  0.00     0.146 C 
BRANCH  15  16
HETATM   16  C   UNL     1      -3.445  -0.348 -31.379  1.00  0.00     0.224 C 
HETATM   17  N   UNL     1      -2.977  -1.441 -32.034  1.00  0.00    -0.327 N 
HETATM   18  H   UNL     1      -1.969  -1.525 -31.926  1.00  0.00     0.169 HD
HETATM   19  O   UNL     1      -2.630   0.411 -30.835  1.00  0.00    -0.273 OA
BRANCH  17  20
HETATM   20  C   UNL     1      -3.565  -2.446 -32.829  1.00  0.00     0.034 A 
HETATM   21  C   UNL     1      -4.432  -2.244 -33.906  1.00  0.00     0.032 A 
HETATM   22  C   UNL     1      -4.935  -3.333 -34.629  1.00  0.00     0.044 A 
HETATM   23  C   UNL     1      -4.574  -4.626 -34.281  1.00  0.00     0.116 A 
HETATM   24  C   UNL     1      -3.717  -4.854 -33.218  1.00  0.00     0.044 A 
HETATM   25  F   UNL     1      -5.056  -5.659 -34.981  1.00  0.00    -0.206 F 
HETATM   26  C   UNL     1      -3.215  -3.767 -32.496  1.00  0.00     0.032 A 
ENDBRANCH  17  20
ENDBRANCH  15  16
ENDBRANCH   1  15
TORSDOF 3
ENDMDL
MODEL 2
REMARK VINA RESULT:      -8.1      2.333      3.190
REMARK  3 active torsions:
REMARK  status: ('A' for Active; 'I' for Inactive)
REMARK    1  A    between atoms: C_2  and  N_3 
REMARK       I    between atoms: N_3  and  C_4 
REMARK    2  A    between atoms: C_4  and  C_5 
REMARK    3  A    between atoms: C_5  and  C_6 
ROOT
HETATM    1  C   UNL     1      -4.661   1.491 -32.023  1.00  0.00     0.286 C 
HETATM    2  N   UNL     1      -4.053   2.700 -31.316  1.00  0.00    -0.056 N 
HETATM    3  H   UNL     1      -4.673   2.924 -30.526  1.00  0.00     0.278 HD
HETATM    4  H   UNL     1      -3.172   2.391 -30.853  1.00  0.00     0.278 HD
HETATM    5  C   UNL     1      -3.845   3.952 -32.116  1.00  0.00     0.209 C 
HETATM    6  C   UNL     1      -5.136   4.279 -32.900  1.00  0.00     0.115 C 
HETATM    7  N   UNL     1      -5.662   3.124 -33.621  1.00  0.00    -0.353 N 
HETATM    8  C   UNL     1      -5.701   1.858 -33.093  1.00  0.00     0.249 C 
HETATM    9  O   UNL     1      -6.483   1.028 -33.547  1.00  0.00    -0.271 OA
HETATM   10  C   UNL     1      -2.602   3.836 -32.997  1.00  0.00     0.035 C 
HETATM   11  C   UNL     1      -2.434   5.072 -33.876  1.00  0.00     0.002 C 
HETATM   12  C   UNL     1      -3.682   5.322 -34.717  1.00  0.00     0.002 C 
HETATM   13  C   UNL     1      -4.928   5.469 -33.844  1.00  0.00     0.027 C 
HETATM   14  H   UNL     1      -6.415   3.283 -34.291  1.00  0.00     0.163 HD
ENDROOT
BRANCH   1  15
HETATM   15  C   UNL     1      -3.625   0.554 -32.670  1.00  0.00     0.146 C 
BRANCH  15  16
HETATM   16  C   UNL     1      -2.938  -0.350 -31.688  1.00  0.00     0.224 C 
HETATM   17  N   UNL     1      -3.015  -1.704 -31.762  1.00  0.00    -0.327 N 
HETATM   18  H   UNL     1      -2.508  -2.139 -30.994  1.00  0.00     0.169 HD
HETATM   19  O   UNL     1      -2.236   0.155 -30.801  1.00  0.00    -0.273 OA
BRANCH  17  20
HETATM   20  C   UNL     1      -3.610  -2.614 -32.659  1.00  0.00     0.034 A 
HETATM   21  C   UNL     1      -4.511  -2.298 -33.678  1.00  0.00     0.032 A 
HETATM   22  C   UNL     1      -5.017  -3.299 -34.518  1.00  0.00     0.044 A 
HETATM   23  C   UNL     1      -4.625  -4.619 -34.342  1.00  0.00     0.116 A 
HETATM   24  C   UNL     1      -3.734  -4.958 -33.339  1.00  0.00     0.044 A 
HETATM   25  F   UNL     1      -5.111  -5.567 -35.151  1.00  0.00    -0.206 F 
HETATM   26  C   UNL     1      -3.228  -3.960 -32.502  1.00  0.00     0.032 A 
ENDBRANCH  17  20
ENDBRANCH  15  16
ENDBRANCH   1  15
TORSDOF 3
ENDMDL
MODEL 3
REMARK VINA RESULT:      -7.9      3.528      4.822
REMARK  3 active torsions:
REMARK  status: ('A' for Active; 'I' for Inactive)
REMARK    1  A    between atoms: C_2  and  N_3 
REMARK       I    between atoms: N_3  and  C_4 
REMARK    2  A    between atoms: C_4  and  C_5 
REMARK    3  A    between atoms: C_5  and  C_6 
ROOT
HETATM    1  C   UNL     1      -5.427   4.036 -32.154  1.00  0.00     0.286 C 
HETATM    2  N   UNL     1      -4.542   4.762 -31.144  1.00  0.00    -0.056 N 
HETATM    3  H   UNL     1      -5.130   5.476 -30.695  1.00  0.00     0.278 HD
HETATM    4  H   UNL     1      -4.332   4.098 -30.368  1.00  0.00     0.278 HD
HETATM    5  C   UNL     1      -3.297   5.430 -31.648  1.00  0.00     0.209 C 
HETATM    6  C   UNL     1      -3.643   6.282 -32.891  1.00  0.00     0.115 C 
HETATM    7  N   UNL     1      -4.433   5.547 -33.874  1.00  0.00    -0.353 N 
HETATM    8  C   UNL     1      -5.465   4.708 -33.536  1.00  0.00     0.249 C 
HETATM    9  O   UNL     1      -6.328   4.434 -34.364  1.00  0.00    -0.271 OA
HETATM   10  C   UNL     1      -2.189   4.406 -31.892  1.00  0.00     0.035 C 
HETATM   11  C   UNL     1      -0.950   5.070 -32.487  1.00  0.00     0.002 C 
HETATM   12  C   UNL     1      -1.292   5.824 -33.769  1.00  0.00     0.002 C 
HETATM   13  C   UNL     1      -2.379   6.871 -33.531  1.00  0.00     0.027 C 
HETATM   14  H   UNL     1      -4.569   5.972 -34.791  1.00  0.00     0.163 HD
ENDROOT
BRANCH   1  15
HETATM   15  C   UNL     1      -5.065   2.554 -32.357  1.00  0.00     0.146 C 
BRANCH  15  16
HETATM   16  C   UNL     1      -5.473   1.675 -31.210  1.00  0.00     0.224 C 
HETATM   17  N   UNL     1      -5.795   0.366 -31.369  1.00  0.00    -0.327 N 
HETATM   18  H   UNL     1      -6.070  -0.051 -30.482  1.00  0.00     0.169 HD
HETATM   19  O   UNL     1      -5.472   2.150 -30.065  1.00  0.00    -0.273 OA
BRANCH  17  20
HETATM   20  C   UNL     1      -5.810  -0.524 -32.462  1.00  0.00     0.034 A 
HETATM   21  C   UNL     1      -6.888  -0.761 -33.318  1.00  0.00     0.032 A 
HETATM   22  C   UNL     1      -6.765  -1.662 -34.385  1.00  0.00     0.044 A 
HETATM   23  C   UNL     1      -5.568  -2.328 -34.600  1.00  0.00     0.116 A 
HETATM   24  C   UNL     1      -4.485  -2.111 -33.766  1.00  0.00     0.044 A 
HETATM   25  F   UNL     1      -5.460  -3.182 -35.623  1.00  0.00    -0.206 F 
HETATM   26  C   UNL     1      -4.605  -1.213 -32.702  1.00  0.00     0.032 A 
ENDBRANCH  17  20
ENDBRANCH  15  16
ENDBRANCH   1  15
TORSDOF 3
ENDMDL
MODEL 4
REMARK VINA RESULT:      -7.9      3.941      6.001
REMARK  3 active torsions:
REMARK  status: ('A' for Active; 'I' for Inactive)
REMARK    1  A    between atoms: C_2  and  N_3 
REMARK       I    between atoms: N_3  and  C_4 
REMARK    2  A    between atoms: C_4  and  C_5 
REMARK    3  A    between atoms: C_5  and  C_6 
ROOT
HETATM    1  C   UNL     1      -4.738   0.150 -31.081  1.00  0.00     0.286 C 
HETATM    2  N   UNL     1      -6.245   0.394 -31.127  1.00  0.00    -0.056 N 
HETATM    3  H   UNL     1      -6.668  -0.236 -30.433  1.00  0.00     0.278 HD
HETATM    4  H   UNL     1      -6.427   1.343 -30.736  1.00  0.00     0.278 HD
HETATM    5  C   UNL     1      -6.952   0.192 -32.434  1.00  0.00     0.209 C 
HETATM    6  C   UNL     1      -6.527  -1.164 -33.042  1.00  0.00     0.115 C 
HETATM    7  N   UNL     1      -5.079  -1.347 -33.048  1.00  0.00    -0.353 N 
HETATM    8  C   UNL     1      -4.269  -0.989 -32.000  1.00  0.00     0.249 C 
HETATM    9  O   UNL     1      -3.162  -1.503 -31.878  1.00  0.00    -0.271 OA
HETATM   10  C   UNL     1      -6.726   1.382 -33.366  1.00  0.00     0.035 C 
HETATM   11  C   UNL     1      -7.372   1.144 -34.728  1.00  0.00     0.002 C 
HETATM   12  C   UNL     1      -6.865  -0.150 -35.357  1.00  0.00     0.002 C 
HETATM   13  C   UNL     1      -7.112  -1.352 -34.447  1.00  0.00     0.027 C 
HETATM   14  H   UNL     1      -4.701  -2.135 -33.573  1.00  0.00     0.163 HD
ENDROOT
BRANCH   1  15
HETATM   15  C   UNL     1      -3.890   1.394 -31.397  1.00  0.00     0.146 C 
BRANCH  15  16
HETATM   16  C   UNL     1      -4.397   2.648 -30.743  1.00  0.00     0.224 C 
HETATM   17  N   UNL     1      -4.042   3.888 -31.164  1.00  0.00    -0.327 N 
HETATM   18  H   UNL     1      -4.465   4.606 -30.579  1.00  0.00     0.169 HD
HETATM   19  O   UNL     1      -5.206   2.548 -29.809  1.00  0.00    -0.273 OA
BRANCH  17  20
HETATM   20  C   UNL     1      -3.255   4.387 -32.222  1.00  0.00     0.034 A 
HETATM   21  C   UNL     1      -3.672   4.577 -33.542  1.00  0.00     0.032 A 
HETATM   22  C   UNL     1      -2.793   5.101 -34.498  1.00  0.00     0.044 A 
HETATM   23  C   UNL     1      -1.495   5.437 -34.141  1.00  0.00     0.116 A 
HETATM   24  C   UNL     1      -1.057   5.258 -32.840  1.00  0.00     0.044 A 
HETATM   25  F   UNL     1      -0.664   5.940 -35.060  1.00  0.00    -0.206 F 
HETATM   26  C   UNL     1      -1.934   4.736 -31.885  1.00  0.00     0.032 A 
ENDBRANCH  17  20
ENDBRANCH  15  16
ENDBRANCH   1  15
TORSDOF 3
ENDMDL
MODEL 5
REMARK VINA RESULT:      -7.7      2.677      3.933
REMARK  3 active torsions:
REMARK  status: ('A' for Active; 'I' for Inactive)
REMARK    1  A    between atoms: C_2  and  N_3 
REMARK       I    between atoms: N_3  and  C_4 
REMARK    2  A    between atoms: C_4  and  C_5 
REMARK    3  A    between atoms: C_5  and  C_6 
ROOT
HETATM    1  C   UNL     1      -9.062   1.319 -32.822  1.00  0.00     0.286 C 
HETATM    2  N   UNL     1      -9.313   2.819 -32.689  1.00  0.00    -0.056 N 
HETATM    3  H   UNL     1      -9.395   3.017 -31.683  1.00  0.00     0.278 HD
HETATM    4  H   UNL     1      -8.439   3.316 -32.963  1.00  0.00     0.278 HD
HETATM    5  C   UNL     1     -10.514   3.397 -33.377  1.00  0.00     0.209 C 
HETATM    6  C   UNL     1     -11.754   2.531 -33.056  1.00  0.00     0.115 C 
HETATM    7  N   UNL     1     -11.510   1.105 -33.254  1.00  0.00    -0.353 N 
HETATM    8  C   UNL     1     -10.348   0.480 -32.879  1.00  0.00     0.249 C 
HETATM    9  O   UNL     1     -10.336  -0.734 -32.699  1.00  0.00    -0.271 OA
HETATM   10  C   UNL     1     -10.255   3.568 -34.874  1.00  0.00     0.035 C 
HETATM   11  C   UNL     1     -11.502   4.074 -35.593  1.00  0.00     0.002 C 
HETATM   12  C   UNL     1     -12.692   3.152 -35.344  1.00  0.00     0.002 C 
HETATM   13  C   UNL     1     -12.980   2.996 -33.852  1.00  0.00     0.027 C 
HETATM   14  H   UNL     1     -12.312   0.476 -33.223  1.00  0.00     0.163 HD
ENDROOT
BRANCH   1  15
HETATM   15  C   UNL     1      -8.190   0.933 -34.030  1.00  0.00     0.146 C 
BRANCH  15  16
HETATM   16  C   UNL     1      -6.731   1.235 -33.837  1.00  0.00     0.224 C 
HETATM   17  N   UNL     1      -5.773   0.274 -33.877  1.00  0.00    -0.327 N 
HETATM   18  H   UNL     1      -4.853   0.670 -33.697  1.00  0.00     0.169 HD
HETATM   19  O   UNL     1      -6.382   2.413 -33.680  1.00  0.00    -0.273 OA
BRANCH  17  20
HETATM   20  C   UNL     1      -5.772  -1.113 -34.129  1.00  0.00     0.034 A 
HETATM   21  C   UNL     1      -6.860  -1.873 -34.568  1.00  0.00     0.032 A 
HETATM   22  C   UNL     1      -6.721  -3.248 -34.800  1.00  0.00     0.044 A 
HETATM   23  C   UNL     1      -5.498  -3.868 -34.595  1.00  0.00     0.116 A 
HETATM   24  C   UNL     1      -4.405  -3.139 -34.160  1.00  0.00     0.044 A 
HETATM   25  F   UNL     1      -5.374  -5.180 -34.823  1.00  0.00    -0.206 F 
HETATM   26  C   UNL     1      -4.542  -1.767 -33.929  1.00  0.00     0.032 A 
ENDBRANCH  17  20
ENDBRANCH  15  16
ENDBRANCH   1  15
TORSDOF 3
ENDMDL
MODEL 6
REMARK VINA RESULT:      -7.7      4.942      7.218
REMARK  3 active torsions:
REMARK  status: ('A' for Active; 'I' for Inactive)
REMARK    1  A    between atoms: C_2  and  N_3 
REMARK       I    between atoms: N_3  and  C_4 
REMARK    2  A    between atoms: C_4  and  C_5 
REMARK    3  A    between atoms: C_5  and  C_6 
ROOT
HETATM    1  C   UNL     1      -5.158   2.837 -32.268  1.00  0.00     0.286 C 
HETATM    2  N   UNL     1      -6.659   2.574 -32.358  1.00  0.00    -0.056 N 
HETATM    3  H   UNL     1      -7.012   2.545 -31.392  1.00  0.00     0.278 HD
HETATM    4  H   UNL     1      -7.110   3.426 -32.755  1.00  0.00     0.278 HD
HETATM    5  C   UNL     1      -7.116   1.330 -33.061  1.00  0.00     0.209 C 
HETATM    6  C   UNL     1      -6.306   0.121 -32.539  1.00  0.00     0.115 C 
HETATM    7  N   UNL     1      -4.868   0.372 -32.525  1.00  0.00    -0.353 N 
HETATM    8  C   UNL     1      -4.314   1.561 -32.122  1.00  0.00     0.249 C 
HETATM    9  O   UNL     1      -3.144   1.598 -31.755  1.00  0.00    -0.271 OA
HETATM   10  C   UNL     1      -7.051   1.506 -34.577  1.00  0.00     0.035 C 
HETATM   11  C   UNL     1      -7.432   0.216 -35.297  1.00  0.00     0.002 C 
HETATM   12  C   UNL     1      -6.556  -0.947 -34.841  1.00  0.00     0.002 C 
HETATM   13  C   UNL     1      -6.635  -1.151 -33.329  1.00  0.00     0.027 C 
HETATM   14  H   UNL     1      -4.248  -0.418 -32.351  1.00  0.00     0.163 HD
ENDROOT
BRANCH   1  15
HETATM   15  C   UNL     1      -4.590   3.648 -33.447  1.00  0.00     0.146 C 
BRANCH  15  16
HETATM   16  C   UNL     1      -5.157   5.035 -33.549  1.00  0.00     0.224 C 
HETATM   17  N   UNL     1      -4.466   6.138 -33.163  1.00  0.00    -0.327 N 
HETATM   18  H   UNL     1      -5.027   6.979 -33.283  1.00  0.00     0.169 HD
HETATM   19  O   UNL     1      -6.282   5.185 -34.047  1.00  0.00    -0.273 OA
BRANCH  17  20
HETATM   20  C   UNL     1      -3.167   6.369 -32.667  1.00  0.00     0.034 A 
HETATM   21  C   UNL     1      -2.729   6.135 -31.361  1.00  0.00     0.032 A 
HETATM   22  C   UNL     1      -1.400   6.390 -30.998  1.00  0.00     0.044 A 
HETATM   23  C   UNL     1      -0.504   6.880 -31.937  1.00  0.00     0.116 A 
HETATM   24  C   UNL     1      -0.912   7.121 -33.238  1.00  0.00     0.044 A 
HETATM   25  F   UNL     1       0.763   7.116 -31.582  1.00  0.00    -0.206 F 
HETATM   26  C   UNL     1      -2.238   6.865 -33.601  1.00  0.00     0.032 A 
ENDBRANCH  17  20
ENDBRANCH  15  16
ENDBRANCH   1  15
TORSDOF 3
ENDMDL
MODEL 7
REMARK VINA RESULT:      -7.7      4.157      6.865
REMARK  3 active torsions:
REMARK  status: ('A' for Active; 'I' for Inactive)
REMARK    1  A    between atoms: C_2  and  N_3 
REMARK       I    between atoms: N_3  and  C_4 
REMARK    2  A    between atoms: C_4  and  C_5 
REMARK    3  A    between atoms: C_5  and  C_6 
ROOT
HETATM    1  C   UNL     1      -5.939   1.872 -32.504  1.00  0.00     0.286 C 
HETATM    2  N   UNL     1      -6.749   0.635 -32.123  1.00  0.00    -0.056 N 
HETATM    3  H   UNL     1      -6.835   0.641 -31.098  1.00  0.00     0.278 HD
HETATM    4  H   UNL     1      -7.728   0.780 -32.449  1.00  0.00     0.278 HD
HETATM    5  C   UNL     1      -6.224  -0.707 -32.539  1.00  0.00     0.209 C 
HETATM    6  C   UNL     1      -4.727  -0.809 -32.165  1.00  0.00     0.115 C 
HETATM    7  N   UNL     1      -3.960   0.355 -32.598  1.00  0.00    -0.353 N 
HETATM    8  C   UNL     1      -4.420   1.643 -32.491  1.00  0.00     0.249 C 
HETATM    9  O   UNL     1      -3.626   2.579 -32.489  1.00  0.00    -0.271 OA
HETATM   10  C   UNL     1      -6.509  -0.970 -34.017  1.00  0.00     0.035 C 
HETATM   11  C   UNL     1      -5.901  -2.296 -34.466  1.00  0.00     0.002 C 
HETATM   12  C   UNL     1      -4.403  -2.338 -34.180  1.00  0.00     0.002 C 
HETATM   13  C   UNL     1      -4.107  -2.106 -32.699  1.00  0.00     0.027 C 
HETATM   14  H   UNL     1      -2.943   0.304 -32.540  1.00  0.00     0.163 HD
ENDROOT
BRANCH   1  15
HETATM   15  C   UNL     1      -6.317   2.474 -33.869  1.00  0.00     0.146 C 
BRANCH  15  16
HETATM   16  C   UNL     1      -6.991   3.812 -33.768  1.00  0.00     0.224 C 
HETATM   17  N   UNL     1      -6.303   4.982 -33.777  1.00  0.00    -0.327 N 
HETATM   18  H   UNL     1      -6.932   5.775 -33.671  1.00  0.00     0.169 HD
HETATM   19  O   UNL     1      -8.229   3.854 -33.719  1.00  0.00    -0.273 OA
BRANCH  17  20
HETATM   20  C   UNL     1      -4.944   5.330 -33.920  1.00  0.00     0.034 A 
HETATM   21  C   UNL     1      -4.123   5.019 -35.006  1.00  0.00     0.032 A 
HETATM   22  C   UNL     1      -2.787   5.442 -35.033  1.00  0.00     0.044 A 
HETATM   23  C   UNL     1      -2.268   6.177 -33.978  1.00  0.00     0.116 A 
HETATM   24  C   UNL     1      -3.061   6.498 -32.889  1.00  0.00     0.044 A 
HETATM   25  F   UNL     1      -0.993   6.580 -34.015  1.00  0.00    -0.206 F 
HETATM   26  C   UNL     1      -4.393   6.077 -32.861  1.00  0.00     0.032 A 
ENDBRANCH  17  20
ENDBRANCH  15  16
ENDBRANCH   1  15
TORSDOF 3
ENDMDL
MODEL 8
REMARK VINA RESULT:      -7.5      4.098      5.842
REMARK  3 active torsions:
REMARK  status: ('A' for Active; 'I' for Inactive)
REMARK    1  A    between atoms: C_2  and  N_3 
REMARK       I    between atoms: N_3  and  C_4 
REMARK    2  A    between atoms: C_4  and  C_5 
REMARK    3  A    between atoms: C_5  and  C_6 
ROOT
HETATM    1  C   UNL     1      -4.227   3.739 -31.254  1.00  0.00     0.286 C 
HETATM    2  N   UNL     1      -2.701   3.695 -31.298  1.00  0.00    -0.056 N 
HETATM    3  H   UNL     1      -2.376   3.716 -30.322  1.00  0.00     0.278 HD
HETATM    4  H   UNL     1      -2.417   2.748 -31.628  1.00  0.00     0.278 HD
HETATM    5  C   UNL     1      -1.986   4.777 -32.052  1.00  0.00     0.209 C 
HETATM    6  C   UNL     1      -2.553   6.153 -31.633  1.00  0.00     0.115 C 
HETATM    7  N   UNL     1      -4.012   6.191 -31.663  1.00  0.00    -0.353 N 
HETATM    8  C   UNL     1      -4.803   5.163 -31.215  1.00  0.00     0.249 C 
HETATM    9  O   UNL     1      -5.967   5.381 -30.893  1.00  0.00    -0.271 OA
HETATM   10  C   UNL     1      -2.042   4.521 -33.557  1.00  0.00     0.035 C 
HETATM   11  C   UNL     1      -1.391   5.663 -34.333  1.00  0.00     0.002 C 
HETATM   12  C   UNL     1      -2.032   7.002 -33.981  1.00  0.00     0.002 C 
HETATM   13  C   UNL     1      -1.956   7.283 -32.480  1.00  0.00     0.027 C 
HETATM   14  H   UNL     1      -4.467   7.098 -31.559  1.00  0.00     0.163 HD
ENDROOT
BRANCH   1  15
HETATM   15  C   UNL     1      -4.911   2.983 -32.407  1.00  0.00     0.146 C 
BRANCH  15  16
HETATM   16  C   UNL     1      -4.572   1.520 -32.449  1.00  0.00     0.224 C 
HETATM   17  N   UNL     1      -5.505   0.559 -32.667  1.00  0.00    -0.327 N 
HETATM   18  H   UNL     1      -5.087  -0.369 -32.631  1.00  0.00     0.169 HD
HETATM   19  O   UNL     1      -3.387   1.178 -32.324  1.00  0.00    -0.273 OA
BRANCH  17  20
HETATM   20  C   UNL     1      -6.887   0.565 -32.948  1.00  0.00     0.034 A 
HETATM   21  C   UNL     1      -7.471   0.633 -34.215  1.00  0.00     0.032 A 
HETATM   22  C   UNL     1      -8.864   0.612 -34.359  1.00  0.00     0.044 A 
HETATM   23  C   UNL     1      -9.679   0.524 -33.240  1.00  0.00     0.116 A 
HETATM   24  C   UNL     1      -9.125   0.456 -31.972  1.00  0.00     0.044 A 
HETATM   25  F   UNL     1     -11.008   0.501 -33.388  1.00  0.00    -0.206 F 
HETATM   26  C   UNL     1      -7.735   0.476 -31.828  1.00  0.00     0.032 A 
ENDBRANCH  17  20
ENDBRANCH  15  16
ENDBRANCH   1  15
TORSDOF 3
ENDMDL
MODEL 9
REMARK VINA RESULT:      -7.5      3.700      5.251
REMARK  3 active torsions:
REMARK  status: ('A' for Active; 'I' for Inactive)
REMARK    1  A    between atoms: C_2  and  N_3 
REMARK       I    between atoms: N_3  and  C_4 
REMARK    2  A    between atoms: C_4  and  C_5 
REMARK    3  A    between atoms: C_5  and  C_6 
ROOT
HETATM    1  C   UNL     1      -4.340   4.057 -30.986  1.00  0.00     0.286 C 
HETATM    2  N   UNL     1      -2.891   3.642 -31.232  1.00  0.00    -0.056 N 
HETATM    3  H   UNL     1      -2.439   3.587 -30.310  1.00  0.00     0.278 HD
HETATM    4  H   UNL     1      -2.893   2.653 -31.560  1.00  0.00     0.278 HD
HETATM    5  C   UNL     1      -2.048   4.514 -32.115  1.00  0.00     0.209 C 
HETATM    6  C   UNL     1      -2.203   5.988 -31.676  1.00  0.00     0.115 C 
HETATM    7  N   UNL     1      -3.599   6.381 -31.511  1.00  0.00    -0.353 N 
HETATM    8  C   UNL     1      -4.544   5.579 -30.923  1.00  0.00     0.249 C 
HETATM    9  O   UNL     1      -5.565   6.075 -30.457  1.00  0.00    -0.271 OA
HETATM   10  C   UNL     1      -2.373   4.273 -33.588  1.00  0.00     0.035 C 
HETATM   11  C   UNL     1      -1.580   5.218 -34.487  1.00  0.00     0.002 C 
HETATM   12  C   UNL     1      -1.823   6.675 -34.102  1.00  0.00     0.002 C 
HETATM   13  C   UNL     1      -1.474   6.935 -32.637  1.00  0.00     0.027 C 
HETATM   14  H   UNL     1      -3.803   7.372 -31.382  1.00  0.00     0.163 HD
ENDROOT
BRANCH   1  15
HETATM   15  C   UNL     1      -5.339   3.486 -32.007  1.00  0.00     0.146 C 
BRANCH  15  16
HETATM   16  C   UNL     1      -6.455   2.700 -31.380  1.00  0.00     0.224 C 
HETATM   17  N   UNL     1      -6.614   1.367 -31.581  1.00  0.00    -0.327 N 
HETATM   18  H   UNL     1      -7.440   1.023 -31.096  1.00  0.00     0.169 HD
HETATM   19  O   UNL     1      -7.235   3.281 -30.612  1.00  0.00    -0.273 OA
BRANCH  17  20
HETATM   20  C   UNL     1      -5.892   0.378 -32.279  1.00  0.00     0.034 A 
HETATM   21  C   UNL     1      -4.642  -0.135 -31.925  1.00  0.00     0.032 A 
HETATM   22  C   UNL     1      -4.037  -1.135 -32.697  1.00  0.00     0.044 A 
HETATM   23  C   UNL     1      -4.678  -1.627 -33.824  1.00  0.00     0.116 A 
HETATM   24  C   UNL     1      -5.918  -1.136 -34.197  1.00  0.00     0.044 A 
HETATM   25  F   UNL     1      -4.095  -2.585 -34.553  1.00  0.00    -0.206 F 
HETATM   26  C   UNL     1      -6.522  -0.139 -33.427  1.00  0.00     0.032 A 
ENDBRANCH  17  20
ENDBRANCH  15  16
ENDBRANCH   1  15
TORSDOF 3
ENDMDL
MODEL 10
REMARK VINA RESULT:      -7.4      2.750      6.231
REMARK  3 active torsions:
REMARK  status: ('A' for Active; 'I' for Inactive)
REMARK    1  A    between atoms: C_2  and  N_3 
REMARK       I    between atoms: N_3  and  C_4 
REMARK    2  A    between atoms: C_4  and  C_5 
REMARK    3  A    between atoms: C_5  and  C_6 
ROOT
HETATM    1  C   UNL     1      -5.789  -0.229 -32.900  1.00  0.00     0.286 C 
HETATM    2  N   UNL     1      -4.271  -0.251 -33.062  1.00  0.00    -0.056 N 
HETATM    3  H   UNL     1      -4.056   0.296 -33.906  1.00  0.00     0.278 HD
HETATM    4  H   UNL     1      -3.859   0.319 -32.292  1.00  0.00     0.278 HD
HETATM    5  C   UNL     1      -3.595  -1.584 -33.183  1.00  0.00     0.209 C 
HETATM    6  C   UNL     1      -4.341  -2.443 -34.229  1.00  0.00     0.115 C 
HETATM    7  N   UNL     1      -5.785  -2.461 -34.015  1.00  0.00    -0.353 N 
HETATM    8  C   UNL     1      -6.509  -1.348 -33.668  1.00  0.00     0.249 C 
HETATM    9  O   UNL     1      -7.717  -1.312 -33.882  1.00  0.00    -0.271 OA
HETATM   10  C   UNL     1      -3.464  -2.255 -31.816  1.00  0.00     0.035 C 
HETATM   11  C   UNL     1      -2.854  -3.648 -31.945  1.00  0.00     0.002 C 
HETATM   12  C   UNL     1      -3.662  -4.515 -32.907  1.00  0.00     0.002 C 
HETATM   13  C   UNL     1      -3.775  -3.867 -34.286  1.00  0.00     0.027 C 
HETATM   14  H   UNL     1      -6.338  -3.126 -34.555  1.00  0.00     0.163 HD
ENDROOT
BRANCH   1  15
HETATM   15  C   UNL     1      -6.266  -0.275 -31.437  1.00  0.00     0.146 C 
BRANCH  15  16
HETATM   16  C   UNL     1      -6.596   1.077 -30.871  1.00  0.00     0.224 C 
HETATM   17  N   UNL     1      -7.644   1.819 -31.310  1.00  0.00    -0.327 N 
HETATM   18  H   UNL     1      -7.685   2.713 -30.824  1.00  0.00     0.169 HD
HETATM   19  O   UNL     1      -5.911   1.514 -29.935  1.00  0.00    -0.273 OA
BRANCH  17  20
HETATM   20  C   UNL     1      -8.674   1.618 -32.251  1.00  0.00     0.034 A 
HETATM   21  C   UNL     1      -9.680   0.650 -32.179  1.00  0.00     0.032 A 
HETATM   22  C   UNL     1     -10.661   0.568 -33.176  1.00  0.00     0.044 A 
HETATM   23  C   UNL     1     -10.642   1.449 -34.246  1.00  0.00     0.116 A 
HETATM   24  C   UNL     1      -9.656   2.417 -34.341  1.00  0.00     0.044 A 
HETATM   25  F   UNL     1     -11.585   1.364 -35.191  1.00  0.00    -0.206 F 
HETATM   26  C   UNL     1      -8.677   2.500 -33.347  1.00  0.00     0.032 A 
ENDBRANCH  17  20
ENDBRANCH  15  16
ENDBRANCH   1  15
TORSDOF 3
ENDMDL
