MODEL 1
REMARK VINA RESULT:      -7.6      0.000      0.000
REMARK  6 active torsions:
REMARK  status: ('A' for Active; 'I' for Inactive)
REMARK    1  A    between atoms: C_3  and  N_4 
REMARK       I    between atoms: N_4  and  C_5 
REMARK       I    between atoms: C_5  and  N_6 
REMARK    2  A    between atoms: N_6  and  C_7 
REMARK    3  A    between atoms: C_7  and  C_8 
REMARK    4  A    between atoms: C_9  and  O_10 
REMARK    5  A    between atoms: O_10  and  C_11 
REMARK    6  A    between atoms: C_11  and  C_12 
ROOT
HETATM    1  N   UNL     1      -4.128  -1.271 -33.744  1.00  0.00    -0.307 N 
HETATM    2  C   UNL     1      -4.261  -0.657 -32.515  1.00  0.00     0.321 C 
HETATM    3  N   UNL     1      -3.412   0.424 -32.437  1.00  0.00    -0.339 N 
HETATM    4  O   UNL     1      -4.957  -1.036 -31.585  1.00  0.00    -0.247 OA
HETATM    5  H   UNL     1      -3.177  -1.217 -34.080  1.00  0.00     0.170 HD
HETATM    6  H   UNL     1      -3.287   0.946 -33.293  1.00  0.00     0.164 HD
ENDROOT
BRANCH   3   7
HETATM    7  C   UNL     1      -3.317   1.214 -31.230  1.00  0.00     0.165 C 
BRANCH   7   8
HETATM    8  C   UNL     1      -4.327   2.334 -31.185  1.00  0.00    -0.007 A 
HETATM    9  C   UNL     1      -4.222   3.456 -32.030  1.00  0.00     0.076 A 
HETATM   10  C   UNL     1      -5.145   4.499 -31.909  1.00  0.00     0.037 A 
HETATM   11  C   UNL     1      -6.176   4.428 -30.967  1.00  0.00     0.003 A 
HETATM   12  C   UNL     1      -6.298   3.311 -30.148  1.00  0.00     0.001 A 
HETATM   13  C   UNL     1      -5.380   2.269 -30.256  1.00  0.00     0.011 A 
BRANCH   9  14
HETATM   14  O   UNL     1      -3.204   3.415 -32.949  1.00  0.00    -0.350 OA
BRANCH  14  15
HETATM   15  C   UNL     1      -2.256   4.485 -32.933  1.00  0.00     0.179 C 
BRANCH  15  16
HETATM   16  C   UNL     1      -2.020   4.941 -34.381  1.00  0.00     0.002 C 
HETATM   17  C   UNL     1      -3.347   5.262 -35.075  1.00  0.00     0.011 C 
HETATM   18  C   UNL     1      -1.097   6.157 -34.417  1.00  0.00     0.011 C 
ENDBRANCH  15  16
ENDBRANCH  14  15
ENDBRANCH   9  14
ENDBRANCH   7   8
ENDBRANCH   3   7
BRANCH   1  19
HETATM   19  C   UNL     1      -4.870  -2.402 -34.156  1.00  0.00     0.059 A 
HETATM   20  C   UNL     1      -6.179  -2.366 -34.660  1.00  0.00    -0.032 A 
HETATM   21  C   UNL     1      -6.955  -1.102 -34.899  1.00  0.00     0.050 C 
HETATM   22  C   UNL     1      -6.795  -3.584 -34.991  1.00  0.00     0.028 A 
HETATM   23  C   UNL     1      -6.082  -4.767 -34.868  1.00  0.00     0.117 A 
HETATM   24  N   UNL     1      -4.804  -4.827 -34.450  1.00  0.00    -0.271 NA
HETATM   25  C   UNL     1      -4.235  -3.647 -34.109  1.00  0.00     0.146 A 
ENDBRANCH   1  19
TORSDOF 6
ENDMDL
MODEL 2
REMARK VINA RESULT:      -7.5      3.545      7.159
REMARK  6 active torsions:
REMARK  status: ('A' for Active; 'I' for Inactive)
REMARK    1  A    between atoms: C_3  and  N_4 
REMARK       I    between atoms: N_4  and  C_5 
REMARK       I    between atoms: C_5  and  N_6 
REMARK    2  A    between atoms: N_6  and  C_7 
REMARK    3  A    between atoms: C_7  and  C_8 
REMARK    4  A    between atoms: C_9  and  O_10 
REMARK    5  A    between atoms: O_10  and  C_11 
REMARK    6  A    between atoms: C_11  and  C_12 
ROOT
HETATM    1  N   UNL     1      -9.071   0.198 -33.087  1.00  0.00    -0.307 N 
HETATM    2  C   UNL     1      -8.166   0.092 -34.125  1.00  0.00     0.321 C 
HETATM    3  N   UNL     1      -7.479  -1.097 -34.029  1.00  0.00    -0.339 N 
HETATM    4  O   UNL     1      -7.928   0.942 -34.970  1.00  0.00    -0.247 OA
HETATM    5  H   UNL     1      -8.717  -0.236 -32.247  1.00  0.00     0.170 HD
HETATM    6  H   UNL     1      -8.014  -1.886 -33.694  1.00  0.00     0.164 HD
ENDROOT
BRANCH   3   7
HETATM    7  C   UNL     1      -6.433  -1.433 -34.967  1.00  0.00     0.165 C 
BRANCH   7   8
HETATM    8  C   UNL     1      -5.617  -2.625 -34.528  1.00  0.00    -0.007 A 
HETATM    9  C   UNL     1      -4.467  -2.477 -33.729  1.00  0.00     0.076 A 
HETATM   10  C   UNL     1      -3.706  -3.603 -33.401  1.00  0.00     0.037 A 
HETATM   11  C   UNL     1      -4.089  -4.871 -33.847  1.00  0.00     0.003 A 
HETATM   12  C   UNL     1      -5.237  -5.025 -34.616  1.00  0.00     0.001 A 
HETATM   13  C   UNL     1      -5.999  -3.909 -34.954  1.00  0.00     0.011 A 
BRANCH   9  14
HETATM   14  O   UNL     1      -4.197  -1.200 -33.305  1.00  0.00    -0.350 OA
BRANCH  14  15
HETATM   15  C   UNL     1      -3.976  -1.000 -31.907  1.00  0.00     0.179 C 
BRANCH  15  16
HETATM   16  C   UNL     1      -4.798   0.217 -31.459  1.00  0.00     0.002 C 
HETATM   17  C   UNL     1      -4.989   1.202 -32.615  1.00  0.00     0.011 C 
HETATM   18  C   UNL     1      -6.154  -0.224 -30.911  1.00  0.00     0.011 C 
ENDBRANCH  15  16
ENDBRANCH  14  15
ENDBRANCH   9  14
ENDBRANCH   7   8
ENDBRANCH   3   7
BRANCH   1  19
HETATM   19  C   UNL     1      -9.949   1.290 -32.901  1.00  0.00     0.059 A 
HETATM   20  C   UNL     1      -9.661   2.434 -32.143  1.00  0.00    -0.032 A 
HETATM   21  C   UNL     1      -8.342   2.690 -31.473  1.00  0.00     0.050 C 
HETATM   22  C   UNL     1     -10.657   3.418 -32.024  1.00  0.00     0.028 A 
HETATM   23  C   UNL     1     -11.858   3.261 -32.698  1.00  0.00     0.117 A 
HETATM   24  N   UNL     1     -12.138   2.206 -33.486  1.00  0.00    -0.271 NA
HETATM   25  C   UNL     1     -11.179   1.255 -33.567  1.00  0.00     0.146 A 
ENDBRANCH   1  19
TORSDOF 6
ENDMDL
MODEL 3
REMARK VINA RESULT:      -7.4      2.527      7.752
REMARK  6 active torsions:
REMARK  status: ('A' for Active; 'I' for Inactive)
REMARK    1  A    between atoms: C_3  and  N_4 
REMARK       I    between atoms: N_4  and  C_5 
REMARK       I    between atoms: C_5  and  N_6 
REMARK    2  A    between atoms: N_6  and  C_7 
REMARK    3  A    between atoms: C_7  and  C_8 
REMARK    4  A    between atoms: C_9  and  O_10 
REMARK    5  A    between atoms: O_10  and  C_11 
REMARK    6  A    between atoms: C_11  and  C_12 
ROOT
HETATM    1  N   UNL     1      -3.664   3.654 -32.725  1.00  0.00    -0.307 N 
HETATM    2  C   UNL     1      -3.607   2.428 -32.093  1.00  0.00     0.321 C 
HETATM    3  N   UNL     1      -4.616   1.614 -32.556  1.00  0.00    -0.339 N 
HETATM    4  O   UNL     1      -2.843   2.108 -31.194  1.00  0.00    -0.247 OA
HETATM    5  H   UNL     1      -4.618   3.919 -32.926  1.00  0.00     0.170 HD
HETATM    6  H   UNL     1      -4.839   1.708 -33.537  1.00  0.00     0.164 HD
ENDROOT
BRANCH   3   7
HETATM    7  C   UNL     1      -4.813   0.287 -32.018  1.00  0.00     0.165 C 
BRANCH   7   8
HETATM    8  C   UNL     1      -5.125  -0.734 -33.084  1.00  0.00    -0.007 A 
HETATM    9  C   UNL     1      -6.354  -0.730 -33.772  1.00  0.00     0.076 A 
HETATM   10  C   UNL     1      -6.625  -1.735 -34.706  1.00  0.00     0.037 A 
HETATM   11  C   UNL     1      -5.680  -2.730 -34.971  1.00  0.00     0.003 A 
HETATM   12  C   UNL     1      -4.455  -2.724 -34.311  1.00  0.00     0.001 A 
HETATM   13  C   UNL     1      -4.178  -1.731 -33.375  1.00  0.00     0.011 A 
BRANCH   9  14
HETATM   14  O   UNL     1      -7.199   0.310 -33.475  1.00  0.00    -0.350 OA
BRANCH  14  15
HETATM   15  C   UNL     1      -8.467   0.341 -34.134  1.00  0.00     0.179 C 
BRANCH  15  16
HETATM   16  C   UNL     1      -9.566   0.188 -33.072  1.00  0.00     0.002 C 
HETATM   17  C   UNL     1      -9.046   0.589 -31.688  1.00  0.00     0.011 C 
HETATM   18  C   UNL     1     -10.788   1.026 -33.441  1.00  0.00     0.011 C 
ENDBRANCH  15  16
ENDBRANCH  14  15
ENDBRANCH   9  14
ENDBRANCH   7   8
ENDBRANCH   3   7
BRANCH   1  19
HETATM   19  C   UNL     1      -2.759   4.715 -32.492  1.00  0.00     0.059 A 
HETATM   20  C   UNL     1      -1.922   5.285 -33.462  1.00  0.00    -0.032 A 
HETATM   21  C   UNL     1      -1.919   4.891 -34.911  1.00  0.00     0.050 C 
HETATM   22  C   UNL     1      -1.049   6.311 -33.062  1.00  0.00     0.028 A 
HETATM   23  C   UNL     1      -1.081   6.765 -31.753  1.00  0.00     0.117 A 
HETATM   24  N   UNL     1      -1.919   6.282 -30.817  1.00  0.00    -0.271 NA
HETATM   25  C   UNL     1      -2.733   5.276 -31.212  1.00  0.00     0.146 A 
ENDBRANCH   1  19
TORSDOF 6
ENDMDL
MODEL 4
REMARK VINA RESULT:      -7.2      1.655      3.352
REMARK  6 active torsions:
REMARK  status: ('A' for Active; 'I' for Inactive)
REMARK    1  A    between atoms: C_3  and  N_4 
REMARK       I    between atoms: N_4  and  C_5 
REMARK       I    between atoms: C_5  and  N_6 
REMARK    2  A    between atoms: N_6  and  C_7 
REMARK    3  A    between atoms: C_7  and  C_8 
REMARK    4  A    between atoms: C_9  and  O_10 
REMARK    5  A    between atoms: O_10  and  C_11 
REMARK    6  A    between atoms: C_11  and  C_12 
ROOT
HETATM    1  N   UNL     1      -4.124  -1.244 -33.767  1.00  0.00    -0.307 N 
HETATM    2  C   UNL     1      -4.302  -0.564 -32.578  1.00  0.00     0.321 C 
HETATM    3  N   UNL     1      -3.463   0.527 -32.531  1.00  0.00    -0.339 N 
HETATM    4  O   UNL     1      -5.026  -0.897 -31.652  1.00  0.00    -0.247 OA
HETATM    5  H   UNL     1      -3.162  -1.200 -34.073  1.00  0.00     0.170 HD
HETATM    6  H   UNL     1      -3.313   1.002 -33.410  1.00  0.00     0.164 HD
ENDROOT
BRANCH   3   7
HETATM    7  C   UNL     1      -3.414   1.383 -31.368  1.00  0.00     0.165 C 
BRANCH   7   8
HETATM    8  C   UNL     1      -3.691   2.829 -31.696  1.00  0.00    -0.007 A 
HETATM    9  C   UNL     1      -4.975   3.266 -32.077  1.00  0.00     0.076 A 
HETATM   10  C   UNL     1      -5.170   4.603 -32.434  1.00  0.00     0.037 A 
HETATM   11  C   UNL     1      -4.106   5.509 -32.400  1.00  0.00     0.003 A 
HETATM   12  C   UNL     1      -2.842   5.087 -32.001  1.00  0.00     0.001 A 
HETATM   13  C   UNL     1      -2.635   3.756 -31.649  1.00  0.00     0.011 A 
BRANCH   9  14
HETATM   14  O   UNL     1      -5.963   2.314 -32.038  1.00  0.00    -0.350 OA
BRANCH  14  15
HETATM   15  C   UNL     1      -6.805   2.189 -33.186  1.00  0.00     0.179 C 
BRANCH  15  16
HETATM   16  C   UNL     1      -8.213   1.800 -32.710  1.00  0.00     0.002 C 
HETATM   17  C   UNL     1      -8.142   0.730 -31.617  1.00  0.00     0.011 C 
HETATM   18  C   UNL     1      -8.965   3.028 -32.201  1.00  0.00     0.011 C 
ENDBRANCH  15  16
ENDBRANCH  14  15
ENDBRANCH   9  14
ENDBRANCH   7   8
ENDBRANCH   3   7
BRANCH   1  19
HETATM   19  C   UNL     1      -4.844  -2.401 -34.140  1.00  0.00     0.059 A 
HETATM   20  C   UNL     1      -6.163  -2.410 -34.616  1.00  0.00    -0.032 A 
HETATM   21  C   UNL     1      -6.978  -1.173 -34.861  1.00  0.00     0.050 C 
HETATM   22  C   UNL     1      -6.753  -3.651 -34.909  1.00  0.00     0.028 A 
HETATM   23  C   UNL     1      -6.007  -4.812 -34.779  1.00  0.00     0.117 A 
HETATM   24  N   UNL     1      -4.719  -4.829 -34.388  1.00  0.00    -0.271 NA
HETATM   25  C   UNL     1      -4.174  -3.628 -34.083  1.00  0.00     0.146 A 
ENDBRANCH   1  19
TORSDOF 6
ENDMDL
MODEL 5
REMARK VINA RESULT:      -7.1      4.217      7.210
REMARK  6 active torsions:
REMARK  status: ('A' for Active; 'I' for Inactive)
REMARK    1  A    between atoms: C_3  and  N_4 
REMARK       I    between atoms: N_4  and  C_5 
REMARK       I    between atoms: C_5  and  N_6 
REMARK    2  A    between atoms: N_6  and  C_7 
REMARK    3  A    between atoms: C_7  and  C_8 
REMARK    4  A    between atoms: C_9  and  O_10 
REMARK    5  A    between atoms: O_10  and  C_11 
REMARK    6  A    between atoms: C_11  and  C_12 
ROOT
HETATM    1  N   UNL     1      -9.728   1.053 -34.687  1.00  0.00    -0.307 N 
HETATM    2  C   UNL     1      -8.442   1.132 -34.192  1.00  0.00     0.321 C 
HETATM    3  N   UNL     1      -7.718   0.031 -34.589  1.00  0.00    -0.339 N 
HETATM    4  O   UNL     1      -8.003   1.994 -33.444  1.00  0.00    -0.247 OA
HETATM    5  H   UNL     1     -10.047   0.095 -34.726  1.00  0.00     0.170 HD
HETATM    6  H   UNL     1      -7.922  -0.317 -35.516  1.00  0.00     0.164 HD
ENDROOT
BRANCH   3   7
HETATM    7  C   UNL     1      -6.350  -0.159 -34.162  1.00  0.00     0.165 C 
BRANCH   7   8
HETATM    8  C   UNL     1      -5.907  -1.599 -34.246  1.00  0.00    -0.007 A 
HETATM    9  C   UNL     1      -4.598  -1.988 -33.901  1.00  0.00     0.076 A 
HETATM   10  C   UNL     1      -4.213  -3.323 -34.055  1.00  0.00     0.037 A 
HETATM   11  C   UNL     1      -5.121  -4.272 -34.533  1.00  0.00     0.003 A 
HETATM   12  C   UNL     1      -6.422  -3.897 -34.852  1.00  0.00     0.001 A 
HETATM   13  C   UNL     1      -6.814  -2.568 -34.708  1.00  0.00     0.011 A 
BRANCH   9  14
HETATM   14  O   UNL     1      -3.794  -0.995 -33.402  1.00  0.00    -0.350 OA
BRANCH  14  15
HETATM   15  C   UNL     1      -3.288  -1.158 -32.075  1.00  0.00     0.179 C 
BRANCH  15  16
HETATM   16  C   UNL     1      -3.576   0.129 -31.288  1.00  0.00     0.002 C 
HETATM   17  C   UNL     1      -3.412   1.362 -32.181  1.00  0.00     0.011 C 
HETATM   18  C   UNL     1      -4.982   0.090 -30.693  1.00  0.00     0.011 C 
ENDBRANCH  15  16
ENDBRANCH  14  15
ENDBRANCH   9  14
ENDBRANCH   7   8
ENDBRANCH   3   7
BRANCH   1  19
HETATM   19  C   UNL     1     -10.726   2.033 -34.478  1.00  0.00     0.059 A 
HETATM   20  C   UNL     1     -12.033   1.771 -34.042  1.00  0.00    -0.032 A 
HETATM   21  C   UNL     1     -12.539   0.407 -33.667  1.00  0.00     0.050 C 
HETATM   22  C   UNL     1     -12.920   2.853 -33.920  1.00  0.00     0.028 A 
HETATM   23  C   UNL     1     -12.468   4.140 -34.172  1.00  0.00     0.117 A 
HETATM   24  N   UNL     1     -11.203   4.429 -34.529  1.00  0.00    -0.271 NA
HETATM   25  C   UNL     1     -10.369   3.371 -34.669  1.00  0.00     0.146 A 
ENDBRANCH   1  19
TORSDOF 6
ENDMDL
MODEL 6
REMARK VINA RESULT:      -6.7      5.126      7.084
REMARK  6 active torsions:
REMARK  status: ('A' for Active; 'I' for Inactive)
REMARK    1  A    between atoms: C_3  and  N_4 
REMARK       I    between atoms: N_4  and  C_5 
REMARK       I    between atoms: C_5  and  N_6 
REMARK    2  A    between atoms: N_6  and  C_7 
REMARK    3  A    between atoms: C_7  and  C_8 
REMARK    4  A    between atoms: C_9  and  O_10 
REMARK    5  A    between atoms: O_10  and  C_11 
REMARK    6  A    between atoms: C_11  and  C_12 
ROOT
HETATM    1  N   UNL     1      -8.099  -0.046 -32.933  1.00  0.00    -0.307 N 
HETATM    2  C   UNL     1      -8.719   0.732 -33.890  1.00  0.00     0.321 C 
HETATM    3  N   UNL     1     -10.065   0.829 -33.615  1.00  0.00    -0.339 N 
HETATM    4  O   UNL     1      -8.199   1.210 -34.887  1.00  0.00    -0.247 OA
HETATM    5  H   UNL     1      -8.709  -0.782 -32.606  1.00  0.00     0.170 HD
HETATM    6  H   UNL     1     -10.309   0.876 -32.635  1.00  0.00     0.164 HD
ENDROOT
BRANCH   3   7
HETATM    7  C   UNL     1     -10.957   1.549 -34.494  1.00  0.00     0.165 C 
BRANCH   7   8
HETATM    8  C   UNL     1     -12.365   1.631 -33.956  1.00  0.00    -0.007 A 
HETATM    9  C   UNL     1     -12.766   2.670 -33.094  1.00  0.00     0.076 A 
HETATM   10  C   UNL     1     -14.062   2.669 -32.570  1.00  0.00     0.037 A 
HETATM   11  C   UNL     1     -14.963   1.655 -32.907  1.00  0.00     0.003 A 
HETATM   12  C   UNL     1     -14.579   0.640 -33.777  1.00  0.00     0.001 A 
HETATM   13  C   UNL     1     -13.288   0.628 -34.301  1.00  0.00     0.011 A 
BRANCH   9  14
HETATM   14  O   UNL     1     -11.826   3.641 -32.856  1.00  0.00    -0.350 OA
BRANCH  14  15
HETATM   15  C   UNL     1     -11.566   3.989 -31.494  1.00  0.00     0.179 C 
BRANCH  15  16
HETATM   16  C   UNL     1     -10.049   4.157 -31.321  1.00  0.00     0.002 C 
HETATM   17  C   UNL     1      -9.430   2.903 -30.696  1.00  0.00     0.011 C 
HETATM   18  C   UNL     1      -9.387   4.461 -32.663  1.00  0.00     0.011 C 
ENDBRANCH  15  16
ENDBRANCH  14  15
ENDBRANCH   9  14
ENDBRANCH   7   8
ENDBRANCH   3   7
BRANCH   1  19
HETATM   19  C   UNL     1      -6.714  -0.330 -32.910  1.00  0.00     0.059 A 
HETATM   20  C   UNL     1      -6.098  -1.389 -33.594  1.00  0.00    -0.032 A 
HETATM   21  C   UNL     1      -6.822  -2.335 -34.508  1.00  0.00     0.050 C 
HETATM   22  C   UNL     1      -4.713  -1.560 -33.440  1.00  0.00     0.028 A 
HETATM   23  C   UNL     1      -3.992  -0.657 -32.674  1.00  0.00     0.117 A 
HETATM   24  N   UNL     1      -4.545   0.406 -32.059  1.00  0.00    -0.271 NA
HETATM   25  C   UNL     1      -5.885   0.541 -32.196  1.00  0.00     0.146 A 
ENDBRANCH   1  19
TORSDOF 6
ENDMDL
MODEL 7
REMARK VINA RESULT:      -6.6     14.708     16.430
REMARK  6 active torsions:
REMARK  status: ('A' for Active; 'I' for Inactive)
REMARK    1  A    between atoms: C_3  and  N_4 
REMARK       I    between atoms: N_4  and  C_5 
REMARK       I    between atoms: C_5  and  N_6 
REMARK    2  A    between atoms: N_6  and  C_7 
REMARK    3  A    between atoms: C_7  and  C_8 
REMARK    4  A    between atoms: C_9  and  O_10 
REMARK    5  A    between atoms: O_10  and  C_11 
REMARK    6  A    between atoms: C_11  and  C_12 
ROOT
HETATM    1  N   UNL     1      -2.635 -14.246 -39.417  1.00  0.00    -0.307 N 
HETATM    2  C   UNL     1      -3.316 -13.103 -39.050  1.00  0.00     0.321 C 
HETATM    3  N   UNL     1      -4.607 -13.152 -39.527  1.00  0.00    -0.339 N 
HETATM    4  O   UNL     1      -2.853 -12.137 -38.461  1.00  0.00    -0.247 OA
HETATM    5  H   UNL     1      -2.938 -14.579 -40.321  1.00  0.00     0.170 HD
HETATM    6  H   UNL     1      -5.039 -14.066 -39.526  1.00  0.00     0.164 HD
ENDROOT
BRANCH   3   7
HETATM    7  C   UNL     1      -5.522 -12.052 -39.325  1.00  0.00     0.165 C 
BRANCH   7   8
HETATM    8  C   UNL     1      -6.955 -12.503 -39.188  1.00  0.00    -0.007 A 
HETATM    9  C   UNL     1      -7.408 -13.183 -38.040  1.00  0.00     0.076 A 
HETATM   10  C   UNL     1      -8.728 -13.638 -37.984  1.00  0.00     0.037 A 
HETATM   11  C   UNL     1      -9.602 -13.411 -39.051  1.00  0.00     0.003 A 
HETATM   12  C   UNL     1      -9.166 -12.719 -40.177  1.00  0.00     0.001 A 
HETATM   13  C   UNL     1      -7.851 -12.266 -40.245  1.00  0.00     0.011 A 
BRANCH   9  14
HETATM   14  O   UNL     1      -6.490 -13.320 -37.030  1.00  0.00    -0.350 OA
BRANCH  14  15
HETATM   15  C   UNL     1      -6.982 -13.650 -35.729  1.00  0.00     0.179 C 
BRANCH  15  16
HETATM   16  C   UNL     1      -5.782 -13.803 -34.784  1.00  0.00     0.002 C 
HETATM   17  C   UNL     1      -4.500 -13.284 -35.442  1.00  0.00     0.011 C 
HETATM   18  C   UNL     1      -6.036 -13.068 -33.470  1.00  0.00     0.011 C 
ENDBRANCH  15  16
ENDBRANCH  14  15
ENDBRANCH   9  14
ENDBRANCH   7   8
ENDBRANCH   3   7
BRANCH   1  19
HETATM   19  C   UNL     1      -1.292 -14.520 -39.071  1.00  0.00     0.059 A 
HETATM   20  C   UNL     1      -0.861 -14.977 -37.817  1.00  0.00    -0.032 A 
HETATM   21  C   UNL     1      -1.782 -15.307 -36.678  1.00  0.00     0.050 C 
HETATM   22  C   UNL     1       0.517 -15.167 -37.619  1.00  0.00     0.028 A 
HETATM   23  C   UNL     1       1.395 -14.957 -38.672  1.00  0.00     0.117 A 
HETATM   24  N   UNL     1       1.005 -14.581 -39.904  1.00  0.00    -0.271 NA
HETATM   25  C   UNL     1      -0.323 -14.377 -40.069  1.00  0.00     0.146 A 
ENDBRANCH   1  19
TORSDOF 6
ENDMDL
MODEL 8
REMARK VINA RESULT:      -6.6      4.518      6.375
REMARK  6 active torsions:
REMARK  status: ('A' for Active; 'I' for Inactive)
REMARK    1  A    between atoms: C_3  and  N_4 
REMARK       I    between atoms: N_4  and  C_5 
REMARK       I    between atoms: C_5  and  N_6 
REMARK    2  A    between atoms: N_6  and  C_7 
REMARK    3  A    between atoms: C_7  and  C_8 
REMARK    4  A    between atoms: C_9  and  O_10 
REMARK    5  A    between atoms: O_10  and  C_11 
REMARK    6  A    between atoms: C_11  and  C_12 
ROOT
HETATM    1  N   UNL     1      -9.742   2.451 -34.547  1.00  0.00    -0.307 N 
HETATM    2  C   UNL     1      -9.267   3.398 -33.662  1.00  0.00     0.321 C 
HETATM    3  N   UNL     1      -8.015   3.818 -34.053  1.00  0.00    -0.339 N 
HETATM    4  O   UNL     1      -9.812   3.770 -32.634  1.00  0.00    -0.247 OA
HETATM    5  H   UNL     1      -8.993   1.879 -34.910  1.00  0.00     0.170 HD
HETATM    6  H   UNL     1      -7.867   3.885 -35.050  1.00  0.00     0.164 HD
ENDROOT
BRANCH   3   7
HETATM    7  C   UNL     1      -7.268   4.774 -33.267  1.00  0.00     0.165 C 
BRANCH   7   8
HETATM    8  C   UNL     1      -5.792   4.462 -33.218  1.00  0.00    -0.007 A 
HETATM    9  C   UNL     1      -5.317   3.216 -32.765  1.00  0.00     0.076 A 
HETATM   10  C   UNL     1      -3.940   2.995 -32.676  1.00  0.00     0.037 A 
HETATM   11  C   UNL     1      -3.036   3.995 -33.045  1.00  0.00     0.003 A 
HETATM   12  C   UNL     1      -3.501   5.218 -33.515  1.00  0.00     0.001 A 
HETATM   13  C   UNL     1      -4.871   5.451 -33.603  1.00  0.00     0.011 A 
BRANCH   9  14
HETATM   14  O   UNL     1      -6.280   2.285 -32.467  1.00  0.00    -0.350 OA
BRANCH  14  15
HETATM   15  C   UNL     1      -5.848   0.947 -32.207  1.00  0.00     0.179 C 
BRANCH  15  16
HETATM   16  C   UNL     1      -5.674   0.227 -33.552  1.00  0.00     0.002 C 
HETATM   17  C   UNL     1      -5.291  -1.241 -33.339  1.00  0.00     0.011 C 
HETATM   18  C   UNL     1      -6.953   0.325 -34.381  1.00  0.00     0.011 C 
ENDBRANCH  15  16
ENDBRANCH  14  15
ENDBRANCH   9  14
ENDBRANCH   7   8
ENDBRANCH   3   7
BRANCH   1  19
HETATM   19  C   UNL     1     -11.007   1.828 -34.446  1.00  0.00     0.059 A 
HETATM   20  C   UNL     1     -11.286   0.695 -33.668  1.00  0.00    -0.032 A 
HETATM   21  C   UNL     1     -10.287   0.021 -32.772  1.00  0.00     0.050 C 
HETATM   22  C   UNL     1     -12.590   0.172 -33.703  1.00  0.00     0.028 A 
HETATM   23  C   UNL     1     -13.565   0.815 -34.449  1.00  0.00     0.117 A 
HETATM   24  N   UNL     1     -13.343   1.940 -35.154  1.00  0.00    -0.271 NA
HETATM   25  C   UNL     1     -12.076   2.415 -35.131  1.00  0.00     0.146 A 
ENDBRANCH   1  19
TORSDOF 6
ENDMDL
MODEL 9
REMARK VINA RESULT:      -6.6     14.861     16.589
REMARK  6 active torsions:
REMARK  status: ('A' for Active; 'I' for Inactive)
REMARK    1  A    between atoms: C_3  and  N_4 
REMARK       I    between atoms: N_4  and  C_5 
REMARK       I    between atoms: C_5  and  N_6 
REMARK    2  A    between atoms: N_6  and  C_7 
REMARK    3  A    between atoms: C_7  and  C_8 
REMARK    4  A    between atoms: C_9  and  O_10 
REMARK    5  A    between atoms: O_10  and  C_11 
REMARK    6  A    between atoms: C_11  and  C_12 
ROOT
HETATM    1  N   UNL     1      -6.274 -13.454 -35.927  1.00  0.00    -0.307 N 
HETATM    2  C   UNL     1      -5.130 -13.382 -36.698  1.00  0.00     0.321 C 
HETATM    3  N   UNL     1      -5.296 -12.450 -37.697  1.00  0.00    -0.339 N 
HETATM    4  O   UNL     1      -4.135 -14.083 -36.588  1.00  0.00    -0.247 OA
HETATM    5  H   UNL     1      -7.102 -13.297 -36.484  1.00  0.00     0.170 HD
HETATM    6  H   UNL     1      -5.834 -11.632 -37.447  1.00  0.00     0.164 HD
ENDROOT
BRANCH   3   7
HETATM    7  C   UNL     1      -4.262 -12.215 -38.679  1.00  0.00     0.165 C 
BRANCH   7   8
HETATM    8  C   UNL     1      -4.449 -13.037 -39.931  1.00  0.00    -0.007 A 
HETATM    9  C   UNL     1      -5.679 -13.066 -40.616  1.00  0.00     0.076 A 
HETATM   10  C   UNL     1      -5.824 -13.892 -41.735  1.00  0.00     0.037 A 
HETATM   11  C   UNL     1      -4.756 -14.674 -42.183  1.00  0.00     0.003 A 
HETATM   12  C   UNL     1      -3.532 -14.629 -41.523  1.00  0.00     0.001 A 
HETATM   13  C   UNL     1      -3.378 -13.814 -40.404  1.00  0.00     0.011 A 
BRANCH   9  14
HETATM   14  O   UNL     1      -6.653 -12.234 -40.126  1.00  0.00    -0.350 OA
BRANCH  14  15
HETATM   15  C   UNL     1      -7.976 -12.387 -40.645  1.00  0.00     0.179 C 
BRANCH  15  16
HETATM   16  C   UNL     1      -8.966 -12.301 -39.474  1.00  0.00     0.002 C 
HETATM   17  C   UNL     1     -10.411 -12.291 -39.981  1.00  0.00     0.011 C 
HETATM   18  C   UNL     1      -8.753 -13.463 -38.506  1.00  0.00     0.011 C 
ENDBRANCH  15  16
ENDBRANCH  14  15
ENDBRANCH   9  14
ENDBRANCH   7   8
ENDBRANCH   3   7
BRANCH   1  19
HETATM   19  C   UNL     1      -6.429 -14.301 -34.806  1.00  0.00     0.059 A 
HETATM   20  C   UNL     1      -6.956 -15.600 -34.846  1.00  0.00    -0.032 A 
HETATM   21  C   UNL     1      -7.370 -16.303 -36.107  1.00  0.00     0.050 C 
HETATM   22  C   UNL     1      -7.080 -16.302 -33.635  1.00  0.00     0.028 A 
HETATM   23  C   UNL     1      -6.630 -15.722 -32.459  1.00  0.00     0.117 A 
HETATM   24  N   UNL     1      -6.060 -14.505 -32.399  1.00  0.00    -0.271 NA
HETATM   25  C   UNL     1      -5.973 -13.831 -33.570  1.00  0.00     0.146 A 
ENDBRANCH   1  19
TORSDOF 6
ENDMDL
MODEL 10
REMARK VINA RESULT:      -6.5      3.499      4.700
REMARK  6 active torsions:
REMARK  status: ('A' for Active; 'I' for Inactive)
REMARK    1  A    between atoms: C_3  and  N_4 
REMARK       I    between atoms: N_4  and  C_5 
REMARK       I    between atoms: C_5  and  N_6 
REMARK    2  A    between atoms: N_6  and  C_7 
REMARK    3  A    between atoms: C_7  and  C_8 
REMARK    4  A    between atoms: C_9  and  O_10 
REMARK    5  A    between atoms: O_10  and  C_11 
REMARK    6  A    between atoms: C_11  and  C_12 
ROOT
HETATM    1  N   UNL     1      -5.404   0.312 -32.706  1.00  0.00    -0.307 N 
HETATM    2  C   UNL     1      -6.173   0.508 -31.576  1.00  0.00     0.321 C 
HETATM    3  N   UNL     1      -6.139   1.834 -31.210  1.00  0.00    -0.339 N 
HETATM    4  O   UNL     1      -6.744  -0.356 -30.927  1.00  0.00    -0.247 OA
HETATM    5  H   UNL     1      -4.603   0.927 -32.715  1.00  0.00     0.170 HD
HETATM    6  H   UNL     1      -6.115   2.498 -31.971  1.00  0.00     0.164 HD
ENDROOT
BRANCH   3   7
HETATM    7  C   UNL     1      -6.823   2.300 -30.025  1.00  0.00     0.165 C 
BRANCH   7   8
HETATM    8  C   UNL     1      -7.471   3.649 -30.218  1.00  0.00    -0.007 A 
HETATM    9  C   UNL     1      -8.312   3.912 -31.317  1.00  0.00     0.076 A 
HETATM   10  C   UNL     1      -8.839   5.196 -31.490  1.00  0.00     0.037 A 
HETATM   11  C   UNL     1      -8.549   6.210 -30.573  1.00  0.00     0.003 A 
HETATM   12  C   UNL     1      -7.739   5.949 -29.474  1.00  0.00     0.001 A 
HETATM   13  C   UNL     1      -7.204   4.675 -29.295  1.00  0.00     0.011 A 
BRANCH   9  14
HETATM   14  O   UNL     1      -8.572   2.843 -32.137  1.00  0.00    -0.350 OA
BRANCH  14  15
HETATM   15  C   UNL     1      -9.938   2.462 -32.314  1.00  0.00     0.179 C 
BRANCH  15  16
HETATM   16  C   UNL     1      -9.992   1.332 -33.352  1.00  0.00     0.002 C 
HETATM   17  C   UNL     1      -9.874  -0.037 -32.675  1.00  0.00     0.011 C 
HETATM   18  C   UNL     1     -11.284   1.410 -34.163  1.00  0.00     0.011 C 
ENDBRANCH  15  16
ENDBRANCH  14  15
ENDBRANCH   9  14
ENDBRANCH   7   8
ENDBRANCH   3   7
BRANCH   1  19
HETATM   19  C   UNL     1      -5.239  -0.934 -33.354  1.00  0.00     0.059 A 
HETATM   20  C   UNL     1      -6.025  -1.397 -34.419  1.00  0.00    -0.032 A 
HETATM   21  C   UNL     1      -7.118  -0.597 -35.070  1.00  0.00     0.050 C 
HETATM   22  C   UNL     1      -5.759  -2.677 -34.931  1.00  0.00     0.028 A 
HETATM   23  C   UNL     1      -4.703  -3.414 -34.416  1.00  0.00     0.117 A 
HETATM   24  N   UNL     1      -3.890  -2.970 -33.439  1.00  0.00    -0.271 NA
HETATM   25  C   UNL     1      -4.178  -1.745 -32.939  1.00  0.00     0.146 A 
ENDBRANCH   1  19
TORSDOF 6
ENDMDL
