MODEL 1
REMARK VINA RESULT:      -7.9      0.000      0.000
REMARK  4 active torsions:
REMARK  status: ('A' for Active; 'I' for Inactive)
REMARK    1  A    between atoms: C_9  and  C_10 
REMARK    2  A    between atoms: C_19  and  C_20 
REMARK    3  A    between atoms: C_20  and  C_21 
REMARK    4  A    between atoms: C_21  and  O_22 
ROOT
HETATM    1  C   UNL     1      -6.699  -4.006 -35.358  1.00  0.00     0.069 C 
HETATM    2  C   UNL     1      -6.222  -2.832 -34.539  1.00  0.00     0.018 A 
HETATM    3  N   UNL     1      -7.185  -1.877 -34.237  1.00  0.00    -0.343 N 
HETATM    4  C   UNL     1      -6.902  -0.775 -33.506  1.00  0.00     0.146 A 
HETATM    5  N   UNL     1      -5.616  -0.614 -33.039  1.00  0.00    -0.179 N 
HETATM    6  N   UNL     1      -5.476   0.512 -32.291  1.00  0.00    -0.167 NA
HETATM    7  C   UNL     1      -6.691   1.077 -32.315  1.00  0.00     0.066 A 
HETATM    8  C   UNL     1      -6.915   2.363 -31.607  1.00  0.00     0.073 C 
HETATM    9  C   UNL     1      -7.626   0.311 -33.068  1.00  0.00     0.046 A 
HETATM   10  C   UNL     1      -4.563  -1.512 -33.281  1.00  0.00     0.278 A 
HETATM   11  O   UNL     1      -3.437  -1.321 -32.838  1.00  0.00    -0.265 OA
HETATM   12  C   UNL     1      -4.941  -2.712 -34.110  1.00  0.00     0.036 A 
HETATM   13  H   UNL     1      -8.131  -2.056 -34.571  1.00  0.00     0.167 HD
ENDROOT
BRANCH   9  14
HETATM   14  C   UNL     1      -9.029   0.541 -33.351  1.00  0.00    -0.020 A 
HETATM   15  C   UNL     1     -10.014  -0.273 -32.774  1.00  0.00     0.014 A 
HETATM   16  C   UNL     1     -11.364  -0.057 -33.057  1.00  0.00     0.020 A 
HETATM   17  C   UNL     1     -11.733   0.972 -33.922  1.00  0.00     0.011 A 
HETATM   18 BR   UNL     1     -13.559   1.261 -34.309  1.00  0.00    -0.051 Br
HETATM   19  C   UNL     1     -10.764   1.786 -34.504  1.00  0.00     0.020 A 
HETATM   20  C   UNL     1      -9.413   1.571 -34.219  1.00  0.00     0.014 A 
ENDBRANCH   9  14
BRANCH  12  21
HETATM   21  C   UNL     1      -3.800  -3.652 -34.420  1.00  0.00     0.072 C 
BRANCH  21  22
HETATM   22  C   UNL     1      -3.679  -4.800 -33.418  1.00  0.00     0.169 C 
BRANCH  22  23
HETATM   23  O   UNL     1      -4.385  -5.948 -33.883  1.00  0.00    -0.401 OA
HETATM   24  H   UNL     1      -4.484  -6.550 -33.126  1.00  0.00     0.209 HD
ENDBRANCH  22  23
ENDBRANCH  21  22
ENDBRANCH  12  21
TORSDOF 4
ENDMDL
MODEL 2
REMARK VINA RESULT:      -7.5      4.817      7.428
REMARK  4 active torsions:
REMARK  status: ('A' for Active; 'I' for Inactive)
REMARK    1  A    between atoms: C_9  and  C_10 
REMARK    2  A    between atoms: C_19  and  C_20 
REMARK    3  A    between atoms: C_20  and  C_21 
REMARK    4  A    between atoms: C_21  and  O_22 
ROOT
HETATM    1  C   UNL     1     -12.984  -0.249 -33.639  1.00  0.00     0.069 C 
HETATM    2  C   UNL     1     -12.106   0.978 -33.616  1.00  0.00     0.018 A 
HETATM    3  N   UNL     1     -10.740   0.743 -33.714  1.00  0.00    -0.343 N 
HETATM    4  C   UNL     1      -9.834   1.747 -33.712  1.00  0.00     0.146 A 
HETATM    5  N   UNL     1     -10.297   3.042 -33.627  1.00  0.00    -0.179 N 
HETATM    6  N   UNL     1      -9.289   3.954 -33.671  1.00  0.00    -0.167 NA
HETATM    7  C   UNL     1      -8.177   3.211 -33.760  1.00  0.00     0.066 A 
HETATM    8  C   UNL     1      -6.852   3.879 -33.809  1.00  0.00     0.073 C 
HETATM    9  C   UNL     1      -8.462   1.816 -33.786  1.00  0.00     0.046 A 
HETATM   10  C   UNL     1     -11.651   3.399 -33.525  1.00  0.00     0.278 A 
HETATM   11  O   UNL     1     -12.008   4.569 -33.455  1.00  0.00    -0.265 OA
HETATM   12  C   UNL     1     -12.607   2.234 -33.521  1.00  0.00     0.036 A 
HETATM   13  H   UNL     1     -10.446  -0.228 -33.812  1.00  0.00     0.167 HD
ENDROOT
BRANCH   9  14
HETATM   14  C   UNL     1      -7.578   0.671 -33.874  1.00  0.00    -0.020 A 
HETATM   15  C   UNL     1      -6.796   0.289 -32.775  1.00  0.00     0.014 A 
HETATM   16  C   UNL     1      -5.935  -0.807 -32.865  1.00  0.00     0.020 A 
HETATM   17  C   UNL     1      -5.852  -1.523 -34.058  1.00  0.00     0.011 A 
HETATM   18 BR   UNL     1      -4.685  -3.003 -34.182  1.00  0.00    -0.051 Br
HETATM   19  C   UNL     1      -6.621  -1.153 -35.159  1.00  0.00     0.020 A 
HETATM   20  C   UNL     1      -7.483  -0.057 -35.067  1.00  0.00     0.014 A 
ENDBRANCH   9  14
BRANCH  12  21
HETATM   21  C   UNL     1     -14.061   2.609 -33.356  1.00  0.00     0.072 C 
BRANCH  21  22
HETATM   22  C   UNL     1     -14.488   2.729 -31.893  1.00  0.00     0.169 C 
BRANCH  22  23
HETATM   23  O   UNL     1     -15.453   1.731 -31.569  1.00  0.00    -0.401 OA
HETATM   24  H   UNL     1     -14.995   0.873 -31.583  1.00  0.00     0.209 HD
ENDBRANCH  22  23
ENDBRANCH  21  22
ENDBRANCH  12  21
TORSDOF 4
ENDMDL
MODEL 3
REMARK VINA RESULT:      -7.3      1.524      2.047
REMARK  4 active torsions:
REMARK  status: ('A' for Active; 'I' for Inactive)
REMARK    1  A    between atoms: C_9  and  C_10 
REMARK    2  A    between atoms: C_19  and  C_20 
REMARK    3  A    between atoms: C_20  and  C_21 
REMARK    4  A    between atoms: C_21  and  O_22 
ROOT
HETATM    1  C   UNL     1      -5.611  -2.564 -34.699  1.00  0.00     0.069 C 
HETATM    2  C   UNL     1      -5.564  -1.548 -33.584  1.00  0.00     0.018 A 
HETATM    3  N   UNL     1      -6.686  -0.739 -33.459  1.00  0.00    -0.343 N 
HETATM    4  C   UNL     1      -6.786   0.212 -32.502  1.00  0.00     0.146 A 
HETATM    5  N   UNL     1      -5.739   0.360 -31.618  1.00  0.00    -0.179 N 
HETATM    6  N   UNL     1      -5.981   1.322 -30.689  1.00  0.00    -0.167 NA
HETATM    7  C   UNL     1      -7.190   1.798 -31.015  1.00  0.00     0.066 A 
HETATM    8  C   UNL     1      -7.784   2.900 -30.215  1.00  0.00     0.073 C 
HETATM    9  C   UNL     1      -7.741   1.138 -32.151  1.00  0.00     0.046 A 
HETATM   10  C   UNL     1      -4.559  -0.400 -31.648  1.00  0.00     0.278 A 
HETATM   11  O   UNL     1      -3.659  -0.228 -30.835  1.00  0.00    -0.265 OA
HETATM   12  C   UNL     1      -4.506  -1.433 -32.745  1.00  0.00     0.036 A 
HETATM   13  H   UNL     1      -7.451  -0.909 -34.111  1.00  0.00     0.167 HD
ENDROOT
BRANCH   9  14
HETATM   14  C   UNL     1      -9.004   1.328 -32.836  1.00  0.00    -0.020 A 
HETATM   15  C   UNL     1      -9.249   2.502 -33.563  1.00  0.00     0.014 A 
HETATM   16  C   UNL     1     -10.471   2.689 -34.213  1.00  0.00     0.020 A 
HETATM   17  C   UNL     1     -11.453   1.704 -34.134  1.00  0.00     0.011 A 
HETATM   18 BR   UNL     1     -13.108   1.958 -35.010  1.00  0.00    -0.051 Br
HETATM   19  C   UNL     1     -11.224   0.534 -33.413  1.00  0.00     0.020 A 
HETATM   20  C   UNL     1     -10.000   0.347 -32.764  1.00  0.00     0.014 A 
ENDBRANCH   9  14
BRANCH  12  21
HETATM   21  C   UNL     1      -3.215  -2.215 -32.816  1.00  0.00     0.072 C 
BRANCH  21  22
HETATM   22  C   UNL     1      -3.266  -3.528 -32.035  1.00  0.00     0.169 C 
BRANCH  22  23
HETATM   23  O   UNL     1      -2.207  -3.587 -31.082  1.00  0.00    -0.401 OA
HETATM   24  H   UNL     1      -1.477  -4.079 -31.494  1.00  0.00     0.209 HD
ENDBRANCH  22  23
ENDBRANCH  21  22
ENDBRANCH  12  21
TORSDOF 4
ENDMDL
MODEL 4
REMARK VINA RESULT:      -7.0      5.093      7.646
REMARK  4 active torsions:
REMARK  status: ('A' for Active; 'I' for Inactive)
REMARK    1  A    between atoms: C_9  and  C_10 
REMARK    2  A    between atoms: C_19  and  C_20 
REMARK    3  A    between atoms: C_20  and  C_21 
REMARK    4  A    between atoms: C_21  and  O_22 
ROOT
HETATM    1  C   UNL     1      -1.744   4.903 -34.667  1.00  0.00     0.069 C 
HETATM    2  C   UNL     1      -2.603   4.757 -33.434  1.00  0.00     0.018 A 
HETATM    3  N   UNL     1      -3.247   3.534 -33.290  1.00  0.00    -0.343 N 
HETATM    4  C   UNL     1      -4.044   3.259 -32.233  1.00  0.00     0.146 A 
HETATM    5  N   UNL     1      -4.200   4.228 -31.265  1.00  0.00    -0.179 N 
HETATM    6  N   UNL     1      -4.994   3.813 -30.243  1.00  0.00    -0.167 NA
HETATM    7  C   UNL     1      -5.359   2.572 -30.594  1.00  0.00     0.066 A 
HETATM    8  C   UNL     1      -6.266   1.797 -29.708  1.00  0.00     0.073 C 
HETATM    9  C   UNL     1      -4.793   2.174 -31.838  1.00  0.00     0.046 A 
HETATM   10  C   UNL     1      -3.600   5.497 -31.305  1.00  0.00     0.278 A 
HETATM   11  O   UNL     1      -3.771   6.321 -30.414  1.00  0.00    -0.265 OA
HETATM   12  C   UNL     1      -2.735   5.743 -32.514  1.00  0.00     0.036 A 
HETATM   13  H   UNL     1      -3.072   2.834 -34.011  1.00  0.00     0.167 HD
ENDROOT
BRANCH   9  14
HETATM   14  C   UNL     1      -4.917   0.937 -32.583  1.00  0.00    -0.020 A 
HETATM   15  C   UNL     1      -5.970   0.756 -33.490  1.00  0.00     0.014 A 
HETATM   16  C   UNL     1      -6.096  -0.441 -34.198  1.00  0.00     0.020 A 
HETATM   17  C   UNL     1      -5.168  -1.462 -33.998  1.00  0.00     0.011 A 
HETATM   18 BR   UNL     1      -5.339  -3.084 -34.952  1.00  0.00    -0.051 Br
HETATM   19  C   UNL     1      -4.118  -1.296 -33.098  1.00  0.00     0.020 A 
HETATM   20  C   UNL     1      -3.993  -0.098 -32.390  1.00  0.00     0.014 A 
ENDBRANCH   9  14
BRANCH  12  21
HETATM   21  C   UNL     1      -2.131   7.126 -32.589  1.00  0.00     0.072 C 
BRANCH  21  22
HETATM   22  C   UNL     1      -0.755   7.217 -31.930  1.00  0.00     0.169 C 
BRANCH  22  23
HETATM   23  O   UNL     1      -0.883   7.466 -30.533  1.00  0.00    -0.401 OA
HETATM   24  H   UNL     1      -0.097   7.089 -30.100  1.00  0.00     0.209 HD
ENDBRANCH  22  23
ENDBRANCH  21  22
ENDBRANCH  12  21
TORSDOF 4
ENDMDL
MODEL 5
REMARK VINA RESULT:      -6.9      2.600      4.094
REMARK  4 active torsions:
REMARK  status: ('A' for Active; 'I' for Inactive)
REMARK    1  A    between atoms: C_9  and  C_10 
REMARK    2  A    between atoms: C_19  and  C_20 
REMARK    3  A    between atoms: C_20  and  C_21 
REMARK    4  A    between atoms: C_21  and  O_22 
ROOT
HETATM    1  C   UNL     1      -2.748  -1.769 -31.866  1.00  0.00     0.069 C 
HETATM    2  C   UNL     1      -3.993  -1.629 -32.708  1.00  0.00     0.018 A 
HETATM    3  N   UNL     1      -4.782  -0.518 -32.437  1.00  0.00    -0.343 N 
HETATM    4  C   UNL     1      -5.923  -0.262 -33.116  1.00  0.00     0.146 A 
HETATM    5  N   UNL     1      -6.295  -1.131 -34.118  1.00  0.00    -0.179 N 
HETATM    6  N   UNL     1      -7.437  -0.740 -34.742  1.00  0.00    -0.167 NA
HETATM    7  C   UNL     1      -7.797   0.380 -34.100  1.00  0.00     0.066 A 
HETATM    8  C   UNL     1      -9.037   1.090 -34.504  1.00  0.00     0.073 C 
HETATM    9  C   UNL     1      -6.881   0.725 -33.065  1.00  0.00     0.046 A 
HETATM   10  C   UNL     1      -5.578  -2.283 -34.479  1.00  0.00     0.278 A 
HETATM   11  O   UNL     1      -5.953  -3.021 -35.382  1.00  0.00    -0.265 OA
HETATM   12  C   UNL     1      -4.324  -2.517 -33.677  1.00  0.00     0.036 A 
HETATM   13  H   UNL     1      -4.448   0.118 -31.713  1.00  0.00     0.167 HD
ENDROOT
BRANCH   9  14
HETATM   14  C   UNL     1      -6.878   1.837 -32.136  1.00  0.00    -0.020 A 
HETATM   15  C   UNL     1      -5.964   2.889 -32.289  1.00  0.00     0.014 A 
HETATM   16  C   UNL     1      -5.954   3.954 -31.386  1.00  0.00     0.020 A 
HETATM   17  C   UNL     1      -6.857   3.968 -30.325  1.00  0.00     0.011 A 
HETATM   18 BR   UNL     1      -6.841   5.407 -29.100  1.00  0.00    -0.051 Br
HETATM   19  C   UNL     1      -7.769   2.928 -30.159  1.00  0.00     0.020 A 
HETATM   20  C   UNL     1      -7.780   1.863 -31.064  1.00  0.00     0.014 A 
ENDBRANCH   9  14
BRANCH  12  21
HETATM   21  C   UNL     1      -3.578  -3.785 -34.024  1.00  0.00     0.072 C 
BRANCH  21  22
HETATM   22  C   UNL     1      -4.289  -5.050 -33.544  1.00  0.00     0.169 C 
BRANCH  22  23
HETATM   23  O   UNL     1      -4.861  -5.753 -34.644  1.00  0.00    -0.401 OA
HETATM   24  H   UNL     1      -5.473  -6.413 -34.276  1.00  0.00     0.209 HD
ENDBRANCH  22  23
ENDBRANCH  21  22
ENDBRANCH  12  21
TORSDOF 4
ENDMDL
MODEL 6
REMARK VINA RESULT:      -6.7      4.544      7.076
REMARK  4 active torsions:
REMARK  status: ('A' for Active; 'I' for Inactive)
REMARK    1  A    between atoms: C_9  and  C_10 
REMARK    2  A    between atoms: C_19  and  C_20 
REMARK    3  A    between atoms: C_20  and  C_21 
REMARK    4  A    between atoms: C_21  and  O_22 
ROOT
HETATM    1  C   UNL     1      -2.241   4.229 -33.126  1.00  0.00     0.069 C 
HETATM    2  C   UNL     1      -3.661   4.215 -32.615  1.00  0.00     0.018 A 
HETATM    3  N   UNL     1      -4.365   3.035 -32.825  1.00  0.00    -0.343 N 
HETATM    4  C   UNL     1      -5.644   2.877 -32.416  1.00  0.00     0.146 A 
HETATM    5  N   UNL     1      -6.252   3.923 -31.757  1.00  0.00    -0.179 N 
HETATM    6  N   UNL     1      -7.520   3.622 -31.371  1.00  0.00    -0.167 NA
HETATM    7  C   UNL     1      -7.713   2.374 -31.820  1.00  0.00     0.066 A 
HETATM    8  C   UNL     1      -9.023   1.709 -31.596  1.00  0.00     0.073 C 
HETATM    9  C   UNL     1      -6.567   1.858 -32.489  1.00  0.00     0.046 A 
HETATM   10  C   UNL     1      -5.641   5.158 -31.490  1.00  0.00     0.278 A 
HETATM   11  O   UNL     1      -6.228   6.055 -30.896  1.00  0.00    -0.265 OA
HETATM   12  C   UNL     1      -4.221   5.274 -31.981  1.00  0.00     0.036 A 
HETATM   13  H   UNL     1      -3.863   2.275 -33.284  1.00  0.00     0.167 HD
ENDROOT
BRANCH   9  14
HETATM   14  C   UNL     1      -6.336   0.574 -33.119  1.00  0.00    -0.020 A 
HETATM   15  C   UNL     1      -6.954   0.259 -34.338  1.00  0.00     0.014 A 
HETATM   16  C   UNL     1      -6.741  -0.984 -34.938  1.00  0.00     0.020 A 
HETATM   17  C   UNL     1      -5.911  -1.916 -34.319  1.00  0.00     0.011 A 
HETATM   18 BR   UNL     1      -5.626  -3.600 -35.129  1.00  0.00    -0.051 Br
HETATM   19  C   UNL     1      -5.294  -1.618 -33.107  1.00  0.00     0.020 A 
HETATM   20  C   UNL     1      -5.506  -0.374 -32.507  1.00  0.00     0.014 A 
ENDBRANCH   9  14
BRANCH  12  21
HETATM   21  C   UNL     1      -3.577   6.620 -31.745  1.00  0.00     0.072 C 
BRANCH  21  22
HETATM   22  C   UNL     1      -2.729   6.665 -30.474  1.00  0.00     0.169 C 
BRANCH  22  23
HETATM   23  O   UNL     1      -3.515   6.330 -29.333  1.00  0.00    -0.401 OA
HETATM   24  H   UNL     1      -2.961   6.480 -28.548  1.00  0.00     0.209 HD
ENDBRANCH  22  23
ENDBRANCH  21  22
ENDBRANCH  12  21
TORSDOF 4
ENDMDL
MODEL 7
REMARK VINA RESULT:      -6.7      4.873      6.790
REMARK  4 active torsions:
REMARK  status: ('A' for Active; 'I' for Inactive)
REMARK    1  A    between atoms: C_9  and  C_10 
REMARK    2  A    between atoms: C_19  and  C_20 
REMARK    3  A    between atoms: C_20  and  C_21 
REMARK    4  A    between atoms: C_21  and  O_22 
ROOT
HETATM    1  C   UNL     1      -3.411  -1.032 -32.507  1.00  0.00     0.069 C 
HETATM    2  C   UNL     1      -4.440   0.035 -32.789  1.00  0.00     0.018 A 
HETATM    3  N   UNL     1      -4.009   1.346 -32.631  1.00  0.00    -0.343 N 
HETATM    4  C   UNL     1      -4.821   2.404 -32.854  1.00  0.00     0.146 A 
HETATM    5  N   UNL     1      -6.113   2.158 -33.267  1.00  0.00    -0.179 N 
HETATM    6  N   UNL     1      -6.809   3.305 -33.489  1.00  0.00    -0.167 NA
HETATM    7  C   UNL     1      -5.943   4.281 -33.184  1.00  0.00     0.066 A 
HETATM    8  C   UNL     1      -6.371   5.699 -33.290  1.00  0.00     0.073 C 
HETATM    9  C   UNL     1      -4.678   3.770 -32.775  1.00  0.00     0.046 A 
HETATM   10  C   UNL     1      -6.657   0.879 -33.460  1.00  0.00     0.278 A 
HETATM   11  O   UNL     1      -7.813   0.718 -33.832  1.00  0.00    -0.265 OA
HETATM   12  C   UNL     1      -5.705  -0.256 -33.184  1.00  0.00     0.036 A 
HETATM   13  H   UNL     1      -3.035   1.480 -32.360  1.00  0.00     0.167 HD
ENDROOT
BRANCH   9  14
HETATM   14  C   UNL     1      -3.469   4.455 -32.363  1.00  0.00    -0.020 A 
HETATM   15  C   UNL     1      -3.428   5.157 -31.150  1.00  0.00     0.014 A 
HETATM   16  C   UNL     1      -2.266   5.827 -30.760  1.00  0.00     0.020 A 
HETATM   17  C   UNL     1      -1.143   5.799 -31.585  1.00  0.00     0.011 A 
HETATM   18 BR   UNL     1       0.428   6.708 -31.060  1.00  0.00    -0.051 Br
HETATM   19  C   UNL     1      -1.171   5.107 -32.794  1.00  0.00     0.020 A 
HETATM   20  C   UNL     1      -2.334   4.437 -33.183  1.00  0.00     0.014 A 
ENDBRANCH   9  14
BRANCH  12  21
HETATM   21  C   UNL     1      -6.302  -1.635 -33.337  1.00  0.00     0.072 C 
BRANCH  21  22
HETATM   22  C   UNL     1      -6.100  -2.226 -34.732  1.00  0.00     0.169 C 
BRANCH  22  23
HETATM   23  O   UNL     1      -6.835  -3.438 -34.875  1.00  0.00    -0.401 OA
HETATM   24  H   UNL     1      -7.528  -3.437 -34.192  1.00  0.00     0.209 HD
ENDBRANCH  22  23
ENDBRANCH  21  22
ENDBRANCH  12  21
TORSDOF 4
ENDMDL
MODEL 8
REMARK VINA RESULT:      -6.6      4.639      7.026
REMARK  4 active torsions:
REMARK  status: ('A' for Active; 'I' for Inactive)
REMARK    1  A    between atoms: C_9  and  C_10 
REMARK    2  A    between atoms: C_19  and  C_20 
REMARK    3  A    between atoms: C_20  and  C_21 
REMARK    4  A    between atoms: C_21  and  O_22 
ROOT
HETATM    1  C   UNL     1      -2.263   3.951 -32.619  1.00  0.00     0.069 C 
HETATM    2  C   UNL     1      -3.711   4.345 -32.769  1.00  0.00     0.018 A 
HETATM    3  N   UNL     1      -4.589   3.311 -33.071  1.00  0.00    -0.343 N 
HETATM    4  C   UNL     1      -5.916   3.516 -33.229  1.00  0.00     0.146 A 
HETATM    5  N   UNL     1      -6.403   4.794 -33.065  1.00  0.00    -0.179 N 
HETATM    6  N   UNL     1      -7.753   4.855 -33.216  1.00  0.00    -0.167 NA
HETATM    7  C   UNL     1      -8.109   3.595 -33.503  1.00  0.00     0.066 A 
HETATM    8  C   UNL     1      -9.538   3.278 -33.758  1.00  0.00     0.073 C 
HETATM    9  C   UNL     1      -6.993   2.712 -33.528  1.00  0.00     0.046 A 
HETATM   10  C   UNL     1      -5.613   5.914 -32.760  1.00  0.00     0.278 A 
HETATM   11  O   UNL     1      -6.100   7.030 -32.623  1.00  0.00    -0.265 OA
HETATM   12  C   UNL     1      -4.143   5.621 -32.609  1.00  0.00     0.036 A 
HETATM   13  H   UNL     1      -4.190   2.376 -33.146  1.00  0.00     0.167 HD
ENDROOT
BRANCH   9  14
HETATM   14  C   UNL     1      -6.918   1.288 -33.789  1.00  0.00    -0.020 A 
HETATM   15  C   UNL     1      -6.602   0.392 -32.758  1.00  0.00     0.014 A 
HETATM   16  C   UNL     1      -6.518  -0.979 -33.013  1.00  0.00     0.020 A 
HETATM   17  C   UNL     1      -6.746  -1.456 -34.303  1.00  0.00     0.011 A 
HETATM   18 BR   UNL     1      -6.628  -3.309 -34.650  1.00  0.00    -0.051 Br
HETATM   19  C   UNL     1      -7.058  -0.576 -35.337  1.00  0.00     0.020 A 
HETATM   20  C   UNL     1      -7.143   0.795 -35.080  1.00  0.00     0.014 A 
ENDBRANCH   9  14
BRANCH  12  21
HETATM   21  C   UNL     1      -3.281   6.831 -32.335  1.00  0.00     0.072 C 
BRANCH  21  22
HETATM   22  C   UNL     1      -2.272   7.114 -33.447  1.00  0.00     0.169 C 
BRANCH  22  23
HETATM   23  O   UNL     1      -2.815   6.765 -34.718  1.00  0.00    -0.401 OA
HETATM   24  H   UNL     1      -3.199   5.876 -34.633  1.00  0.00     0.209 HD
ENDBRANCH  22  23
ENDBRANCH  21  22
ENDBRANCH  12  21
TORSDOF 4
ENDMDL
MODEL 9
REMARK VINA RESULT:      -6.5      4.059      6.821
REMARK  4 active torsions:
REMARK  status: ('A' for Active; 'I' for Inactive)
REMARK    1  A    between atoms: C_9  and  C_10 
REMARK    2  A    between atoms: C_19  and  C_20 
REMARK    3  A    between atoms: C_20  and  C_21 
REMARK    4  A    between atoms: C_21  and  O_22 
ROOT
HETATM    1  C   UNL     1      -9.254   3.382 -33.104  1.00  0.00     0.069 C 
HETATM    2  C   UNL     1      -7.925   3.163 -32.422  1.00  0.00     0.018 A 
HETATM    3  N   UNL     1      -7.289   1.963 -32.715  1.00  0.00    -0.343 N 
HETATM    4  C   UNL     1      -6.090   1.635 -32.181  1.00  0.00     0.146 A 
HETATM    5  N   UNL     1      -5.485   2.536 -31.333  1.00  0.00    -0.179 N 
HETATM    6  N   UNL     1      -4.274   2.100 -30.897  1.00  0.00    -0.167 NA
HETATM    7  C   UNL     1      -4.135   0.893 -31.463  1.00  0.00     0.066 A 
HETATM    8  C   UNL     1      -2.914   0.091 -31.189  1.00  0.00     0.073 C 
HETATM    9  C   UNL     1      -5.250   0.549 -32.279  1.00  0.00     0.046 A 
HETATM   10  C   UNL     1      -6.033   3.776 -30.967  1.00  0.00     0.278 A 
HETATM   11  O   UNL     1      -5.448   4.542 -30.210  1.00  0.00    -0.265 OA
HETATM   12  C   UNL     1      -7.373   4.076 -31.586  1.00  0.00     0.036 A 
HETATM   13  H   UNL     1      -7.756   1.344 -33.376  1.00  0.00     0.167 HD
ENDROOT
BRANCH   9  14
HETATM   14  C   UNL     1      -5.516  -0.638 -33.066  1.00  0.00    -0.020 A 
HETATM   15  C   UNL     1      -6.834  -1.008 -33.371  1.00  0.00     0.014 A 
HETATM   16  C   UNL     1      -7.090  -2.159 -34.119  1.00  0.00     0.020 A 
HETATM   17  C   UNL     1      -6.028  -2.945 -34.563  1.00  0.00     0.011 A 
HETATM   18 BR   UNL     1      -6.374  -4.504 -35.572  1.00  0.00    -0.051 Br
HETATM   19  C   UNL     1      -4.714  -2.590 -34.265  1.00  0.00     0.020 A 
HETATM   20  C   UNL     1      -4.459  -1.438 -33.517  1.00  0.00     0.014 A 
ENDBRANCH   9  14
BRANCH  12  21
HETATM   21  C   UNL     1      -7.992   5.384 -31.152  1.00  0.00     0.072 C 
BRANCH  21  22
HETATM   22  C   UNL     1      -8.827   5.259 -29.878  1.00  0.00     0.169 C 
BRANCH  22  23
HETATM   23  O   UNL     1      -8.040   5.566 -28.730  1.00  0.00    -0.401 OA
HETATM   24  H   UNL     1      -7.132   5.271 -28.916  1.00  0.00     0.209 HD
ENDBRANCH  22  23
ENDBRANCH  21  22
ENDBRANCH  12  21
TORSDOF 4
ENDMDL
MODEL 10
REMARK VINA RESULT:      -6.2      4.742      7.507
REMARK  4 active torsions:
REMARK  status: ('A' for Active; 'I' for Inactive)
REMARK    1  A    between atoms: C_9  and  C_10 
REMARK    2  A    between atoms: C_19  and  C_20 
REMARK    3  A    between atoms: C_20  and  C_21 
REMARK    4  A    between atoms: C_21  and  O_22 
ROOT
HETATM    1  C   UNL     1     -10.553   5.059 -34.471  1.00  0.00     0.069 C 
HETATM    2  C   UNL     1      -9.859   3.787 -34.052  1.00  0.00     0.018 A 
HETATM    3  N   UNL     1      -8.485   3.882 -33.866  1.00  0.00    -0.343 N 
HETATM    4  C   UNL     1      -7.734   2.824 -33.485  1.00  0.00     0.146 A 
HETATM    5  N   UNL     1      -8.368   1.621 -33.263  1.00  0.00    -0.179 N 
HETATM    6  N   UNL     1      -7.507   0.653 -32.852  1.00  0.00    -0.167 NA
HETATM    7  C   UNL     1      -6.311   1.258 -32.844  1.00  0.00     0.066 A 
HETATM    8  C   UNL     1      -5.102   0.485 -32.459  1.00  0.00     0.073 C 
HETATM    9  C   UNL     1      -6.395   2.624 -33.237  1.00  0.00     0.046 A 
HETATM   10  C   UNL     1      -9.747   1.407 -33.419  1.00  0.00     0.278 A 
HETATM   11  O   UNL     1     -10.260   0.315 -33.204  1.00  0.00    -0.265 OA
HETATM   12  C   UNL     1     -10.524   2.622 -33.855  1.00  0.00     0.036 A 
HETATM   13  H   UNL     1      -8.065   4.801 -34.006  1.00  0.00     0.167 HD
ENDROOT
BRANCH   9  14
HETATM   14  C   UNL     1      -5.367   3.637 -33.366  1.00  0.00    -0.020 A 
HETATM   15  C   UNL     1      -4.651   4.070 -32.241  1.00  0.00     0.014 A 
HETATM   16  C   UNL     1      -3.669   5.055 -32.364  1.00  0.00     0.020 A 
HETATM   17  C   UNL     1      -3.403   5.613 -33.613  1.00  0.00     0.011 A 
HETATM   18 BR   UNL     1      -2.078   6.949 -33.780  1.00  0.00    -0.051 Br
HETATM   19  C   UNL     1      -4.110   5.194 -34.739  1.00  0.00     0.020 A 
HETATM   20  C   UNL     1      -5.091   4.207 -34.615  1.00  0.00     0.014 A 
ENDBRANCH   9  14
BRANCH  12  21
HETATM   21  C   UNL     1     -11.999   2.383 -34.078  1.00  0.00     0.072 C 
BRANCH  21  22
HETATM   22  C   UNL     1     -12.299   1.653 -35.387  1.00  0.00     0.169 C 
BRANCH  22  23
HETATM   23  O   UNL     1     -12.311   2.567 -36.480  1.00  0.00    -0.401 OA
HETATM   24  H   UNL     1     -13.157   3.045 -36.447  1.00  0.00     0.209 HD
ENDBRANCH  22  23
ENDBRANCH  21  22
ENDBRANCH  12  21
TORSDOF 4
ENDMDL
