MODEL 1
REMARK VINA RESULT:      -8.0      0.000      0.000
REMARK  3 active torsions:
REMARK  status: ('A' for Active; 'I' for Inactive)
REMARK    1  A    between atoms: C_4  and  N_5 
REMARK       I    between atoms: N_5  and  C_6 
REMARK    2  A    between atoms: C_6  and  C_7 
REMARK    3  A    between atoms: C_7  and  C_8 
ROOT
HETATM    1  C   UNL     1      -5.963   0.062 -31.188  1.00  0.00     0.286 C 
HETATM    2  N   UNL     1      -6.161   1.045 -32.337  1.00  0.00    -0.056 N 
HETATM    3  H   UNL     1      -5.250   1.547 -32.423  1.00  0.00     0.278 HD
HETATM    4  H   UNL     1      -6.295   0.555 -33.229  1.00  0.00     0.278 HD
HETATM    5  C   UNL     1      -7.227   2.082 -32.112  1.00  0.00     0.209 C 
HETATM    6  C   UNL     1      -6.981   2.794 -30.759  1.00  0.00     0.115 C 
HETATM    7  N   UNL     1      -6.738   1.862 -29.658  1.00  0.00    -0.353 N 
HETATM    8  C   UNL     1      -5.970   0.731 -29.799  1.00  0.00     0.249 C 
HETATM    9  O   UNL     1      -5.422   0.237 -28.819  1.00  0.00    -0.271 OA
HETATM   10  C   UNL     1      -8.611   1.437 -32.219  1.00  0.00     0.035 C 
HETATM   11  C   UNL     1      -9.711   2.446 -31.902  1.00  0.00     0.002 C 
HETATM   12  C   UNL     1      -9.502   3.081 -30.530  1.00  0.00     0.002 C 
HETATM   13  C   UNL     1      -8.132   3.748 -30.421  1.00  0.00     0.027 C 
HETATM   14  H   UNL     1      -6.663   2.254 -28.721  1.00  0.00     0.163 HD
ENDROOT
BRANCH   1  15
HETATM   15  C   UNL     1      -4.708  -0.803 -31.389  1.00  0.00     0.146 C 
BRANCH  15  16
HETATM   16  C   UNL     1      -3.995  -0.457 -32.668  1.00  0.00     0.224 C 
HETATM   17  N   UNL     1      -4.068  -1.222 -33.786  1.00  0.00    -0.327 N 
HETATM   18  H   UNL     1      -3.519  -0.820 -34.541  1.00  0.00     0.169 HD
HETATM   19  O   UNL     1      -3.377   0.618 -32.726  1.00  0.00    -0.273 OA
BRANCH  17  20
HETATM   20  C   UNL     1      -4.729  -2.421 -34.124  1.00  0.00     0.034 A 
HETATM   21  C   UNL     1      -4.178  -3.702 -34.100  1.00  0.00     0.029 A 
HETATM   22  C   UNL     1      -4.943  -4.817 -34.468  1.00  0.00     0.002 A 
HETATM   23  C   UNL     1      -6.272  -4.667 -34.851  1.00  0.00     0.000 A 
HETATM   24  C   UNL     1      -6.840  -3.400 -34.867  1.00  0.00     0.002 A 
HETATM   25  C   UNL     1      -6.074  -2.288 -34.509  1.00  0.00     0.029 A 
ENDBRANCH  17  20
ENDBRANCH  15  16
ENDBRANCH   1  15
TORSDOF 3
ENDMDL
MODEL 2
REMARK VINA RESULT:      -7.6      1.523      2.136
REMARK  3 active torsions:
REMARK  status: ('A' for Active; 'I' for Inactive)
REMARK    1  A    between atoms: C_4  and  N_5 
REMARK       I    between atoms: N_5  and  C_6 
REMARK    2  A    between atoms: C_6  and  C_7 
REMARK    3  A    between atoms: C_7  and  C_8 
ROOT
HETATM    1  C   UNL     1      -7.356   0.316 -31.921  1.00  0.00     0.286 C 
HETATM    2  N   UNL     1      -7.665   0.459 -33.407  1.00  0.00    -0.056 N 
HETATM    3  H   UNL     1      -6.814   0.897 -33.821  1.00  0.00     0.278 HD
HETATM    4  H   UNL     1      -7.755  -0.458 -33.860  1.00  0.00     0.278 HD
HETATM    5  C   UNL     1      -8.833   1.350 -33.732  1.00  0.00     0.209 C 
HETATM    6  C   UNL     1      -8.652   2.718 -33.030  1.00  0.00     0.115 C 
HETATM    7  N   UNL     1      -8.303   2.594 -31.615  1.00  0.00    -0.353 N 
HETATM    8  C   UNL     1      -7.421   1.648 -31.148  1.00  0.00     0.249 C 
HETATM    9  O   UNL     1      -6.816   1.840 -30.099  1.00  0.00    -0.271 OA
HETATM   10  C   UNL     1     -10.142   0.645 -33.367  1.00  0.00     0.035 C 
HETATM   11  C   UNL     1     -11.340   1.563 -33.598  1.00  0.00     0.002 C 
HETATM   12  C   UNL     1     -11.187   2.876 -32.834  1.00  0.00     0.002 C 
HETATM   13  C   UNL     1      -9.894   3.599 -33.209  1.00  0.00     0.027 C 
HETATM   14  H   UNL     1      -8.262   3.451 -31.066  1.00  0.00     0.163 HD
ENDROOT
BRANCH   1  15
HETATM   15  C   UNL     1      -6.019  -0.405 -31.686  1.00  0.00     0.146 C 
BRANCH  15  16
HETATM   16  C   UNL     1      -5.012  -0.070 -32.753  1.00  0.00     0.224 C 
HETATM   17  N   UNL     1      -4.680  -0.928 -33.751  1.00  0.00    -0.327 N 
HETATM   18  H   UNL     1      -3.985  -0.517 -34.370  1.00  0.00     0.169 HD
HETATM   19  O   UNL     1      -4.524   1.070 -32.766  1.00  0.00    -0.273 OA
BRANCH  17  20
HETATM   20  C   UNL     1      -5.082  -2.230 -34.114  1.00  0.00     0.034 A 
HETATM   21  C   UNL     1      -6.300  -2.586 -34.691  1.00  0.00     0.029 A 
HETATM   22  C   UNL     1      -6.581  -3.924 -35.000  1.00  0.00     0.002 A 
HETATM   23  C   UNL     1      -5.643  -4.920 -34.748  1.00  0.00     0.000 A 
HETATM   24  C   UNL     1      -4.419  -4.580 -34.186  1.00  0.00     0.002 A 
HETATM   25  C   UNL     1      -4.143  -3.247 -33.870  1.00  0.00     0.029 A 
ENDBRANCH  17  20
ENDBRANCH  15  16
ENDBRANCH   1  15
TORSDOF 3
ENDMDL
MODEL 3
REMARK VINA RESULT:      -7.6      2.680      3.528
REMARK  3 active torsions:
REMARK  status: ('A' for Active; 'I' for Inactive)
REMARK    1  A    between atoms: C_4  and  N_5 
REMARK       I    between atoms: N_5  and  C_6 
REMARK    2  A    between atoms: C_6  and  C_7 
REMARK    3  A    between atoms: C_7  and  C_8 
ROOT
HETATM    1  C   UNL     1      -9.035   0.840 -32.256  1.00  0.00     0.286 C 
HETATM    2  N   UNL     1      -9.434   0.798 -33.727  1.00  0.00    -0.056 N 
HETATM    3  H   UNL     1      -8.760   1.432 -34.209  1.00  0.00     0.278 HD
HETATM    4  H   UNL     1      -9.278  -0.133 -34.130  1.00  0.00     0.278 HD
HETATM    5  C   UNL     1     -10.819   1.302 -34.027  1.00  0.00     0.209 C 
HETATM    6  C   UNL     1     -11.006   2.707 -33.402  1.00  0.00     0.115 C 
HETATM    7  N   UNL     1     -10.578   2.774 -32.006  1.00  0.00    -0.353 N 
HETATM    8  C   UNL     1      -9.445   2.145 -31.545  1.00  0.00     0.249 C 
HETATM    9  O   UNL     1      -8.877   2.565 -30.543  1.00  0.00    -0.271 OA
HETATM   10  C   UNL     1     -11.858   0.282 -33.555  1.00  0.00     0.035 C 
HETATM   11  C   UNL     1     -13.275   0.809 -33.761  1.00  0.00     0.002 C 
HETATM   12  C   UNL     1     -13.471   2.157 -33.071  1.00  0.00     0.002 C 
HETATM   13  C   UNL     1     -12.453   3.190 -33.553  1.00  0.00     0.027 C 
HETATM   14  H   UNL     1     -10.760   3.640 -31.501  1.00  0.00     0.163 HD
ENDROOT
BRANCH   1  15
HETATM   15  C   UNL     1      -7.540   0.541 -32.063  1.00  0.00     0.146 C 
BRANCH  15  16
HETATM   16  C   UNL     1      -6.710   1.119 -33.177  1.00  0.00     0.224 C 
HETATM   17  N   UNL     1      -5.977   0.354 -34.025  1.00  0.00    -0.327 N 
HETATM   18  H   UNL     1      -5.489   0.930 -34.707  1.00  0.00     0.169 HD
HETATM   19  O   UNL     1      -6.762   2.342 -33.378  1.00  0.00    -0.273 OA
BRANCH  17  20
HETATM   20  C   UNL     1      -5.753  -1.031 -34.170  1.00  0.00     0.034 A 
HETATM   21  C   UNL     1      -4.562  -1.706 -33.905  1.00  0.00     0.029 A 
HETATM   22  C   UNL     1      -4.468  -3.091 -34.096  1.00  0.00     0.002 A 
HETATM   23  C   UNL     1      -5.566  -3.820 -34.542  1.00  0.00     0.000 A 
HETATM   24  C   UNL     1      -6.763  -3.165 -34.798  1.00  0.00     0.002 A 
HETATM   25  C   UNL     1      -6.854  -1.782 -34.615  1.00  0.00     0.029 A 
ENDBRANCH  17  20
ENDBRANCH  15  16
ENDBRANCH   1  15
TORSDOF 3
ENDMDL
MODEL 4
REMARK VINA RESULT:      -7.6      3.898      5.106
REMARK  3 active torsions:
REMARK  status: ('A' for Active; 'I' for Inactive)
REMARK    1  A    between atoms: C_4  and  N_5 
REMARK       I    between atoms: N_5  and  C_6 
REMARK    2  A    between atoms: C_6  and  C_7 
REMARK    3  A    between atoms: C_7  and  C_8 
ROOT
HETATM    1  C   UNL     1      -5.294   3.525 -33.794  1.00  0.00     0.286 C 
HETATM    2  N   UNL     1      -4.190   3.299 -32.767  1.00  0.00    -0.056 N 
HETATM    3  H   UNL     1      -4.686   3.188 -31.856  1.00  0.00     0.278 HD
HETATM    4  H   UNL     1      -3.704   2.410 -32.931  1.00  0.00     0.278 HD
HETATM    5  C   UNL     1      -3.219   4.437 -32.615  1.00  0.00     0.209 C 
HETATM    6  C   UNL     1      -3.997   5.753 -32.368  1.00  0.00     0.115 C 
HETATM    7  N   UNL     1      -5.092   5.956 -33.315  1.00  0.00    -0.353 N 
HETATM    8  C   UNL     1      -5.914   4.935 -33.730  1.00  0.00     0.249 C 
HETATM    9  O   UNL     1      -7.044   5.185 -34.134  1.00  0.00    -0.271 OA
HETATM   10  C   UNL     1      -2.291   4.495 -33.830  1.00  0.00     0.035 C 
HETATM   11  C   UNL     1      -1.356   5.699 -33.747  1.00  0.00     0.002 C 
HETATM   12  C   UNL     1      -2.139   6.999 -33.587  1.00  0.00     0.002 C 
HETATM   13  C   UNL     1      -3.051   6.960 -32.362  1.00  0.00     0.027 C 
HETATM   14  H   UNL     1      -5.587   6.845 -33.275  1.00  0.00     0.163 HD
ENDROOT
BRANCH   1  15
HETATM   15  C   UNL     1      -6.373   2.433 -33.719  1.00  0.00     0.146 C 
BRANCH  15  16
HETATM   16  C   UNL     1      -6.408   1.779 -32.364  1.00  0.00     0.224 C 
HETATM   17  N   UNL     1      -6.277   0.441 -32.186  1.00  0.00    -0.327 N 
HETATM   18  H   UNL     1      -6.327   0.196 -31.200  1.00  0.00     0.169 HD
HETATM   19  O   UNL     1      -6.480   2.505 -31.361  1.00  0.00    -0.273 OA
BRANCH  17  20
HETATM   20  C   UNL     1      -6.086  -0.660 -33.047  1.00  0.00     0.034 A 
HETATM   21  C   UNL     1      -7.069  -1.296 -33.803  1.00  0.00     0.029 A 
HETATM   22  C   UNL     1      -6.748  -2.390 -34.619  1.00  0.00     0.002 A 
HETATM   23  C   UNL     1      -5.438  -2.852 -34.700  1.00  0.00     0.000 A 
HETATM   24  C   UNL     1      -4.444  -2.220 -33.963  1.00  0.00     0.002 A 
HETATM   25  C   UNL     1      -4.767  -1.135 -33.143  1.00  0.00     0.029 A 
ENDBRANCH  17  20
ENDBRANCH  15  16
ENDBRANCH   1  15
TORSDOF 3
ENDMDL
MODEL 5
REMARK VINA RESULT:      -7.5      2.203      3.606
REMARK  3 active torsions:
REMARK  status: ('A' for Active; 'I' for Inactive)
REMARK    1  A    between atoms: C_4  and  N_5 
REMARK       I    between atoms: N_5  and  C_6 
REMARK    2  A    between atoms: C_6  and  C_7 
REMARK    3  A    between atoms: C_7  and  C_8 
ROOT
HETATM    1  C   UNL     1      -7.353   1.969 -33.459  1.00  0.00     0.286 C 
HETATM    2  N   UNL     1      -8.144   1.765 -32.171  1.00  0.00    -0.056 N 
HETATM    3  H   UNL     1      -7.889   0.807 -31.846  1.00  0.00     0.278 HD
HETATM    4  H   UNL     1      -7.826   2.404 -31.432  1.00  0.00     0.278 HD
HETATM    5  C   UNL     1      -9.639   1.805 -32.328  1.00  0.00     0.209 C 
HETATM    6  C   UNL     1     -10.069   0.827 -33.449  1.00  0.00     0.115 C 
HETATM    7  N   UNL     1      -9.283   0.977 -34.672  1.00  0.00    -0.353 N 
HETATM    8  C   UNL     1      -7.925   1.192 -34.661  1.00  0.00     0.249 C 
HETATM    9  O   UNL     1      -7.247   0.870 -35.630  1.00  0.00    -0.271 OA
HETATM   10  C   UNL     1     -10.099   3.245 -32.565  1.00  0.00     0.035 C 
HETATM   11  C   UNL     1     -11.602   3.305 -32.822  1.00  0.00     0.002 C 
HETATM   12  C   UNL     1     -12.002   2.398 -33.983  1.00  0.00     0.002 C 
HETATM   13  C   UNL     1     -11.568   0.952 -33.745  1.00  0.00     0.027 C 
HETATM   14  H   UNL     1      -9.572   0.434 -35.484  1.00  0.00     0.163 HD
ENDROOT
BRANCH   1  15
HETATM   15  C   UNL     1      -5.858   1.676 -33.260  1.00  0.00     0.146 C 
BRANCH  15  16
HETATM   16  C   UNL     1      -5.616   0.819 -32.048  1.00  0.00     0.224 C 
HETATM   17  N   UNL     1      -5.543  -0.535 -32.103  1.00  0.00    -0.327 N 
HETATM   18  H   UNL     1      -5.373  -0.930 -31.182  1.00  0.00     0.169 HD
HETATM   19  O   UNL     1      -5.394   1.380 -30.964  1.00  0.00    -0.273 OA
BRANCH  17  20
HETATM   20  C   UNL     1      -5.641  -1.492 -33.134  1.00  0.00     0.034 A 
HETATM   21  C   UNL     1      -6.817  -1.935 -33.739  1.00  0.00     0.029 A 
HETATM   22  C   UNL     1      -6.779  -2.900 -34.754  1.00  0.00     0.002 A 
HETATM   23  C   UNL     1      -5.566  -3.424 -35.187  1.00  0.00     0.000 A 
HETATM   24  C   UNL     1      -4.384  -2.983 -34.605  1.00  0.00     0.002 A 
HETATM   25  C   UNL     1      -4.423  -2.027 -33.586  1.00  0.00     0.029 A 
ENDBRANCH  17  20
ENDBRANCH  15  16
ENDBRANCH   1  15
TORSDOF 3
ENDMDL
MODEL 6
REMARK VINA RESULT:      -7.5      4.259      5.332
REMARK  3 active torsions:
REMARK  status: ('A' for Active; 'I' for Inactive)
REMARK    1  A    between atoms: C_4  and  N_5 
REMARK       I    between atoms: N_5  and  C_6 
REMARK    2  A    between atoms: C_6  and  C_7 
REMARK    3  A    between atoms: C_7  and  C_8 
ROOT
HETATM    1  C   UNL     1      -3.646   3.450 -32.493  1.00  0.00     0.286 C 
HETATM    2  N   UNL     1      -3.194   4.020 -31.153  1.00  0.00    -0.056 N 
HETATM    3  H   UNL     1      -4.071   4.150 -30.604  1.00  0.00     0.278 HD
HETATM    4  H   UNL     1      -2.634   3.339 -30.627  1.00  0.00     0.278 HD
HETATM    5  C   UNL     1      -2.507   5.356 -31.228  1.00  0.00     0.209 C 
HETATM    6  C   UNL     1      -3.388   6.348 -32.027  1.00  0.00     0.115 C 
HETATM    7  N   UNL     1      -3.872   5.794 -33.290  1.00  0.00    -0.353 N 
HETATM    8  C   UNL     1      -4.306   4.495 -33.414  1.00  0.00     0.249 C 
HETATM    9  O   UNL     1      -5.096   4.196 -34.303  1.00  0.00    -0.271 OA
HETATM   10  C   UNL     1      -1.101   5.186 -31.808  1.00  0.00     0.035 C 
HETATM   11  C   UNL     1      -0.414   6.538 -31.985  1.00  0.00     0.002 C 
HETATM   12  C   UNL     1      -1.256   7.479 -32.842  1.00  0.00     0.002 C 
HETATM   13  C   UNL     1      -2.655   7.674 -32.258  1.00  0.00     0.027 C 
HETATM   14  H   UNL     1      -4.378   6.421 -33.913  1.00  0.00     0.163 HD
ENDROOT
BRANCH   1  15
HETATM   15  C   UNL     1      -4.543   2.215 -32.311  1.00  0.00     0.146 C 
BRANCH  15  16
HETATM   16  C   UNL     1      -3.767   1.036 -31.792  1.00  0.00     0.224 C 
HETATM   17  N   UNL     1      -4.063  -0.247 -32.120  1.00  0.00    -0.327 N 
HETATM   18  H   UNL     1      -3.424  -0.897 -31.670  1.00  0.00     0.169 HD
HETATM   19  O   UNL     1      -2.762   1.251 -31.097  1.00  0.00    -0.273 OA
BRANCH  17  20
HETATM   20  C   UNL     1      -5.037  -0.862 -32.934  1.00  0.00     0.034 A 
HETATM   21  C   UNL     1      -6.402  -0.578 -32.945  1.00  0.00     0.029 A 
HETATM   22  C   UNL     1      -7.269  -1.269 -33.803  1.00  0.00     0.002 A 
HETATM   23  C   UNL     1      -6.781  -2.242 -34.669  1.00  0.00     0.000 A 
HETATM   24  C   UNL     1      -5.422  -2.527 -34.680  1.00  0.00     0.002 A 
HETATM   25  C   UNL     1      -4.559  -1.844 -33.818  1.00  0.00     0.029 A 
ENDBRANCH  17  20
ENDBRANCH  15  16
ENDBRANCH   1  15
TORSDOF 3
ENDMDL
MODEL 7
REMARK VINA RESULT:      -7.3      3.900      6.495
REMARK  3 active torsions:
REMARK  status: ('A' for Active; 'I' for Inactive)
REMARK    1  A    between atoms: C_4  and  N_5 
REMARK       I    between atoms: N_5  and  C_6 
REMARK    2  A    between atoms: C_6  and  C_7 
REMARK    3  A    between atoms: C_7  and  C_8 
ROOT
HETATM    1  C   UNL     1      -4.472   1.640 -32.211  1.00  0.00     0.286 C 
HETATM    2  N   UNL     1      -5.984   1.819 -32.114  1.00  0.00    -0.056 N 
HETATM    3  H   UNL     1      -6.218   1.608 -31.119  1.00  0.00     0.278 HD
HETATM    4  H   UNL     1      -6.254   2.798 -32.263  1.00  0.00     0.278 HD
HETATM    5  C   UNL     1      -6.792   0.887 -32.974  1.00  0.00     0.209 C 
HETATM    6  C   UNL     1      -6.351  -0.574 -32.713  1.00  0.00     0.115 C 
HETATM    7  N   UNL     1      -4.900  -0.749 -32.752  1.00  0.00    -0.353 N 
HETATM    8  C   UNL     1      -4.027   0.164 -32.208  1.00  0.00     0.249 C 
HETATM    9  O   UNL     1      -2.909  -0.194 -31.854  1.00  0.00    -0.271 OA
HETATM   10  C   UNL     1      -6.680   1.306 -34.442  1.00  0.00     0.035 C 
HETATM   11  C   UNL     1      -7.415   0.321 -35.349  1.00  0.00     0.002 C 
HETATM   12  C   UNL     1      -6.913  -1.105 -35.140  1.00  0.00     0.002 C 
HETATM   13  C   UNL     1      -7.043  -1.540 -33.681  1.00  0.00     0.027 C 
HETATM   14  H   UNL     1      -4.541  -1.700 -32.684  1.00  0.00     0.163 HD
ENDROOT
BRANCH   1  15
HETATM   15  C   UNL     1      -3.733   2.452 -31.135  1.00  0.00     0.146 C 
BRANCH  15  16
HETATM   16  C   UNL     1      -4.396   3.781 -30.890  1.00  0.00     0.224 C 
HETATM   17  N   UNL     1      -4.072   4.905 -31.576  1.00  0.00    -0.327 N 
HETATM   18  H   UNL     1      -4.630   5.697 -31.265  1.00  0.00     0.169 HD
HETATM   19  O   UNL     1      -5.334   3.831 -30.080  1.00  0.00    -0.273 OA
BRANCH  17  20
HETATM   20  C   UNL     1      -3.158   5.210 -32.606  1.00  0.00     0.034 A 
HETATM   21  C   UNL     1      -3.247   4.800 -33.935  1.00  0.00     0.029 A 
HETATM   22  C   UNL     1      -2.265   5.167 -34.864  1.00  0.00     0.002 A 
HETATM   23  C   UNL     1      -1.188   5.960 -34.479  1.00  0.00     0.000 A 
HETATM   24  C   UNL     1      -1.091   6.388 -33.162  1.00  0.00     0.002 A 
HETATM   25  C   UNL     1      -2.067   6.014 -32.234  1.00  0.00     0.029 A 
ENDBRANCH  17  20
ENDBRANCH  15  16
ENDBRANCH   1  15
TORSDOF 3
ENDMDL
MODEL 8
REMARK VINA RESULT:      -7.3      2.986      4.157
REMARK  3 active torsions:
REMARK  status: ('A' for Active; 'I' for Inactive)
REMARK    1  A    between atoms: C_4  and  N_5 
REMARK       I    between atoms: N_5  and  C_6 
REMARK    2  A    between atoms: C_6  and  C_7 
REMARK    3  A    between atoms: C_7  and  C_8 
ROOT
HETATM    1  C   UNL     1      -9.029   1.515 -32.968  1.00  0.00     0.286 C 
HETATM    2  N   UNL     1      -9.360   2.982 -32.716  1.00  0.00    -0.056 N 
HETATM    3  H   UNL     1      -9.515   3.051 -31.687  1.00  0.00     0.278 HD
HETATM    4  H   UNL     1      -8.555   3.586 -32.919  1.00  0.00     0.278 HD
HETATM    5  C   UNL     1     -10.607   3.479 -33.394  1.00  0.00     0.209 C 
HETATM    6  C   UNL     1     -11.791   2.539 -33.057  1.00  0.00     0.115 C 
HETATM    7  N   UNL     1     -11.469   1.125 -33.245  1.00  0.00    -0.353 N 
HETATM    8  C   UNL     1     -10.256   0.585 -32.887  1.00  0.00     0.249 C 
HETATM    9  O   UNL     1     -10.170  -0.611 -32.632  1.00  0.00    -0.271 OA
HETATM   10  C   UNL     1     -10.357   3.632 -34.896  1.00  0.00     0.035 C 
HETATM   11  C   UNL     1     -11.634   4.046 -35.623  1.00  0.00     0.002 C 
HETATM   12  C   UNL     1     -12.770   3.065 -35.349  1.00  0.00     0.002 C 
HETATM   13  C   UNL     1     -13.044   2.923 -33.852  1.00  0.00     0.027 C 
HETATM   14  H   UNL     1     -12.227   0.454 -33.135  1.00  0.00     0.163 HD
ENDROOT
BRANCH   1  15
HETATM   15  C   UNL     1      -7.891   1.024 -32.059  1.00  0.00     0.146 C 
BRANCH  15  16
HETATM   16  C   UNL     1      -6.549   1.506 -32.540  1.00  0.00     0.224 C 
HETATM   17  N   UNL     1      -5.698   0.729 -33.255  1.00  0.00    -0.327 N 
HETATM   18  H   UNL     1      -4.846   1.235 -33.485  1.00  0.00     0.169 HD
HETATM   19  O   UNL     1      -6.243   2.692 -32.341  1.00  0.00    -0.273 OA
BRANCH  17  20
HETATM   20  C   UNL     1      -5.736  -0.594 -33.744  1.00  0.00     0.034 A 
HETATM   21  C   UNL     1      -6.833  -1.226 -34.325  1.00  0.00     0.029 A 
HETATM   22  C   UNL     1      -6.742  -2.553 -34.767  1.00  0.00     0.002 A 
HETATM   23  C   UNL     1      -5.550  -3.259 -34.645  1.00  0.00     0.000 A 
HETATM   24  C   UNL     1      -4.443  -2.639 -34.081  1.00  0.00     0.002 A 
HETATM   25  C   UNL     1      -4.537  -1.318 -33.632  1.00  0.00     0.029 A 
ENDBRANCH  17  20
ENDBRANCH  15  16
ENDBRANCH   1  15
TORSDOF 3
ENDMDL
MODEL 9
REMARK VINA RESULT:      -7.2      1.747      2.493
REMARK  3 active torsions:
REMARK  status: ('A' for Active; 'I' for Inactive)
REMARK    1  A    between atoms: C_4  and  N_5 
REMARK       I    between atoms: N_5  and  C_6 
REMARK    2  A    between atoms: C_6  and  C_7 
REMARK    3  A    between atoms: C_7  and  C_8 
ROOT
HETATM    1  C   UNL     1      -7.234   1.033 -32.048  1.00  0.00     0.286 C 
HETATM    2  N   UNL     1      -6.912   1.886 -30.826  1.00  0.00    -0.056 N 
HETATM    3  H   UNL     1      -7.032   1.246 -30.010  1.00  0.00     0.278 HD
HETATM    4  H   UNL     1      -5.925   2.169 -30.816  1.00  0.00     0.278 HD
HETATM    5  C   UNL     1      -7.824   3.063 -30.612  1.00  0.00     0.209 C 
HETATM    6  C   UNL     1      -9.298   2.588 -30.632  1.00  0.00     0.115 C 
HETATM    7  N   UNL     1      -9.606   1.726 -31.772  1.00  0.00    -0.353 N 
HETATM    8  C   UNL     1      -8.740   0.759 -32.227  1.00  0.00     0.249 C 
HETATM    9  O   UNL     1      -9.173  -0.207 -32.846  1.00  0.00    -0.271 OA
HETATM   10  C   UNL     1      -7.520   4.151 -31.645  1.00  0.00     0.035 C 
HETATM   11  C   UNL     1      -8.493   5.319 -31.512  1.00  0.00     0.002 C 
HETATM   12  C   UNL     1      -9.941   4.848 -31.616  1.00  0.00     0.002 C 
HETATM   13  C   UNL     1     -10.262   3.778 -30.573  1.00  0.00     0.027 C 
HETATM   14  H   UNL     1     -10.578   1.453 -31.904  1.00  0.00     0.163 HD
ENDROOT
BRANCH   1  15
HETATM   15  C   UNL     1      -6.420  -0.271 -32.062  1.00  0.00     0.146 C 
BRANCH  15  16
HETATM   16  C   UNL     1      -5.126  -0.110 -32.812  1.00  0.00     0.224 C 
HETATM   17  N   UNL     1      -4.642  -1.051 -33.661  1.00  0.00    -0.327 N 
HETATM   18  H   UNL     1      -3.759  -0.756 -34.070  1.00  0.00     0.169 HD
HETATM   19  O   UNL     1      -4.515   0.965 -32.709  1.00  0.00    -0.273 OA
BRANCH  17  20
HETATM   20  C   UNL     1      -5.089  -2.316 -34.098  1.00  0.00     0.034 A 
HETATM   21  C   UNL     1      -6.303  -2.590 -34.725  1.00  0.00     0.029 A 
HETATM   22  C   UNL     1      -6.632  -3.898 -35.106  1.00  0.00     0.002 A 
HETATM   23  C   UNL     1      -5.745  -4.945 -34.877  1.00  0.00     0.000 A 
HETATM   24  C   UNL     1      -4.526  -4.687 -34.265  1.00  0.00     0.002 A 
HETATM   25  C   UNL     1      -4.202  -3.383 -33.878  1.00  0.00     0.029 A 
ENDBRANCH  17  20
ENDBRANCH  15  16
ENDBRANCH   1  15
TORSDOF 3
ENDMDL
MODEL 10
REMARK VINA RESULT:      -7.2      4.589      6.061
REMARK  3 active torsions:
REMARK  status: ('A' for Active; 'I' for Inactive)
REMARK    1  A    between atoms: C_4  and  N_5 
REMARK       I    between atoms: N_5  and  C_6 
REMARK    2  A    between atoms: C_6  and  C_7 
REMARK    3  A    between atoms: C_7  and  C_8 
ROOT
HETATM    1  C   UNL     1      -4.219   4.355 -33.392  1.00  0.00     0.286 C 
HETATM    2  N   UNL     1      -4.241   4.896 -31.966  1.00  0.00    -0.056 N 
HETATM    3  H   UNL     1      -5.082   5.512 -31.923  1.00  0.00     0.278 HD
HETATM    4  H   UNL     1      -4.409   4.146 -31.285  1.00  0.00     0.278 HD
HETATM    5  C   UNL     1      -3.051   5.731 -31.582  1.00  0.00     0.209 C 
HETATM    6  C   UNL     1      -2.839   6.847 -32.636  1.00  0.00     0.115 C 
HETATM    7  N   UNL     1      -2.868   6.349 -34.010  1.00  0.00    -0.353 N 
HETATM    8  C   UNL     1      -3.761   5.393 -34.435  1.00  0.00     0.249 C 
HETATM    9  O   UNL     1      -4.068   5.327 -35.620  1.00  0.00    -0.271 OA
HETATM   10  C   UNL     1      -1.826   4.834 -31.390  1.00  0.00     0.035 C 
HETATM   11  C   UNL     1      -0.581   5.665 -31.092  1.00  0.00     0.002 C 
HETATM   12  C   UNL     1      -0.337   6.707 -32.181  1.00  0.00     0.002 C 
HETATM   13  C   UNL     1      -1.546   7.624 -32.364  1.00  0.00     0.027 C 
HETATM   14  H   UNL     1      -2.641   7.009 -34.752  1.00  0.00     0.163 HD
ENDROOT
BRANCH   1  15
HETATM   15  C   UNL     1      -5.565   3.723 -33.781  1.00  0.00     0.146 C 
BRANCH  15  16
HETATM   16  C   UNL     1      -6.288   3.174 -32.581  1.00  0.00     0.224 C 
HETATM   17  N   UNL     1      -6.190   1.879 -32.189  1.00  0.00    -0.327 N 
HETATM   18  H   UNL     1      -6.751   1.704 -31.358  1.00  0.00     0.169 HD
HETATM   19  O   UNL     1      -6.939   3.958 -31.875  1.00  0.00    -0.273 OA
BRANCH  17  20
HETATM   20  C   UNL     1      -5.491   0.749 -32.663  1.00  0.00     0.034 A 
HETATM   21  C   UNL     1      -4.133   0.486 -32.489  1.00  0.00     0.029 A 
HETATM   22  C   UNL     1      -3.557  -0.676 -33.018  1.00  0.00     0.002 A 
HETATM   23  C   UNL     1      -4.332  -1.596 -33.717  1.00  0.00     0.000 A 
HETATM   24  C   UNL     1      -5.689  -1.356 -33.888  1.00  0.00     0.002 A 
HETATM   25  C   UNL     1      -6.262  -0.192 -33.367  1.00  0.00     0.029 A 
ENDBRANCH  17  20
ENDBRANCH  15  16
ENDBRANCH   1  15
TORSDOF 3
ENDMDL
