MODEL 1
REMARK VINA RESULT:      -8.4      0.000      0.000
REMARK  6 active torsions:
REMARK  status: ('A' for Active; 'I' for Inactive)
REMARK    1  A    between atoms: C_9  and  C_10 
REMARK       I    between atoms: C_10  and  N_11 
REMARK    2  A    between atoms: N_11  and  C_12 
REMARK    3  A    between atoms: C_12  and  C_13 
REMARK    4  A    between atoms: C_13  and  O_14 
REMARK    5  A    between atoms: C_13  and  C_15 
REMARK    6  A    between atoms: C_18  and  O_19 
ROOT
HETATM    1  C   UNL     1      -3.991   2.943 -31.887  1.00  0.00     0.258 C 
HETATM    2  N   UNL     1      -5.006   2.519 -31.059  1.00  0.00    -0.350 N 
HETATM    3  O   UNL     1      -3.370   2.176 -32.615  1.00  0.00    -0.267 OA
HETATM    4  H   UNL     1      -5.396   3.198 -30.405  1.00  0.00     0.163 HD
ENDROOT
BRANCH   2   5
HETATM    5  C   UNL     1      -5.361   1.107 -30.912  1.00  0.00     0.114 C 
HETATM    6  C   UNL     1      -5.659   0.813 -29.439  1.00  0.00     0.035 C 
BRANCH   5   7
HETATM    7  C   UNL     1      -6.531   0.740 -31.869  1.00  0.00     0.173 C 
BRANCH   7   8
HETATM    8  O   UNL     1      -7.744   0.502 -31.148  1.00  0.00    -0.389 OA
HETATM    9  H   UNL     1      -8.464   0.504 -31.802  1.00  0.00     0.210 HD
ENDBRANCH   7   8
BRANCH   7  10
HETATM   10  C   UNL     1      -6.211  -0.428 -32.784  1.00  0.00    -0.028 A 
HETATM   11  C   UNL     1      -7.220  -0.967 -33.594  1.00  0.00     0.012 A 
HETATM   12  C   UNL     1      -6.942  -2.019 -34.470  1.00  0.00     0.037 A 
HETATM   13  C   UNL     1      -5.654  -2.545 -34.566  1.00  0.00     0.068 A 
HETATM   14  C   UNL     1      -4.645  -2.022 -33.758  1.00  0.00     0.037 A 
HETATM   15  C   UNL     1      -4.923  -0.973 -32.873  1.00  0.00     0.012 A 
BRANCH  13  16
HETATM   16  O   UNL     1      -5.516  -3.560 -35.472  1.00  0.00    -0.356 OA
HETATM   17  C   UNL     1      -6.477  -4.605 -35.412  1.00  0.00     0.210 C 
ENDBRANCH  13  16
ENDBRANCH   7  10
ENDBRANCH   5   7
ENDBRANCH   2   5
BRANCH   1  18
HETATM   18  C   UNL     1      -3.703   4.368 -31.842  1.00  0.00     0.105 A 
HETATM   19  C   UNL     1      -2.521   4.991 -31.484  1.00  0.00     0.169 A 
HETATM   20  N   UNL     1      -1.309   4.485 -31.083  1.00  0.00    -0.233 NA
HETATM   21  N   UNL     1      -2.752   6.368 -31.591  1.00  0.00    -0.219 N 
HETATM   22  C   UNL     1      -0.379   5.350 -30.811  1.00  0.00     0.035 A 
HETATM   23  C   UNL     1       0.965   4.847 -30.353  1.00  0.00     0.070 C 
HETATM   24  C   UNL     1      -0.529   6.835 -30.923  1.00  0.00     0.053 A 
HETATM   25  C   UNL     1      -1.734   7.290 -31.304  1.00  0.00     0.036 A 
HETATM   26  C   UNL     1      -2.022   8.754 -31.451  1.00  0.00     0.070 C 
HETATM   27  N   UNL     1      -4.017   6.631 -31.998  1.00  0.00    -0.170 NA
HETATM   28  C   UNL     1      -4.587   5.432 -32.158  1.00  0.00     0.071 A 
HETATM   29  C   UNL     1      -5.995   5.340 -32.623  1.00  0.00     0.073 C 
ENDBRANCH   1  18
TORSDOF 6
ENDMDL
MODEL 2
REMARK VINA RESULT:      -8.3      2.703      8.642
REMARK  6 active torsions:
REMARK  status: ('A' for Active; 'I' for Inactive)
REMARK    1  A    between atoms: C_9  and  C_10 
REMARK       I    between atoms: C_10  and  N_11 
REMARK    2  A    between atoms: N_11  and  C_12 
REMARK    3  A    between atoms: C_12  and  C_13 
REMARK    4  A    between atoms: C_13  and  O_14 
REMARK    5  A    between atoms: C_13  and  C_15 
REMARK    6  A    between atoms: C_18  and  O_19 
ROOT
HETATM    1  C   UNL     1      -3.309   3.701 -32.089  1.00  0.00     0.258 C 
HETATM    2  N   UNL     1      -3.204   4.633 -33.098  1.00  0.00    -0.350 N 
HETATM    3  O   UNL     1      -2.362   3.394 -31.373  1.00  0.00    -0.267 OA
HETATM    4  H   UNL     1      -4.005   4.750 -33.717  1.00  0.00     0.163 HD
ENDROOT
BRANCH   2   5
HETATM    5  C   UNL     1      -1.931   5.260 -33.457  1.00  0.00     0.114 C 
HETATM    6  C   UNL     1      -1.724   5.150 -34.970  1.00  0.00     0.035 C 
BRANCH   5   7
HETATM    7  C   UNL     1      -1.879   6.722 -32.926  1.00  0.00     0.173 C 
BRANCH   7   8
HETATM    8  O   UNL     1      -1.394   7.625 -33.924  1.00  0.00    -0.389 OA
HETATM    9  H   UNL     1      -1.469   8.521 -33.550  1.00  0.00     0.210 HD
ENDBRANCH   7   8
BRANCH   7  10
HETATM   10  C   UNL     1      -1.084   6.863 -31.640  1.00  0.00    -0.028 A 
HETATM   11  C   UNL     1      -1.486   7.802 -30.680  1.00  0.00     0.012 A 
HETATM   12  C   UNL     1      -0.791   7.927 -29.475  1.00  0.00     0.037 A 
HETATM   13  C   UNL     1       0.306   7.111 -29.196  1.00  0.00     0.068 A 
HETATM   14  C   UNL     1       0.718   6.180 -30.148  1.00  0.00     0.037 A 
HETATM   15  C   UNL     1       0.029   6.058 -31.361  1.00  0.00     0.012 A 
BRANCH  13  16
HETATM   16  O   UNL     1       0.883   7.327 -27.975  1.00  0.00    -0.356 OA
HETATM   17  C   UNL     1       1.521   8.582 -27.782  1.00  0.00     0.210 C 
ENDBRANCH  13  16
ENDBRANCH   7  10
ENDBRANCH   5   7
ENDBRANCH   2   5
BRANCH   1  18
HETATM   18  C   UNL     1      -4.625   3.103 -31.927  1.00  0.00     0.105 A 
HETATM   19  C   UNL     1      -5.028   1.822 -32.255  1.00  0.00     0.169 A 
HETATM   20  N   UNL     1      -4.347   0.765 -32.806  1.00  0.00    -0.233 NA
HETATM   21  N   UNL     1      -6.386   1.736 -31.918  1.00  0.00    -0.219 N 
HETATM   22  C   UNL     1      -5.024  -0.329 -32.995  1.00  0.00     0.035 A 
HETATM   23  C   UNL     1      -4.326  -1.514 -33.610  1.00  0.00     0.070 C 
HETATM   24  C   UNL     1      -6.466  -0.517 -32.642  1.00  0.00     0.053 A 
HETATM   25  C   UNL     1      -7.101   0.546 -32.120  1.00  0.00     0.036 A 
HETATM   26  C   UNL     1      -8.546   0.495 -31.726  1.00  0.00     0.070 C 
HETATM   27  N   UNL     1      -6.843   2.900 -31.397  1.00  0.00    -0.170 NA
HETATM   28  C   UNL     1      -5.787   3.718 -31.393  1.00  0.00     0.071 A 
HETATM   29  C   UNL     1      -5.925   5.099 -30.861  1.00  0.00     0.073 C 
ENDBRANCH   1  18
TORSDOF 6
ENDMDL
MODEL 3
REMARK VINA RESULT:      -8.1      1.922      2.397
REMARK  6 active torsions:
REMARK  status: ('A' for Active; 'I' for Inactive)
REMARK    1  A    between atoms: C_9  and  C_10 
REMARK       I    between atoms: C_10  and  N_11 
REMARK    2  A    between atoms: N_11  and  C_12 
REMARK    3  A    between atoms: C_12  and  C_13 
REMARK    4  A    between atoms: C_13  and  O_14 
REMARK    5  A    between atoms: C_13  and  C_15 
REMARK    6  A    between atoms: C_18  and  O_19 
ROOT
HETATM    1  C   UNL     1      -4.780   2.732 -31.684  1.00  0.00     0.258 C 
HETATM    2  N   UNL     1      -6.034   2.536 -32.219  1.00  0.00    -0.350 N 
HETATM    3  O   UNL     1      -4.020   1.805 -31.426  1.00  0.00    -0.267 OA
HETATM    4  H   UNL     1      -6.645   3.349 -32.300  1.00  0.00     0.163 HD
ENDROOT
BRANCH   2   5
HETATM    5  C   UNL     1      -6.595   1.201 -32.435  1.00  0.00     0.114 C 
HETATM    6  C   UNL     1      -8.036   1.171 -31.917  1.00  0.00     0.035 C 
BRANCH   5   7
HETATM    7  C   UNL     1      -6.461   0.792 -33.929  1.00  0.00     0.173 C 
BRANCH   7   8
HETATM    8  O   UNL     1      -7.662   1.065 -34.657  1.00  0.00    -0.389 OA
HETATM    9  H   UNL     1      -7.504   0.781 -35.574  1.00  0.00     0.210 HD
ENDBRANCH   7   8
BRANCH   7  10
HETATM   10  C   UNL     1      -6.033  -0.652 -34.118  1.00  0.00    -0.028 A 
HETATM   11  C   UNL     1      -4.755  -1.053 -33.707  1.00  0.00     0.012 A 
HETATM   12  C   UNL     1      -4.351  -2.384 -33.838  1.00  0.00     0.037 A 
HETATM   13  C   UNL     1      -5.215  -3.342 -34.368  1.00  0.00     0.068 A 
HETATM   14  C   UNL     1      -6.486  -2.952 -34.788  1.00  0.00     0.037 A 
HETATM   15  C   UNL     1      -6.891  -1.617 -34.666  1.00  0.00     0.012 A 
BRANCH  13  16
HETATM   16  O   UNL     1      -4.700  -4.608 -34.426  1.00  0.00    -0.356 OA
HETATM   17  C   UNL     1      -3.536  -4.860 -33.651  1.00  0.00     0.210 C 
ENDBRANCH  13  16
ENDBRANCH   7  10
ENDBRANCH   5   7
ENDBRANCH   2   5
BRANCH   1  18
HETATM   18  C   UNL     1      -4.415   4.120 -31.445  1.00  0.00     0.105 A 
HETATM   19  C   UNL     1      -3.540   4.911 -32.167  1.00  0.00     0.169 A 
HETATM   20  N   UNL     1      -2.784   4.649 -33.283  1.00  0.00    -0.233 NA
HETATM   21  N   UNL     1      -3.521   6.160 -31.532  1.00  0.00    -0.219 N 
HETATM   22  C   UNL     1      -2.048   5.624 -33.728  1.00  0.00     0.035 A 
HETATM   23  C   UNL     1      -1.188   5.383 -34.942  1.00  0.00     0.070 C 
HETATM   24  C   UNL     1      -1.985   6.994 -33.130  1.00  0.00     0.053 A 
HETATM   25  C   UNL     1      -2.728   7.205 -32.032  1.00  0.00     0.036 A 
HETATM   26  C   UNL     1      -2.754   8.530 -31.330  1.00  0.00     0.070 C 
HETATM   27  N   UNL     1      -4.339   6.183 -30.454  1.00  0.00    -0.170 NA
HETATM   28  C   UNL     1      -4.884   4.963 -30.404  1.00  0.00     0.071 A 
HETATM   29  C   UNL     1      -5.864   4.635 -29.336  1.00  0.00     0.073 C 
ENDBRANCH   1  18
TORSDOF 6
ENDMDL
MODEL 4
REMARK VINA RESULT:      -8.0      3.288      8.530
REMARK  6 active torsions:
REMARK  status: ('A' for Active; 'I' for Inactive)
REMARK    1  A    between atoms: C_9  and  C_10 
REMARK       I    between atoms: C_10  and  N_11 
REMARK    2  A    between atoms: N_11  and  C_12 
REMARK    3  A    between atoms: C_12  and  C_13 
REMARK    4  A    between atoms: C_13  and  O_14 
REMARK    5  A    between atoms: C_13  and  C_15 
REMARK    6  A    between atoms: C_18  and  O_19 
ROOT
HETATM    1  C   UNL     1      -2.990   3.482 -32.174  1.00  0.00     0.258 C 
HETATM    2  N   UNL     1      -2.894   4.305 -33.274  1.00  0.00    -0.350 N 
HETATM    3  O   UNL     1      -2.157   3.484 -31.274  1.00  0.00    -0.267 OA
HETATM    4  H   UNL     1      -3.565   4.164 -34.029  1.00  0.00     0.163 HD
ENDROOT
BRANCH   2   5
HETATM    5  C   UNL     1      -1.742   5.179 -33.502  1.00  0.00     0.114 C 
HETATM    6  C   UNL     1      -1.399   5.180 -34.995  1.00  0.00     0.035 C 
BRANCH   5   7
HETATM    7  C   UNL     1      -2.015   6.597 -32.925  1.00  0.00     0.173 C 
BRANCH   7   8
HETATM    8  O   UNL     1      -1.603   7.622 -33.834  1.00  0.00    -0.389 OA
HETATM    9  H   UNL     1      -1.258   8.353 -33.294  1.00  0.00     0.210 HD
ENDBRANCH   7   8
BRANCH   7  10
HETATM   10  C   UNL     1      -1.399   6.813 -31.554  1.00  0.00    -0.028 A 
HETATM   11  C   UNL     1      -2.234   6.982 -30.441  1.00  0.00     0.012 A 
HETATM   12  C   UNL     1      -1.691   7.149 -29.165  1.00  0.00     0.037 A 
HETATM   13  C   UNL     1      -0.310   7.137 -28.971  1.00  0.00     0.068 A 
HETATM   14  C   UNL     1       0.529   6.978 -30.073  1.00  0.00     0.037 A 
HETATM   15  C   UNL     1      -0.012   6.820 -31.355  1.00  0.00     0.012 A 
BRANCH  13  16
HETATM   16  O   UNL     1       0.087   7.295 -27.671  1.00  0.00    -0.356 OA
HETATM   17  C   UNL     1      -0.421   6.359 -26.730  1.00  0.00     0.210 C 
ENDBRANCH  13  16
ENDBRANCH   7  10
ENDBRANCH   5   7
ENDBRANCH   2   5
BRANCH   1  18
HETATM   18  C   UNL     1      -4.152   2.607 -32.150  1.00  0.00     0.105 A 
HETATM   19  C   UNL     1      -5.454   2.902 -32.511  1.00  0.00     0.169 A 
HETATM   20  N   UNL     1      -6.029   4.055 -32.985  1.00  0.00    -0.233 NA
HETATM   21  N   UNL     1      -6.198   1.734 -32.298  1.00  0.00    -0.219 N 
HETATM   22  C   UNL     1      -7.304   4.010 -33.234  1.00  0.00     0.035 A 
HETATM   23  C   UNL     1      -7.985   5.254 -33.742  1.00  0.00     0.070 C 
HETATM   24  C   UNL     1      -8.169   2.802 -33.061  1.00  0.00     0.053 A 
HETATM   25  C   UNL     1      -7.572   1.698 -32.581  1.00  0.00     0.036 A 
HETATM   26  C   UNL     1      -8.323   0.420 -32.355  1.00  0.00     0.070 C 
HETATM   27  N   UNL     1      -5.423   0.730 -31.824  1.00  0.00    -0.170 NA
HETATM   28  C   UNL     1      -4.193   1.248 -31.743  1.00  0.00     0.071 A 
HETATM   29  C   UNL     1      -3.066   0.403 -31.269  1.00  0.00     0.073 C 
ENDBRANCH   1  18
TORSDOF 6
ENDMDL
MODEL 5
REMARK VINA RESULT:      -7.7      1.563      2.780
REMARK  6 active torsions:
REMARK  status: ('A' for Active; 'I' for Inactive)
REMARK    1  A    between atoms: C_9  and  C_10 
REMARK       I    between atoms: C_10  and  N_11 
REMARK    2  A    between atoms: N_11  and  C_12 
REMARK    3  A    between atoms: C_12  and  C_13 
REMARK    4  A    between atoms: C_13  and  O_14 
REMARK    5  A    between atoms: C_13  and  C_15 
REMARK    6  A    between atoms: C_18  and  O_19 
ROOT
HETATM    1  C   UNL     1      -5.809   3.476 -31.156  1.00  0.00     0.258 C 
HETATM    2  N   UNL     1      -6.287   2.764 -32.233  1.00  0.00    -0.350 N 
HETATM    3  O   UNL     1      -6.501   3.736 -30.177  1.00  0.00    -0.267 OA
HETATM    4  H   UNL     1      -5.685   2.687 -33.052  1.00  0.00     0.163 HD
ENDROOT
BRANCH   2   5
HETATM    5  C   UNL     1      -7.685   2.343 -32.337  1.00  0.00     0.114 C 
HETATM    6  C   UNL     1      -8.159   2.523 -33.782  1.00  0.00     0.035 C 
BRANCH   5   7
HETATM    7  C   UNL     1      -7.855   0.893 -31.801  1.00  0.00     0.173 C 
BRANCH   7   8
HETATM    8  O   UNL     1      -7.466   0.792 -30.428  1.00  0.00    -0.389 OA
HETATM    9  H   UNL     1      -8.126   0.227 -29.991  1.00  0.00     0.210 HD
ENDBRANCH   7   8
BRANCH   7  10
HETATM   10  C   UNL     1      -7.133  -0.144 -32.643  1.00  0.00    -0.028 A 
HETATM   11  C   UNL     1      -7.786  -0.715 -33.744  1.00  0.00     0.012 A 
HETATM   12  C   UNL     1      -7.131  -1.646 -34.554  1.00  0.00     0.037 A 
HETATM   13  C   UNL     1      -5.811  -2.015 -34.292  1.00  0.00     0.068 A 
HETATM   14  C   UNL     1      -5.156  -1.459 -33.195  1.00  0.00     0.037 A 
HETATM   15  C   UNL     1      -5.813  -0.533 -32.375  1.00  0.00     0.012 A 
BRANCH  13  16
HETATM   16  O   UNL     1      -5.286  -2.921 -35.171  1.00  0.00    -0.356 OA
HETATM   17  C   UNL     1      -5.935  -4.183 -35.253  1.00  0.00     0.210 C 
ENDBRANCH  13  16
ENDBRANCH   7  10
ENDBRANCH   5   7
ENDBRANCH   2   5
BRANCH   1  18
HETATM   18  C   UNL     1      -4.422   3.901 -31.255  1.00  0.00     0.105 A 
HETATM   19  C   UNL     1      -3.919   5.190 -31.252  1.00  0.00     0.169 A 
HETATM   20  N   UNL     1      -4.541   6.410 -31.156  1.00  0.00    -0.233 NA
HETATM   21  N   UNL     1      -2.529   5.072 -31.382  1.00  0.00    -0.219 N 
HETATM   22  C   UNL     1      -3.773   7.458 -31.185  1.00  0.00     0.035 A 
HETATM   23  C   UNL     1      -4.407   8.822 -31.097  1.00  0.00     0.070 C 
HETATM   24  C   UNL     1      -2.281   7.425 -31.296  1.00  0.00     0.053 A 
HETATM   25  C   UNL     1      -1.712   6.213 -31.403  1.00  0.00     0.036 A 
HETATM   26  C   UNL     1      -0.228   6.037 -31.525  1.00  0.00     0.070 C 
HETATM   27  N   UNL     1      -2.145   3.776 -31.465  1.00  0.00    -0.170 NA
HETATM   28  C   UNL     1      -3.277   3.071 -31.380  1.00  0.00     0.071 A 
HETATM   29  C   UNL     1      -3.227   1.586 -31.418  1.00  0.00     0.073 C 
ENDBRANCH   1  18
TORSDOF 6
ENDMDL
MODEL 6
REMARK VINA RESULT:      -7.6      5.171      8.604
REMARK  6 active torsions:
REMARK  status: ('A' for Active; 'I' for Inactive)
REMARK    1  A    between atoms: C_9  and  C_10 
REMARK       I    between atoms: C_10  and  N_11 
REMARK    2  A    between atoms: N_11  and  C_12 
REMARK    3  A    between atoms: C_12  and  C_13 
REMARK    4  A    between atoms: C_13  and  O_14 
REMARK    5  A    between atoms: C_13  and  C_15 
REMARK    6  A    between atoms: C_18  and  O_19 
ROOT
HETATM    1  C   UNL     1     -10.171   1.163 -33.631  1.00  0.00     0.258 C 
HETATM    2  N   UNL     1     -11.362   0.841 -33.021  1.00  0.00    -0.350 N 
HETATM    3  O   UNL     1     -10.103   1.510 -34.806  1.00  0.00    -0.267 OA
HETATM    4  H   UNL     1     -11.320   0.456 -32.078  1.00  0.00     0.163 HD
ENDROOT
BRANCH   2   5
HETATM    5  C   UNL     1     -12.630   0.796 -33.751  1.00  0.00     0.114 C 
HETATM    6  C   UNL     1     -13.274  -0.580 -33.557  1.00  0.00     0.035 C 
BRANCH   5   7
HETATM    7  C   UNL     1     -13.545   1.978 -33.320  1.00  0.00     0.173 C 
BRANCH   7   8
HETATM    8  O   UNL     1     -14.881   1.810 -33.804  1.00  0.00    -0.389 OA
HETATM    9  H   UNL     1     -15.094   2.606 -34.321  1.00  0.00     0.210 HD
ENDBRANCH   7   8
BRANCH   7  10
HETATM   10  C   UNL     1     -12.995   3.336 -33.719  1.00  0.00    -0.028 A 
HETATM   11  C   UNL     1     -12.611   4.244 -32.723  1.00  0.00     0.012 A 
HETATM   12  C   UNL     1     -12.070   5.486 -33.064  1.00  0.00     0.037 A 
HETATM   13  C   UNL     1     -11.889   5.841 -34.401  1.00  0.00     0.068 A 
HETATM   14  C   UNL     1     -12.275   4.948 -35.399  1.00  0.00     0.037 A 
HETATM   15  C   UNL     1     -12.826   3.706 -35.060  1.00  0.00     0.012 A 
BRANCH  13  16
HETATM   16  O   UNL     1     -11.336   7.077 -34.594  1.00  0.00    -0.356 OA
HETATM   17  C   UNL     1     -11.492   7.653 -35.884  1.00  0.00     0.210 C 
ENDBRANCH  13  16
ENDBRANCH   7  10
ENDBRANCH   5   7
ENDBRANCH   2   5
BRANCH   1  18
HETATM   18  C   UNL     1      -8.990   1.066 -32.786  1.00  0.00     0.105 A 
HETATM   19  C   UNL     1      -7.904   0.222 -32.929  1.00  0.00     0.169 A 
HETATM   20  N   UNL     1      -7.611  -0.737 -33.866  1.00  0.00    -0.233 NA
HETATM   21  N   UNL     1      -7.042   0.504 -31.860  1.00  0.00    -0.219 N 
HETATM   22  C   UNL     1      -6.486  -1.371 -33.718  1.00  0.00     0.035 A 
HETATM   23  C   UNL     1      -6.125  -2.444 -34.713  1.00  0.00     0.070 C 
HETATM   24  C   UNL     1      -5.496  -1.119 -32.625  1.00  0.00     0.053 A 
HETATM   25  C   UNL     1      -5.827  -0.183 -31.719  1.00  0.00     0.036 A 
HETATM   26  C   UNL     1      -4.929   0.165 -30.570  1.00  0.00     0.070 C 
HETATM   27  N   UNL     1      -7.540   1.479 -31.063  1.00  0.00    -0.170 NA
HETATM   28  C   UNL     1      -8.704   1.825 -31.622  1.00  0.00     0.071 A 
HETATM   29  C   UNL     1      -9.527   2.901 -31.010  1.00  0.00     0.073 C 
ENDBRANCH   1  18
TORSDOF 6
ENDMDL
MODEL 7
REMARK VINA RESULT:      -7.5      3.913      7.540
REMARK  6 active torsions:
REMARK  status: ('A' for Active; 'I' for Inactive)
REMARK    1  A    between atoms: C_9  and  C_10 
REMARK       I    between atoms: C_10  and  N_11 
REMARK    2  A    between atoms: N_11  and  C_12 
REMARK    3  A    between atoms: C_12  and  C_13 
REMARK    4  A    between atoms: C_13  and  O_14 
REMARK    5  A    between atoms: C_13  and  C_15 
REMARK    6  A    between atoms: C_18  and  O_19 
ROOT
HETATM    1  C   UNL     1      -5.823   0.788 -32.779  1.00  0.00     0.258 C 
HETATM    2  N   UNL     1      -6.029   1.940 -33.505  1.00  0.00    -0.350 N 
HETATM    3  O   UNL     1      -5.580   0.800 -31.577  1.00  0.00    -0.267 OA
HETATM    4  H   UNL     1      -6.114   1.850 -34.517  1.00  0.00     0.163 HD
ENDROOT
BRANCH   2   5
HETATM    5  C   UNL     1      -5.880   3.273 -32.919  1.00  0.00     0.114 C 
HETATM    6  C   UNL     1      -5.463   4.260 -34.013  1.00  0.00     0.035 C 
BRANCH   5   7
HETATM    7  C   UNL     1      -7.181   3.685 -32.173  1.00  0.00     0.173 C 
BRANCH   7   8
HETATM    8  O   UNL     1      -7.152   3.274 -30.803  1.00  0.00    -0.389 OA
HETATM    9  H   UNL     1      -6.220   3.297 -30.523  1.00  0.00     0.210 HD
ENDBRANCH   7   8
BRANCH   7  10
HETATM   10  C   UNL     1      -8.444   3.192 -32.856  1.00  0.00    -0.028 A 
HETATM   11  C   UNL     1      -9.138   2.099 -32.320  1.00  0.00     0.012 A 
HETATM   12  C   UNL     1     -10.321   1.648 -32.911  1.00  0.00     0.037 A 
HETATM   13  C   UNL     1     -10.842   2.286 -34.037  1.00  0.00     0.068 A 
HETATM   14  C   UNL     1     -10.155   3.369 -34.583  1.00  0.00     0.037 A 
HETATM   15  C   UNL     1      -8.964   3.817 -33.998  1.00  0.00     0.012 A 
BRANCH  13  16
HETATM   16  O   UNL     1     -12.012   1.754 -34.504  1.00  0.00    -0.356 OA
HETATM   17  C   UNL     1     -13.081   2.662 -34.733  1.00  0.00     0.210 C 
ENDBRANCH  13  16
ENDBRANCH   7  10
ENDBRANCH   5   7
ENDBRANCH   2   5
BRANCH   1  18
HETATM   18  C   UNL     1      -5.915  -0.451 -33.536  1.00  0.00     0.105 A 
HETATM   19  C   UNL     1      -5.167  -1.604 -33.382  1.00  0.00     0.169 A 
HETATM   20  N   UNL     1      -4.158  -1.927 -32.510  1.00  0.00    -0.233 NA
HETATM   21  N   UNL     1      -5.626  -2.505 -34.354  1.00  0.00    -0.219 N 
HETATM   22  C   UNL     1      -3.648  -3.117 -32.624  1.00  0.00     0.035 A 
HETATM   23  C   UNL     1      -2.526  -3.515 -31.700  1.00  0.00     0.070 C 
HETATM   24  C   UNL     1      -4.092  -4.149 -33.613  1.00  0.00     0.053 A 
HETATM   25  C   UNL     1      -5.072  -3.789 -34.458  1.00  0.00     0.036 A 
HETATM   26  C   UNL     1      -5.607  -4.725 -35.500  1.00  0.00     0.070 C 
HETATM   27  N   UNL     1      -6.620  -1.967 -35.100  1.00  0.00    -0.170 NA
HETATM   28  C   UNL     1      -6.802  -0.739 -34.605  1.00  0.00     0.071 A 
HETATM   29  C   UNL     1      -7.848   0.143 -35.185  1.00  0.00     0.073 C 
ENDBRANCH   1  18
TORSDOF 6
ENDMDL
MODEL 8
REMARK VINA RESULT:      -7.5      3.087      8.599
REMARK  6 active torsions:
REMARK  status: ('A' for Active; 'I' for Inactive)
REMARK    1  A    between atoms: C_9  and  C_10 
REMARK       I    between atoms: C_10  and  N_11 
REMARK    2  A    between atoms: N_11  and  C_12 
REMARK    3  A    between atoms: C_12  and  C_13 
REMARK    4  A    between atoms: C_13  and  O_14 
REMARK    5  A    between atoms: C_13  and  C_15 
REMARK    6  A    between atoms: C_18  and  O_19 
ROOT
HETATM    1  C   UNL     1      -4.685   4.387 -32.800  1.00  0.00     0.258 C 
HETATM    2  N   UNL     1      -3.988   5.110 -33.742  1.00  0.00    -0.350 N 
HETATM    3  O   UNL     1      -4.167   3.978 -31.766  1.00  0.00    -0.267 OA
HETATM    4  H   UNL     1      -4.460   5.316 -34.622  1.00  0.00     0.163 HD
ENDROOT
BRANCH   2   5
HETATM    5  C   UNL     1      -2.551   5.365 -33.630  1.00  0.00     0.114 C 
HETATM    6  C   UNL     1      -1.880   5.066 -34.974  1.00  0.00     0.035 C 
BRANCH   5   7
HETATM    7  C   UNL     1      -2.297   6.810 -33.114  1.00  0.00     0.173 C 
BRANCH   7   8
HETATM    8  O   UNL     1      -1.643   7.612 -34.102  1.00  0.00    -0.389 OA
HETATM    9  H   UNL     1      -1.271   6.999 -34.759  1.00  0.00     0.210 HD
ENDBRANCH   7   8
BRANCH   7  10
HETATM   10  C   UNL     1      -1.539   6.851 -31.799  1.00  0.00    -0.028 A 
HETATM   11  C   UNL     1      -2.250   6.847 -30.592  1.00  0.00     0.012 A 
HETATM   12  C   UNL     1      -1.574   6.850 -29.369  1.00  0.00     0.037 A 
HETATM   13  C   UNL     1      -0.180   6.842 -29.325  1.00  0.00     0.068 A 
HETATM   14  C   UNL     1       0.537   6.855 -30.521  1.00  0.00     0.037 A 
HETATM   15  C   UNL     1      -0.138   6.862 -31.748  1.00  0.00     0.012 A 
BRANCH  13  16
HETATM   16  O   UNL     1       0.352   6.830 -28.066  1.00  0.00    -0.356 OA
HETATM   17  C   UNL     1      -0.562   6.949 -26.984  1.00  0.00     0.210 C 
ENDBRANCH  13  16
ENDBRANCH   7  10
ENDBRANCH   5   7
ENDBRANCH   2   5
BRANCH   1  18
HETATM   18  C   UNL     1      -6.084   4.141 -33.112  1.00  0.00     0.105 A 
HETATM   19  C   UNL     1      -6.664   2.976 -33.582  1.00  0.00     0.169 A 
HETATM   20  N   UNL     1      -6.129   1.749 -33.882  1.00  0.00    -0.233 NA
HETATM   21  N   UNL     1      -8.030   3.249 -33.735  1.00  0.00    -0.219 N 
HETATM   22  C   UNL     1      -6.955   0.843 -34.312  1.00  0.00     0.035 A 
HETATM   23  C   UNL     1      -6.415  -0.518 -34.670  1.00  0.00     0.070 C 
HETATM   24  C   UNL     1      -8.429   1.037 -34.481  1.00  0.00     0.053 A 
HETATM   25  C   UNL     1      -8.912   2.257 -34.191  1.00  0.00     0.036 A 
HETATM   26  C   UNL     1     -10.368   2.589 -34.321  1.00  0.00     0.070 C 
HETATM   27  N   UNL     1      -8.326   4.523 -33.383  1.00  0.00    -0.170 NA
HETATM   28  C   UNL     1      -7.162   5.057 -33.000  1.00  0.00     0.071 A 
HETATM   29  C   UNL     1      -7.117   6.465 -32.525  1.00  0.00     0.073 C 
ENDBRANCH   1  18
TORSDOF 6
ENDMDL
MODEL 9
REMARK VINA RESULT:      -7.5      4.252      7.026
REMARK  6 active torsions:
REMARK  status: ('A' for Active; 'I' for Inactive)
REMARK    1  A    between atoms: C_9  and  C_10 
REMARK       I    between atoms: C_10  and  N_11 
REMARK    2  A    between atoms: N_11  and  C_12 
REMARK    3  A    between atoms: C_12  and  C_13 
REMARK    4  A    between atoms: C_13  and  O_14 
REMARK    5  A    between atoms: C_13  and  C_15 
REMARK    6  A    between atoms: C_18  and  O_19 
ROOT
HETATM    1  C   UNL     1      -8.156   3.080 -32.557  1.00  0.00     0.258 C 
HETATM    2  N   UNL     1      -7.437   2.274 -31.703  1.00  0.00    -0.350 N 
HETATM    3  O   UNL     1      -7.745   3.396 -33.669  1.00  0.00    -0.267 OA
HETATM    4  H   UNL     1      -7.797   2.151 -30.757  1.00  0.00     0.163 HD
ENDROOT
BRANCH   2   5
HETATM    5  C   UNL     1      -6.086   1.808 -32.016  1.00  0.00     0.114 C 
HETATM    6  C   UNL     1      -5.071   2.855 -31.549  1.00  0.00     0.035 C 
BRANCH   5   7
HETATM    7  C   UNL     1      -5.847   0.395 -31.410  1.00  0.00     0.173 C 
BRANCH   7   8
HETATM    8  O   UNL     1      -4.725   0.389 -30.521  1.00  0.00    -0.389 OA
HETATM    9  H   UNL     1      -4.653   1.287 -30.155  1.00  0.00     0.210 HD
ENDBRANCH   7   8
BRANCH   7  10
HETATM   10  C   UNL     1      -5.707  -0.691 -32.461  1.00  0.00    -0.028 A 
HETATM   11  C   UNL     1      -6.805  -1.013 -33.271  1.00  0.00     0.012 A 
HETATM   12  C   UNL     1      -6.691  -1.985 -34.268  1.00  0.00     0.037 A 
HETATM   13  C   UNL     1      -5.481  -2.644 -34.487  1.00  0.00     0.068 A 
HETATM   14  C   UNL     1      -4.386  -2.336 -33.681  1.00  0.00     0.037 A 
HETATM   15  C   UNL     1      -4.499  -1.369 -32.674  1.00  0.00     0.012 A 
BRANCH  13  16
HETATM   16  O   UNL     1      -5.504  -3.559 -35.503  1.00  0.00    -0.356 OA
HETATM   17  C   UNL     1      -6.511  -4.559 -35.440  1.00  0.00     0.210 C 
ENDBRANCH  13  16
ENDBRANCH   7  10
ENDBRANCH   5   7
ENDBRANCH   2   5
BRANCH   1  18
HETATM   18  C   UNL     1      -9.442   3.535 -32.052  1.00  0.00     0.105 A 
HETATM   19  C   UNL     1     -10.706   3.167 -32.476  1.00  0.00     0.169 A 
HETATM   20  N   UNL     1     -11.122   2.299 -33.455  1.00  0.00    -0.233 NA
HETATM   21  N   UNL     1     -11.613   3.886 -31.687  1.00  0.00    -0.219 N 
HETATM   22  C   UNL     1     -12.406   2.171 -33.612  1.00  0.00     0.035 A 
HETATM   23  C   UNL     1     -12.915   1.241 -34.683  1.00  0.00     0.070 C 
HETATM   24  C   UNL     1     -13.444   2.878 -32.799  1.00  0.00     0.053 A 
HETATM   25  C   UNL     1     -12.996   3.730 -31.861  1.00  0.00     0.036 A 
HETATM   26  C   UNL     1     -13.928   4.507 -30.981  1.00  0.00     0.070 C 
HETATM   27  N   UNL     1     -10.975   4.681 -30.795  1.00  0.00    -0.170 NA
HETATM   28  C   UNL     1      -9.672   4.465 -31.005  1.00  0.00     0.071 A 
HETATM   29  C   UNL     1      -8.663   5.172 -30.175  1.00  0.00     0.073 C 
ENDBRANCH   1  18
TORSDOF 6
ENDMDL
MODEL 10
REMARK VINA RESULT:      -7.5     16.611     18.213
REMARK  6 active torsions:
REMARK  status: ('A' for Active; 'I' for Inactive)
REMARK    1  A    between atoms: C_9  and  C_10 
REMARK       I    between atoms: C_10  and  N_11 
REMARK    2  A    between atoms: N_11  and  C_12 
REMARK    3  A    between atoms: C_12  and  C_13 
REMARK    4  A    between atoms: C_13  and  O_14 
REMARK    5  A    between atoms: C_13  and  C_15 
REMARK    6  A    between atoms: C_18  and  O_19 
ROOT
HETATM    1  C   UNL     1      -3.725 -12.669 -37.888  1.00  0.00     0.258 C 
HETATM    2  N   UNL     1      -5.007 -13.108 -38.133  1.00  0.00    -0.350 N 
HETATM    3  O   UNL     1      -3.333 -11.557 -38.224  1.00  0.00    -0.267 OA
HETATM    4  H   UNL     1      -5.220 -14.083 -37.922  1.00  0.00     0.163 HD
ENDROOT
BRANCH   2   5
HETATM    5  C   UNL     1      -5.973 -12.319 -38.899  1.00  0.00     0.114 C 
HETATM    6  C   UNL     1      -6.073 -12.884 -40.319  1.00  0.00     0.035 C 
BRANCH   5   7
HETATM    7  C   UNL     1      -7.338 -12.263 -38.154  1.00  0.00     0.173 C 
BRANCH   7   8
HETATM    8  O   UNL     1      -7.245 -12.834 -36.845  1.00  0.00    -0.389 OA
HETATM    9  H   UNL     1      -7.556 -13.753 -36.918  1.00  0.00     0.210 HD
ENDBRANCH   7   8
BRANCH   7  10
HETATM   10  C   UNL     1      -8.473 -12.896 -38.938  1.00  0.00    -0.028 A 
HETATM   11  C   UNL     1      -8.693 -14.277 -38.842  1.00  0.00     0.012 A 
HETATM   12  C   UNL     1      -9.752 -14.877 -39.527  1.00  0.00     0.037 A 
HETATM   13  C   UNL     1     -10.620 -14.113 -40.308  1.00  0.00     0.068 A 
HETATM   14  C   UNL     1     -10.405 -12.740 -40.416  1.00  0.00     0.037 A 
HETATM   15  C   UNL     1      -9.338 -12.137 -39.738  1.00  0.00     0.012 A 
BRANCH  13  16
HETATM   16  O   UNL     1     -11.622 -14.822 -40.910  1.00  0.00    -0.356 OA
HETATM   17  C   UNL     1     -11.266 -15.586 -42.055  1.00  0.00     0.210 C 
ENDBRANCH  13  16
ENDBRANCH   7  10
ENDBRANCH   5   7
ENDBRANCH   2   5
BRANCH   1  18
HETATM   18  C   UNL     1      -2.863 -13.616 -37.198  1.00  0.00     0.105 A 
HETATM   19  C   UNL     1      -3.161 -14.402 -36.100  1.00  0.00     0.169 A 
HETATM   20  N   UNL     1      -4.307 -14.531 -35.356  1.00  0.00    -0.233 NA
HETATM   21  N   UNL     1      -2.000 -15.130 -35.808  1.00  0.00    -0.219 N 
HETATM   22  C   UNL     1      -4.266 -15.371 -34.365  1.00  0.00     0.035 A 
HETATM   23  C   UNL     1      -5.494 -15.539 -33.508  1.00  0.00     0.070 C 
HETATM   24  C   UNL     1      -3.081 -16.207 -33.998  1.00  0.00     0.053 A 
HETATM   25  C   UNL     1      -1.974 -16.040 -34.741  1.00  0.00     0.036 A 
HETATM   26  C   UNL     1      -0.715 -16.811 -34.478  1.00  0.00     0.070 C 
HETATM   27  N   UNL     1      -0.998 -14.835 -36.670  1.00  0.00    -0.170 NA
HETATM   28  C   UNL     1      -1.515 -13.934 -37.511  1.00  0.00     0.071 A 
HETATM   29  C   UNL     1      -0.684 -13.394 -38.618  1.00  0.00     0.073 C 
ENDBRANCH   1  18
TORSDOF 6
ENDMDL
